# generated using pymatgen
data_H2O
_symmetry_space_group_name_H-M   'P 1'
_cell_length_a   17.99277846
_cell_length_b   17.99702845
_cell_length_c   22.00173476
_cell_angle_alpha   89.98775856
_cell_angle_beta   90.01017565
_cell_angle_gamma   120.00913308
_symmetry_Int_Tables_number   1
_chemical_formula_structural   H2O
_chemical_formula_sum   'H384 O192'
_cell_volume   6169.45222067
_cell_formula_units_Z   192
loop_
 _symmetry_equiv_pos_site_id
 _symmetry_equiv_pos_as_xyz
  1  'x, y, z'
loop_
 _atom_type_symbol
 _atom_type_oxidation_number
  H+  1.0
  O2-  -2.0
loop_
 _atom_site_type_symbol
 _atom_site_label
 _atom_site_symmetry_multiplicity
 _atom_site_fract_x
 _atom_site_fract_y
 _atom_site_fract_z
 _atom_site_occupancy
  H+  H0  1  0.87666734  0.38655948  0.84590859  1
  H+  H1  1  0.41337636  0.46334139  0.46760102  1
  H+  H2  1  0.41461834  0.83123748  0.90357530  1
  H+  H3  1  0.66223729  0.68731298  0.35289395  1
  H+  H4  1  0.88596011  0.61125823  0.99388221  1
  H+  H5  1  0.36502438  0.37178354  0.49300471  1
  H+  H6  1  0.86785685  0.48056747  1.00419740  1
  H+  H7  1  0.85312865  0.63342091  0.15986300  1
  H+  H8  1  0.34582990  0.91405708  0.07210252  1
  H+  H9  1  1.04675338  0.64901455  0.17497524  1
  H+  H10  1  0.90307554  0.51911293  0.85111607  1
  H+  H11  1  0.89779355  1.03817373  0.67494709  1
  H+  H12  1  0.51451722  0.12954935  0.49293076  1
  H+  H13  1  0.97131501  0.86744984  0.99563553  1
  H+  H14  1  0.13774584  0.61254932  0.32613868  1
  H+  H15  1  0.87173433  0.60500177  0.32240724  1
  H+  H16  1  0.61188645  0.12445267  0.17714083  1
  H+  H17  1  0.10919325  0.72693778  0.67622152  1
  H+  H18  1  0.62698353  0.48362983  -0.01551080  1
  H+  H19  1  0.58104593  0.69937975  0.03789726  1
  H+  H20  1  0.88864435  0.03639300  0.98483430  1
  H+  H21  1  0.88570752  0.78076840  0.52395793  1
  H+  H22  1  0.47500194  0.85615020  -0.00155665  1
  H+  H23  1  0.23359582  0.61258464  0.50383658  1
  H+  H24  1  0.13424986  0.10565231  0.99454645  1
  H+  H25  1  0.36476579  0.89015530  0.17101262  1
  H+  H26  1  0.84330336  0.71304336  0.69365362  1
  H+  H27  1  0.98829033  0.11880486  0.32451367  1
  H+  H28  1  0.35529005  0.88767607  0.47498339  1
  H+  H29  1  0.14919813  0.12637939  0.66957359  1
  H+  H30  1  0.36908797  0.14070370  0.15947008  1
  H+  H31  1  0.59795739  0.47425372  0.67932242  1
  H+  H32  1  0.37009955  0.22228430  0.68731148  1
  H+  H33  1  0.60559524  0.37705921  0.48047868  1
  H+  H34  1  0.62905847  0.77570254  0.83597387  1
  H+  H35  1  0.55657395  0.62948348  0.12232589  1
  H+  H36  1  0.20094411  0.34923876  0.33066077  1
  H+  H37  1  0.23647085  0.09863540  0.84434261  1
  H+  H38  1  0.36045144  0.72782930  0.00732869  1
  H+  H39  1  0.63378511  0.40619234  0.32216311  1
  H+  H40  1  0.45150142  0.92489820  0.53584881  1
  H+  H41  1  0.13778036  0.34167585  1.02768598  1
  H+  H42  1  0.38656427  0.86078307  0.66397447  1
  H+  H43  1  0.65755808  0.79743611  0.34057943  1
  H+  H44  1  0.86413082  0.60965111  0.69093673  1
  H+  H45  1  0.47127037  0.10987470  0.65531542  1
  H+  H46  1  0.11930891  0.22241463  0.83574874  1
  H+  H47  1  0.17028003  0.38609914  0.67741994  1
  H+  H48  1  0.52233927  0.15848443  0.81711283  1
  H+  H49  1  0.03499816  0.15114542  0.68281442  1
  H+  H50  1  0.31093631  0.39510459  0.76748604  1
  H+  H51  1  0.11444648  0.13876848  0.35055560  1
  H+  H52  1  0.15217177  1.01696228  0.51674898  1
  H+  H53  1  0.37211281  0.41033295  0.02852451  1
  H+  H54  1  0.36403831  0.97582114  0.67224555  1
  H+  H55  1  0.27320280  0.13225674  0.48859015  1
  H+  H56  1  0.37836033  0.75934033  0.33600305  1
  H+  H57  1  0.60050524  0.11717751  0.33359689  1
  H+  H58  1  1.01723620  0.64016502  0.68325316  1
  H+  H59  1  0.72330696  0.86966169  -0.01385793  1
  H+  H60  1  0.37900675  0.51380275  0.83832094  1
  H+  H61  1  0.01884566  0.38648176  0.15702441  1
  H+  H62  1  0.94941606  0.59946145  0.13104318  1
  H+  H63  1  0.11349266  0.26312960  0.33543385  1
  H+  H64  1  0.65679277  0.26294837  0.98709598  1
  H+  H65  1  0.62655646  0.99379599  0.49772800  1
  H+  H66  1  0.88275568  0.35160248  0.31897900  1
  H+  H67  1  0.36115867  0.13722064  0.47488576  1
  H+  H68  1  0.80856688  0.91911450  0.53046741  1
  H+  H69  1  0.34954906  0.13260271  0.77637369  1
  H+  H70  1  0.13376033  0.64203285  0.49331194  1
  H+  H71  1  0.14561298  0.78412690  1.00081185  1
  H+  H72  1  0.11652829  0.21783777  1.01100560  1
  H+  H73  1  0.59659741  0.71934052  0.67253155  1
  H+  H74  1  0.63164610  0.49277264  1.01813423  1
  H+  H75  1  0.35311954  0.71507374  0.49089312  1
  H+  H76  1  0.09632246  0.16986567  0.77370855  1
  H+  H77  1  0.12243630  0.88557211  0.67061276  1
  H+  H78  1  0.63405816  0.34694532  0.17627690  1
  H+  H79  1  0.12594232  0.98341298  0.34668476  1
  H+  H80  1  0.89145467  0.12059014  0.14282418  1
  H+  H81  1  0.87959285  0.23936767  1.02799944  1
  H+  H82  1  0.51447787  0.63499130  0.99037808  1
  H+  H83  1  0.66370059  0.50578173  0.52133407  1
  H+  H84  1  0.87103477  0.89774682  -0.00852899  1
  H+  H85  1  0.59446895  0.70863301  0.16948882  1
  H+  H86  1  0.09707367  0.37653635  0.34366045  1
  H+  H87  1  0.87796792  0.94895346  0.47794495  1
  H+  H88  1  0.74229359  0.39825029  0.62766153  1
  H+  H89  1  0.31890545  0.46007403  0.66676650  1
  H+  H90  1  0.46720347  0.59608719  0.45734756  1
  H+  H91  1  0.41139804  0.08631234  0.56082241  1
  H+  H92  1  0.61925368  0.60890415  0.66789819  1
  H+  H93  1  0.86139893  0.13733976  0.83091198  1
  H+  H94  1  0.10505107  0.41038560  -0.01772221  1
  H+  H95  1  0.39573338  0.29309696  0.33412507  1
  H+  H96  1  0.90455410  0.24554703  0.12832302  1
  H+  H97  1  0.40476068  0.34035212  0.97344084  1
  H+  H98  1  0.38555602  0.35770707  0.83043765  1
  H+  H99  1  0.32598175  0.66321244  0.73680654  1
  H+  H100  1  0.61391733  0.97860974  0.33052231  1
  H+  H101  1  0.47693225  0.11121506  0.17378274  1
  H+  H102  1  0.88616446  0.86092044  0.17245501  1
  H+  H103  1  0.68080363  0.82546037  0.52194478  1
  H+  H104  1  0.54961929  0.64291941  0.28330131  1
  H+  H105  1  0.06800032  0.92298900  0.64158076  1
  H+  H106  1  0.67328346  0.67043688  0.96952731  1
  H+  H107  1  0.62479044  0.26033591  0.49639571  1
  H+  H108  1  0.13405225  0.27162948  0.16137734  1
  H+  H109  1  0.12077718  0.97908722  0.16789035  1
  H+  H110  1  0.26932043  0.63348345  0.83169046  1
  H+  H111  1  0.36391642  0.88258629  0.83175778  1
  H+  H112  1  0.13206534  0.36052486  0.51610540  1
  H+  H113  1  0.57839964  0.40799723  0.76409976  1
  H+  H114  1  0.63460465  0.61789392  0.50114963  1
  H+  H115  1  0.25927974  0.62890276  0.34719387  1
  H+  H116  1  0.61681478  0.23474771  0.81842398  1
  H+  H117  1  0.60365153  0.97352844  0.01519160  1
  H+  H118  1  0.50438201  0.88499365  0.51050967  1
  H+  H119  1  0.12117720  0.48060834  0.67962214  1
  H+  H120  1  0.35432249  0.63592870  0.16402614  1
  H+  H121  1  0.13908701  0.85941103  0.51049851  1
  H+  H122  1  0.59128043  0.36576907  0.32496107  1
  H+  H123  1  0.13566482  0.36096791  0.84919036  1
  H+  H124  1  0.10853008  0.47310529  0.49461122  1
  H+  H125  1  0.14323148  0.86527264  0.31732702  1
  H+  H126  1  0.13226340  0.36100665  0.15909926  1
  H+  H127  1  0.23020674  0.86218902  0.66433461  1
  H+  H128  1  0.38377407  1.02639398  0.50217512  1
  H+  H129  1  0.38443437  0.36661301  0.17844392  1
  H+  H130  1  1.02053514  0.15204907  0.49858413  1
  H+  H131  1  0.88642394  0.77274247  0.17148046  1
  H+  H132  1  0.13689396  0.85857698  0.83937869  1
  H+  H133  1  0.36884582  0.89553618  0.32289601  1
  H+  H134  1  0.54356417  0.68103144  0.28378854  1
  H+  H135  1  0.14857273  0.11485444  0.18312696  1
  H+  H136  1  0.23074091  0.36386816  1.01026487  1
  H+  H137  1  0.85197544  0.12994420  0.32038411  1
  H+  H138  1  0.62109616  0.11287314  0.52477908  1
  H+  H139  1  -0.00512420  0.61868871  0.84402172  1
  H+  H140  1  0.50849096  0.63020712  0.67128681  1
  H+  H141  1  0.38801455  0.85935326  -0.00008343  1
  H+  H142  1  0.46478788  0.35906268  0.66261622  1
  H+  H143  1  0.87448638  0.51236465  0.15748299  1
  H+  H144  1  0.26746546  0.38443066  0.16101154  1
  H+  H145  1  0.61245900  0.52796485  0.34940653  1
  H+  H146  1  0.86207966  0.88271472  0.82825328  1
  H+  H147  1  0.85675139  0.14155861  0.51597957  1
  H+  H148  1  0.28927031  0.88677284  0.01172195  1
  H+  H149  1  0.12788680  0.23805967  0.68213418  1
  H+  H150  1  0.88048834  0.35200392  0.16752515  1
  H+  H151  1  0.35663761  0.63050346  0.82852466  1
  H+  H152  1  0.17347445  0.34051381  0.57322679  1
  H+  H153  1  0.50880699  0.32055646  1.01465804  1
  H+  H154  1  0.54790949  0.21249481  0.03924951  1
  H+  H155  1  0.37654069  0.11075532  0.98369553  1
  H+  H156  1  0.38106273  0.25878692  0.50031135  1
  H+  H157  1  0.11420211  0.72868982  0.82981469  1
  H+  H158  1  1.03450009  0.89792569  0.33931195  1
  H+  H159  1  0.63615325  0.33466474  0.99754281  1
  H+  H160  1  0.97344639  0.35749797  0.51181965  1
  H+  H161  1  0.89628679  0.36509732  0.66708704  1
  H+  H162  1  0.50529830  0.42640817  0.35486178  1
  H+  H163  1  0.97964693  0.11288703  0.83821705  1
  H+  H164  1  0.93229824  0.11618387  0.58899498  1
  H+  H165  1  0.38211568  0.77116334  0.17636455  1
  H+  H166  1  0.73043599  0.61646417  0.33434415  1
  H+  H167  1  0.61701858  0.21436927  0.16559723  1
  H+  H168  1  0.98227944  0.62303139  1.00185595  1
  H+  H169  1  0.10428188  0.64476646  0.01501213  1
  H+  H170  1  0.84807353  0.47650418  0.69857685  1
  H+  H171  1  0.02937714  0.89270244  0.16544660  1
  H+  H172  1  0.37353478  0.36843630  0.33135335  1
  H+  H173  1  0.15449421  0.11394223  0.84102513  1
  H+  H174  1  0.13971590  0.62207802  0.16924274  1
  H+  H175  1  0.89574586  0.12691655  0.99875867  1
  H+  H176  1  0.09892195  0.96951470  0.00859384  1
  H+  H177  1  0.14542560  0.77316702  0.51010474  1
  H+  H178  1  0.28018116  0.13797795  0.68787192  1
  H+  H179  1  0.60967687  0.46267613  0.16361790  1
  H+  H180  1  0.92143050  0.09241224  0.89687356  1
  H+  H181  1  0.75453865  0.62465487  0.69458462  1
  H+  H182  1  0.56903258  0.73733163  0.50207981  1
  H+  H183  1  0.88575221  0.26893882  0.84874755  1
  H+  H184  1  0.37622150  0.61639673  0.99167058  1
  H+  H185  1  0.90658733  0.87613762  0.53755961  1
  H+  H186  1  0.52400857  0.89249556  0.67130846  1
  H+  H187  1  0.83701614  0.93137098  0.36142458  1
  H+  H188  1  0.63785166  0.78531657  -0.03187454  1
  H+  H189  1  1.02384982  0.38286359  0.83487490  1
  H+  H190  1  0.22220671  0.62315525  0.99863385  1
  H+  H191  1  0.35814410  0.51989686  0.51004885  1
  H+  H192  1  0.27524420  0.88753162  0.16386935  1
  H+  H193  1  0.63508816  0.11695703  0.83629460  1
  H+  H194  1  0.13893947  0.85728752  0.16519696  1
  H+  H195  1  0.22518484  0.85673538  0.83785355  1
  H+  H196  1  0.37660063  0.52856281  0.99897338  1
  H+  H197  1  0.26513310  0.12844917  0.00978638  1
  H+  H198  1  0.52763712  0.63355807  0.84873408  1
  H+  H199  1  0.95947740  0.84269238  0.68722506  1
  H+  H200  1  0.43026797  0.58172963  0.34852975  1
  H+  H201  1  0.22256274  0.61407787  0.66383657  1
  H+  H202  1  0.13639282  0.53009614  0.16976620  1
  H+  H203  1  0.45825229  0.60292162  0.19273518  1
  H+  H204  1  0.59409056  0.71791574  0.51573413  1
  H+  H205  1  0.62030900  0.10292278  -0.00879772  1
  H+  H206  1  0.07308863  0.40995074  0.43733652  1
  H+  H207  1  0.60437862  0.14376567  0.65719798  1
  H+  H208  1  0.72412780  0.87131958  0.67186340  1
  H+  H209  1  0.35722900  0.96817573  0.83010687  1
  H+  H210  1  0.91190836  0.31878607  0.22432883  1
  H+  H211  1  0.15085506  1.03863490  0.67432193  1
  H+  H212  1  0.52039551  0.13324945  0.33905683  1
  H+  H213  1  0.64618272  0.91813930  0.49762878  1
  H+  H214  1  0.60722257  0.39379423  0.66489118  1
  H+  H215  1  0.63833462  0.88356875  0.33188041  1
  H+  H216  1  0.73779869  0.33617462  0.31870229  1
  H+  H217  1  0.33092140  0.45941056  0.34213270  1
  H+  H218  1  0.37823944  0.24201643  0.98210215  1
  H+  H219  1  0.87546742  0.99440462  0.30645940  1
  H+  H220  1  0.62788239  0.00847596  0.20676418  1
  H+  H221  1  0.59960689  0.59573152  0.52443554  1
  H+  H222  1  0.89558295  0.12694921  0.67910643  1
  H+  H223  1  0.97421586  0.36995949  0.99919412  1
  H+  H224  1  0.02587182  0.12576010  0.16089784  1
  H+  H225  1  0.92380016  0.33679016  0.60630545  1
  H+  H226  1  0.85589971  0.46260933  0.33990943  1
  H+  H227  1  0.72445000  0.10529085  0.30046215  1
  H+  H228  1  0.85964668  0.44767115  0.48664389  1
  H+  H229  1  0.41503305  0.13066904  0.88937866  1
  H+  H230  1  0.46962018  0.84725978  0.33342436  1
  H+  H231  1  0.88292918  0.26610197  0.51834955  1
  H+  H232  1  0.38174779  0.10623586  0.66123558  1
  H+  H233  1  0.76702746  0.37525721  0.15776178  1
  H+  H234  1  0.73445309  0.37220869  0.84338188  1
  H+  H235  1  0.28527797  0.14842306  0.38499782  1
  H+  H236  1  0.13335842  0.61164799  0.84166693  1
  H+  H237  1  0.85637891  0.35951669  0.49609465  1
  H+  H238  1  0.86375304  0.73390751  0.33758013  1
  H+  H239  1  0.72193868  0.60896925  0.18393749  1
  H+  H240  1  0.64565722  0.24820837  0.32022188  1
  H+  H241  1  0.89678027  0.68224528  0.49666699  1
  H+  H242  1  0.13944135  0.76540683  0.16503652  1
  H+  H243  1  0.88851942  0.57665362  0.46804629  1
  H+  H244  1  0.36576703  0.60123680  0.66162971  1
  H+  H245  1  0.02858789  0.88295386  0.49952068  1
  H+  H246  1  0.76854244  0.14223167  0.51959899  1
  H+  H247  1  0.35864718  0.72314666  0.67741739  1
  H+  H248  1  0.16975923  0.58241532  0.56346330  1
  H+  H249  1  0.60890336  0.89178367  0.81338458  1
  H+  H250  1  0.35205973  0.59758861  0.33896424  1
  H+  H251  1  0.23824328  0.11765530  0.18074937  1
  H+  H252  1  0.88211651  0.36179022  0.99965258  1
  H+  H253  1  0.39550953  0.04236886  0.32197653  1
  H+  H254  1  0.37094667  0.34858322  0.65880326  1
  H+  H255  1  0.79479092  0.62443313  0.50793711  1
  H+  H256  1  0.63412174  0.02802128  0.83569987  1
  H+  H257  1  0.26664890  0.36997835  0.83243344  1
  H+  H258  1  0.51856908  0.37767309  0.49610654  1
  H+  H259  1  0.77829193  0.38942610  0.00120750  1
  H+  H260  1  0.13203785  0.61052273  0.66214859  1
  H+  H261  1  0.90764120  0.05053407  0.53630531  1
  H+  H262  1  0.83890517  0.96645659  0.15290189  1
  H+  H263  1  0.36680569  0.22902562  0.16209395  1
  H+  H264  1  0.38444181  0.77274479  0.84362441  1
  H+  H265  1  0.85595009  0.88825054  0.68175664  1
  H+  H266  1  0.87390638  0.78496625  0.98728670  1
  H+  H267  1  0.77181773  0.13841048  0.83230387  1
  H+  H268  1  0.62593391  1.02732459  0.62407911  1
  H+  H269  1  0.27209596  0.88841465  0.49771917  1
  H+  H270  1  0.36652962  0.61530891  0.50072689  1
  H+  H271  1  0.41523886  0.33952592  0.23813163  1
  H+  H272  1  0.13195123  0.73389431  0.33123261  1
  H+  H273  1  0.04660842  0.64015617  0.47723811  1
  H+  H274  1  0.89460405  0.87015148  0.31431352  1
  H+  H275  1  0.11427507  -0.02824341  0.82965324  1
  H+  H276  1  0.66311084  0.53918024  0.81913655  1
  H+  H277  1  0.51767268  0.37895711  0.16835309  1
  H+  H278  1  0.87107702  0.22947896  0.67980331  1
  H+  H279  1  0.38528803  0.02615751  0.17610933  1
  H+  H280  1  0.77071350  0.64552867  1.00425956  1
  H+  H281  1  0.71763587  0.34510580  0.48974753  1
  H+  H282  1  0.70005907  0.84105594  0.17813404  1
  H+  H283  1  0.26734455  0.63872561  0.16010819  1
  H+  H284  1  0.73348622  0.88784566  0.30951987  1
  H+  H285  1  0.03800282  0.38835681  0.67889469  1
  H+  H286  1  0.45809528  0.10093770  -0.02208391  1
  H+  H287  1  0.61138453  0.38549447  0.82652517  1
  H+  H288  1  0.38925688  0.57316029  0.24650768  1
  H+  H289  1  0.77828239  0.94882325  0.42492332  1
  H+  H290  1  0.41789087  0.31369070  0.88580851  1
  H+  H291  1  0.16551099  0.57842680  0.26836306  1
  H+  H292  1  0.11512602  0.68378200  0.39385472  1
  H+  H293  1  0.07702445  0.66972030  0.07900495  1
  H+  H294  1  0.51611139  0.55624344  0.41686595  1
  H+  H295  1  0.67371051  0.31387577  0.22993276  1
  H+  H296  1  0.91185861  0.82700335  0.89375320  1
  H+  H297  1  0.56827947  0.44935022  0.41598896  1
  H+  H298  1  0.28336546  0.89956005  0.31575901  1
  H+  H299  1  0.66604297  0.58154371  0.27369012  1
  H+  H300  1  0.58691258  0.93641447  0.72631175  1
  H+  H301  1  0.16906534  0.07667799  0.93698486  1
  H+  H302  1  0.57148112  0.15251072  0.07513924  1
  H+  H303  1  0.83098975  0.92127580  0.74035956  1
  H+  H304  1  0.67543354  0.36349286  0.57303300  1
  H+  H305  1  0.07735918  0.42143948  0.09793376  1
  H+  H306  1  0.63670803  0.87541821  0.66545974  1
  H+  H307  1  0.73655339  0.66511725  0.92002931  1
  H+  H308  1  0.78916433  0.88560931  0.10870629  1
  H+  H309  1  0.17028372  0.83175862  0.60443139  1
  H+  H310  1  0.31620396  0.39909536  0.39973005  1
  H+  H311  1  0.71628994  0.86267285  0.82226683  1
  H+  H312  1  0.40073845  0.57108647  0.89840598  1
  H+  H313  1  0.86596621  0.97476104  0.83138587  1
  H+  H314  1  0.08093870  0.66739148  0.76991087  1
  H+  H315  1  0.91637898  0.32576623  0.91037414  1
  H+  H316  1  0.11385873  0.23007784  0.49379665  1
  H+  H317  1  0.92555106  0.57710378  0.53284523  1
  H+  H318  1  0.57961972  0.92076843  0.11539239  1
  H+  H319  1  0.31967204  0.65601399  0.40952753  1
  H+  H320  1  0.92569145  0.83222329  0.26314371  1
  H+  H321  1  0.08548941  0.91337022  0.43785060  1
  H+  H322  1  0.16494348  0.33189960  0.90925350  1
  H+  H323  1  0.02349504  0.13496819  0.00546272  1
  H+  H324  1  0.96712634  0.84854687  0.83434396  1
  H+  H325  1  0.41021897  0.82247032  0.23972059  1
  H+  H326  1  0.07193326  0.16161041  0.40813270  1
  H+  H327  1  0.08247919  0.15283503  0.10143257  1
  H+  H328  1  0.17881969  0.83279377  0.93844293  1
  H+  H329  1  0.33233945  0.16674634  0.06671734  1
  H+  H330  1  0.72014126  0.50135042  0.57255712  1
  H+  H331  1  0.87276550  0.95029108  0.04886243  1
  H+  H332  1  0.40719192  0.31144185  0.56444323  1
  H+  H333  1  0.76032053  0.56232609  0.03720045  1
  H+  H334  1  0.91343827  0.82061428  0.62303814  1
  H+  H335  1  0.13236247  0.52184537  0.84618364  1
  H+  H336  1  0.83638170  0.17282201  0.73961987  1
  H+  H337  1  0.35445917  0.47645690  0.17324420  1
  H+  H338  1  0.18619316  0.08241480  0.57332641  1
  H+  H339  1  0.11112112  0.49706563  0.00326951  1
  H+  H340  1  0.08622355  0.41593663  0.77606433  1
  H+  H341  1  0.42234911  0.83305128  0.60703091  1
  H+  H342  1  0.16793069  0.83389111  0.25527212  1
  H+  H343  1  0.59469942  0.68863386  0.39667290  1
  H+  H344  1  0.19185389  0.10052244  0.27916784  1
  H+  H345  1  0.09967486  0.46723276  0.34107990  1
  H+  H346  1  0.61869102  0.64199441  0.83803853  1
  H+  H347  1  0.66871633  0.33290234  0.89720789  1
  H+  H348  1  0.16308713  0.59455036  0.93864237  1
  H+  H349  1  0.69051719  0.86987934  0.58572437  1
  H+  H350  1  0.51630437  0.88334501  0.17260140  1
  H+  H351  1  0.60140025  0.93608986  0.39849721  1
  H+  H352  1  0.56125169  0.35404214  0.07809186  1
  H+  H353  1  0.84747640  0.21559432  0.31883853  1
  H+  H354  1  0.81465714  0.65963058  0.10614411  1
  H+  H355  1  0.82933715  0.06985424  0.19575110  1
  H+  H356  1  0.90766256  0.57520983  0.26789289  1
  H+  H357  1  0.57960375  0.16713101  0.72122730  1
  H+  H358  1  0.33676943  0.91691800  0.73286779  1
  H+  H359  1  0.39379457  0.57307083  0.60079403  1
  H+  H360  1  0.66376164  0.57712140  0.61729407  1
  H+  H361  1  0.93241578  0.58914794  0.91075046  1
  H+  H362  1  0.65234866  0.07474646  0.93420830  1
  H+  H363  1  0.83264821  0.39738358  0.39706494  1
  H+  H364  1  0.88918923  0.57217166  0.63376802  1
  H+  H365  1  0.33121077  0.42910893  0.08509415  1
  H+  H366  1  0.42750420  0.10806772  0.26930468  1
  H+  H367  1  0.52260487  0.89495566  0.82383393  1
  H+  H368  1  0.08622823  0.91797929  0.76867540  1
  H+  H369  1  0.76439215  0.38805913  0.71970606  1
  H+  H370  1  0.61365688  0.84529165  0.17240287  1
  H+  H371  1  0.60827860  0.88811602  1.01721745  1
  H+  H372  1  0.76846060  0.90285438  0.42673526  1
  H+  H373  1  0.81010980  0.68713542  0.83393735  1
  H+  H374  1  0.49007179  0.36859938  0.82804573  1
  H+  H375  1  0.62898948  0.60166383  0.18832621  1
  H+  H376  1  0.57854100  0.14953163  0.43568771  1
  H+  H377  1  0.06882016  0.91592427  0.07004463  1
  H+  H378  1  0.85335348  0.42147838  0.78595505  1
  H+  H379  1  0.96980506  0.35028939  0.32174578  1
  H+  H380  1  0.82792317  0.40737955  0.09827892  1
  H+  H381  1  0.94379862  0.10940605  0.25807893  1
  H+  H382  1  0.32848363  0.66705024  0.06688718  1
  H+  H383  1  0.83639196  0.67685273  0.39860970  1
  O2-  O384  1  0.08527872  0.15576508  0.14703020  1
  O2-  O385  1  0.07547205  0.17166579  0.47680329  1
  O2-  O386  1  0.09434715  0.16337283  0.81906452  1
  O2-  O387  1  0.07980339  0.41899116  0.14256944  1
  O2-  O388  1  0.07496126  0.41127285  0.48292367  1
  O2-  O389  1  0.08525551  0.41495387  0.82163239  1
  O2-  O390  1  0.09384489  0.67181355  0.14583959  1
  O2-  O391  1  0.10904056  0.67809315  0.47649565  1
  O2-  O392  1  0.08098991  0.66608397  0.81570311  1
  O2-  O393  1  0.08847790  0.92152363  0.14858051  1
  O2-  O394  1  0.08760732  0.91022110  0.48321462  1
  O2-  O395  1  0.08308737  0.91198360  0.81308117  1
  O2-  O396  1  0.33699999  0.17020402  0.14452871  1
  O2-  O397  1  0.32742658  0.16508332  0.46322520  1
  O2-  O398  1  0.34066066  0.10425104  0.81728542  1
  O2-  O399  1  0.33248895  0.41883314  0.15328990  1
  O2-  O400  1  0.35503697  0.41585879  0.47256512  1
  O2-  O401  1  0.32377824  0.39579878  0.81144039  1
  O2-  O402  1  0.32911456  0.66862430  0.14526024  1
  O2-  O403  1  0.32263097  0.65501006  0.47881794  1
  O2-  O404  1  0.32875685  0.66385083  0.81488362  1
  O2-  O405  1  0.33792610  0.92207900  0.15341629  1
  O2-  O406  1  0.33053091  0.92455886  0.48005050  1
  O2-  O407  1  0.33164521  0.91026721  0.81339583  1
  O2-  O408  1  0.58494804  0.15189394  0.15399711  1
  O2-  O409  1  0.57715102  0.15537140  0.48108070  1
  O2-  O410  1  0.58136138  0.17449516  0.80442652  1
  O2-  O411  1  0.57677292  0.40191934  0.15089200  1
  O2-  O412  1  0.57768332  0.41347126  0.47811456  1
  O2-  O413  1  0.57794876  0.41200385  0.80990392  1
  O2-  O414  1  0.56562619  0.64279828  0.16555159  1
  O2-  O415  1  0.49968471  0.60059698  0.41822037  1
  O2-  O416  1  0.58921564  0.66856606  0.85862866  1
  O2-  O417  1  0.57898577  0.91557769  0.16089033  1
  O2-  O418  1  0.60910414  0.93768500  0.47775550  1
  O2-  O419  1  0.58062420  0.92783252  0.80551041  1
  O2-  O420  1  0.91879498  0.20807996  0.10206040  1
  O2-  O421  1  0.82493860  0.16942466  0.49958295  1
  O2-  O422  1  0.83370814  0.17159793  0.81962879  1
  O2-  O423  1  0.82889711  0.40803558  0.14354809  1
  O2-  O424  1  0.82427417  0.38662147  0.47606113  1
  O2-  O425  1  0.85230733  0.42393398  0.83105629  1
  O2-  O426  1  0.82239575  0.66606675  0.15118499  1
  O2-  O427  1  0.84104908  0.67218417  0.48264067  1
  O2-  O428  1  0.76843807  0.63185724  0.85316824  1
  O2-  O429  1  0.81679200  0.90342237  0.14840183  1
  O2-  O430  1  0.87223019  0.94257632  0.52193223  1
  O2-  O431  1  0.83392757  0.91566192  0.81440421  1
  O2-  O432  1  0.18035841  0.08808556  0.20086269  1
  O2-  O433  1  0.19016689  0.07717695  0.52905102  1
  O2-  O434  1  0.17669774  0.07709778  0.85790231  1
  O2-  O435  1  0.16938477  0.33469761  0.16039333  1
  O2-  O436  1  0.16246507  0.33018256  0.52958230  1
  O2-  O437  1  0.16616339  0.33064537  0.86447013  1
  O2-  O438  1  0.16916418  0.58940531  0.18586399  1
  O2-  O439  1  0.16936955  0.58238559  0.51846991  1
  O2-  O440  1  0.16298508  0.58290307  0.86019150  1
  O2-  O441  1  0.16967521  0.82864982  0.18116808  1
  O2-  O442  1  0.17056238  0.83199885  0.52864605  1
  O2-  O443  1  0.16467444  0.82529093  0.85288591  1
  O2-  O444  1  0.41616767  0.08917513  0.18609842  1
  O2-  O445  1  0.41524899  0.08810679  0.51549180  1
  O2-  O446  1  0.42450257  0.15832661  0.84695970  1
  O2-  O447  1  0.41510030  0.33625279  0.19304400  1
  O2-  O448  1  0.41391474  0.31774657  0.51960771  1
  O2-  O449  1  0.42343154  0.33205751  0.84152463  1
  O2-  O450  1  0.39574263  0.57550485  0.20107427  1
  O2-  O451  1  0.39978625  0.58107933  0.51588186  1
  O2-  O452  1  0.40556488  0.57344169  0.85308256  1
  O2-  O453  1  0.41398987  0.83005521  0.19449327  1
  O2-  O454  1  0.44831795  0.86965053  0.52988126  1
  O2-  O455  1  0.41327410  0.83340443  0.85782068  1
  O2-  O456  1  0.66136272  0.07016570  0.22058969  1
  O2-  O457  1  0.65169296  0.08267669  0.54249310  1
  O2-  O458  1  0.66534870  0.08796292  0.85268534  1
  O2-  O459  1  0.66868416  0.31897302  0.18348612  1
  O2-  O460  1  0.65716748  0.32436602  0.50343450  1
  O2-  O461  1  0.67200290  0.34176220  0.85214130  1
  O2-  O462  1  0.66323038  0.57482153  0.20256512  1
  O2-  O463  1  0.71360693  0.54377740  0.54738907  1
  O2-  O464  1  0.69285967  0.60216616  0.81332389  1
  O2-  O465  1  0.63731703  0.80595090  0.17984388  1
  O2-  O466  1  0.70754955  0.88288934  0.53984268  1
  O2-  O467  1  0.65328472  0.83522032  0.82023844  1
  O2-  O468  1  0.87764355  0.07300696  0.17325123  1
  O2-  O469  1  0.92610310  0.11156514  0.54351983  1
  O2-  O470  1  0.91881779  0.08527613  0.85184756  1
  O2-  O471  1  0.91326377  0.32265636  0.17863280  1
  O2-  O472  1  0.91464879  0.32951525  0.53066814  1
  O2-  O473  1  0.91910076  0.32981875  0.86489136  1
  O2-  O474  1  0.90501814  0.57687493  0.16263881  1
  O2-  O475  1  0.92824533  0.56431222  0.49015252  1
  O2-  O476  1  0.93350061  0.58299015  0.86363757  1
  O2-  O477  1  0.91878651  0.83329287  0.18662363  1
  O2-  O478  1  0.92712697  0.83401100  0.54497006  1
  O2-  O479  1  0.90685746  0.81949991  0.84878166  1
  O2-  O480  1  0.18911236  0.10031623  0.32514384  1
  O2-  O481  1  0.18169481  0.09691005  0.65711018  1
  O2-  O482  1  0.16657867  0.07632271  0.98228835  1
  O2-  O483  1  0.13967660  0.32242914  0.31929155  1
  O2-  O484  1  0.19994704  0.35532820  0.66033626  1
  O2-  O485  1  0.16934281  0.33051520  0.99618438  1
  O2-  O486  1  0.16265923  0.57496056  0.31354210  1
  O2-  O487  1  0.16224913  0.58036646  0.64791184  1
  O2-  O488  1  0.16087854  0.59428986  0.98406609  1
  O2-  O489  1  0.17303047  0.83617727  0.30112227  1
  O2-  O490  1  0.16860903  0.83250309  0.65035049  1
  O2-  O491  1  0.18796571  0.83939734  0.98267267  1
  O2-  O492  1  0.42930047  0.10573054  0.31421530  1
  O2-  O493  1  0.40921529  0.07593720  0.64175613  1
  O2-  O494  1  0.40750734  0.09279526  0.95531977  1
  O2-  O495  1  0.41948047  0.35249211  0.32020881  1
  O2-  O496  1  0.40483647  0.32147528  0.64765228  1
  O2-  O497  1  0.41957539  0.29837550  0.95900909  1
  O2-  O498  1  0.37838914  0.56174972  0.32322143  1
  O2-  O499  1  0.38849359  0.56423254  0.64568840  1
  O2-  O500  1  0.40462708  0.58371090  0.97640417  1
  O2-  O501  1  0.41102939  0.81806046  0.31697176  1
  O2-  O502  1  0.41641827  0.82853658  0.65196961  1
  O2-  O503  1  0.41569065  0.82622449  0.98117376  1
  O2-  O504  1  0.65855022  0.06879162  0.28792885  1
  O2-  O505  1  0.64572204  0.08654987  0.60882133  1
  O2-  O506  1  0.64863270  0.07096418  0.97928039  1
  O2-  O507  1  0.68315734  0.30087199  0.29632564  1
  O2-  O508  1  0.69460665  0.40235565  0.60999570  1
  O2-  O509  1  0.67750290  0.32291608  0.97443133  1
  O2-  O510  1  0.66813542  0.58917230  0.32036230  1
  O2-  O511  1  0.65098443  0.57570940  0.66089392  1
  O2-  O512  1  0.73309369  0.68451881  0.96170768  1
  O2-  O513  1  0.66895757  0.85056983  0.31391504  1
  O2-  O514  1  0.66674421  0.84404217  0.65114466  1
  O2-  O515  1  0.66202046  0.84620241  0.97783797  1
  O2-  O516  1  0.93108816  0.09358223  0.30095762  1
  O2-  O517  1  0.93139978  0.10019649  0.66468648  1
  O2-  O518  1  0.92302385  0.09910302  0.97570025  1
  O2-  O519  1  0.91131222  0.32042691  0.30208932  1
  O2-  O520  1  0.92954004  0.33927449  0.65212102  1
  O2-  O521  1  0.91289050  0.33007880  0.98814813  1
  O2-  O522  1  0.88876899  0.56296902  0.31012045  1
  O2-  O523  1  0.89765418  0.57818871  0.67757420  1
  O2-  O524  1  0.92356549  0.58911429  0.97923602  1
  O2-  O525  1  0.92342407  0.83590517  0.30870203  1
  O2-  O526  1  0.90282305  0.81829858  0.66781133  1
  O2-  O527  1  0.91311585  0.84263616  0.97230653  1
  O2-  O528  1  0.08216091  0.15673603  0.02338549  1
  O2-  O529  1  0.07259358  0.15693915  0.36111183  1
  O2-  O530  1  0.09704959  0.17764797  0.69585775  1
  O2-  O531  1  0.08106610  0.43242815  0.01232852  1
  O2-  O532  1  0.06615831  0.40783514  0.35786007  1
  O2-  O533  1  0.09714106  0.42085932  0.69637058  1
  O2-  O534  1  0.07025894  0.66988819  0.03144011  1
  O2-  O535  1  0.10542530  0.67549312  0.34961344  1
  O2-  O536  1  0.07905036  0.66726673  0.69332791  1
  O2-  O537  1  0.05716202  0.91262895  0.02567003  1
  O2-  O538  1  0.09182228  0.92232286  0.35866789  1
  O2-  O539  1  0.08868617  0.91586604  0.68096175  1
  O2-  O540  1  0.32786899  0.16202524  0.02112566  1
  O2-  O541  1  0.28025422  0.15926885  0.34083887  1
  O2-  O542  1  0.34070873  0.16229127  0.70273680  1
  O2-  O543  1  0.33083950  0.42860720  0.03764804  1
  O2-  O544  1  0.31028616  0.39812887  0.35443153  1
  O2-  O545  1  0.28905776  0.39973869  0.68478233  1
  O2-  O546  1  0.32593155  0.66577050  0.02127316  1
  O2-  O547  1  0.32040512  0.65799661  0.36218519  1
  O2-  O548  1  0.32438026  0.66212725  0.69118282  1
  O2-  O549  1  0.34916993  0.91109675  0.02722511  1
  O2-  O550  1  0.34560398  0.93461991  0.32498641  1
  O2-  O551  1  0.33455532  0.91474834  0.68757543  1
  O2-  O552  1  0.56270428  0.16702387  0.03283253  1
  O2-  O553  1  0.58027049  0.15063298  0.35654238  1
  O2-  O554  1  0.57220772  0.16825719  0.67661735  1
  O2-  O555  1  0.55335823  0.32000346  0.04045667  1
  O2-  O556  1  0.55373658  0.47519790  0.37898978  1
  O2-  O557  1  0.57136141  0.41069624  0.68861197  1
  O2-  O558  1  0.57539991  0.66104873  0.00483249  1
  O2-  O559  1  0.65211207  0.72681648  0.37775390  1
  O2-  O560  1  0.56896256  0.65851305  0.68464936  1
  O2-  O561  1  0.57700119  0.91556791  0.03511168  1
  O2-  O562  1  0.59263103  0.92353884  0.35387127  1
  O2-  O563  1  0.58608442  0.93134990  0.68079782  1
  O2-  O564  1  0.86012853  0.18278747  0.04944098  1
  O2-  O565  1  0.81198134  0.15188086  0.32560698  1
  O2-  O566  1  0.84108882  0.16956047  0.69481218  1
  O2-  O567  1  0.83726494  0.42015322  0.01927199  1
  O2-  O568  1  0.83489210  0.40187094  0.35192505  1
  O2-  O569  1  0.82409490  0.41319748  0.70682976  1
  O2-  O570  1  0.80230635  0.62288600  0.03132205  1
  O2-  O571  1  0.82996025  0.67359318  0.35390595  1
  O2-  O572  1  0.81537105  0.65279934  0.70832687  1
  O2-  O573  1  0.84475343  0.93211351  0.00935175  1
  O2-  O574  1  0.83766517  0.93031217  0.31695566  1
  O2-  O575  1  0.83029023  0.92327629  0.69432719  1
