# generated using pymatgen
data_H2O
_symmetry_space_group_name_H-M   'P 1'
_cell_length_a   17.99208330
_cell_length_b   17.99194343
_cell_length_c   22.00542749
_cell_angle_alpha   89.97897890
_cell_angle_beta   90.01869071
_cell_angle_gamma   119.98862875
_symmetry_Int_Tables_number   1
_chemical_formula_structural   H2O
_chemical_formula_sum   'H384 O192'
_cell_volume   6169.78014008
_cell_formula_units_Z   192
loop_
 _symmetry_equiv_pos_site_id
 _symmetry_equiv_pos_as_xyz
  1  'x, y, z'
loop_
 _atom_type_symbol
 _atom_type_oxidation_number
  H+  1.0
  O2-  -2.0
loop_
 _atom_site_type_symbol
 _atom_site_label
 _atom_site_symmetry_multiplicity
 _atom_site_fract_x
 _atom_site_fract_y
 _atom_site_fract_z
 _atom_site_occupancy
  H+  H0  1  0.02251763  0.37887138  0.49311199  1
  H+  H1  1  0.13154377  0.98751089  0.01115772  1
  H+  H2  1  0.39847494  0.56368991  0.56793466  1
  H+  H3  1  0.64346076  0.36965542  0.99976654  1
  H+  H4  1  0.26869844  0.52239061  0.30439595  1
  H+  H5  1  0.09610946  0.58165894  0.01673886  1
  H+  H6  1  0.87537221  0.51427907  0.50105988  1
  H+  H7  1  0.62590771  0.83731559  0.66741574  1
  H+  H8  1  0.02503804  0.12956054  0.67919246  1
  H+  H9  1  0.14335909  0.50111730  0.32500953  1
  H+  H10  1  0.62614590  0.65004686  0.15771945  1
  H+  H11  1  0.73982092  0.62636409  0.16886803  1
  H+  H12  1  -0.00672474  0.36885539  0.00459571  1
  H+  H13  1  0.36463829  0.88424911  0.83040191  1
  H+  H14  1  0.36679346  0.88218562  0.16200249  1
  H+  H15  1  0.47390537  0.85750078  0.84656957  1
  H+  H16  1  0.04981033  0.64537065  0.81422523  1
  H+  H17  1  0.77925817  0.88004327  0.67544854  1
  H+  H18  1  0.88797190  0.23164413  0.16050721  1
  H+  H19  1  0.63669657  0.02802016  0.17539601  1
  H+  H20  1  0.01863382  0.64133873  0.16948875  1
  H+  H21  1  0.27652297  0.12954002  0.16084824  1
  H+  H22  1  0.36636408  0.13499523  0.34265349  1
  H+  H23  1  0.49427187  0.36512257  0.33243002  1
  H+  H24  1  0.62116985  0.73192812  0.82148445  1
  H+  H25  1  0.73758323  0.61132352  0.32632729  1
  H+  H26  1  0.92152787  0.08788050  0.56771996  1
  H+  H27  1  0.13103355  0.14445764  0.16462496  1
  H+  H28  1  0.65430148  0.79164966  0.17194906  1
  H+  H29  1  0.22185496  0.81020184  0.61778088  1
  H+  H30  1  0.72260139  0.36172629  0.64579450  1
  H+  H31  1  0.33137946  0.44392362  0.34520165  1
  H+  H32  1  0.23354535  0.11448605  0.99465372  1
  H+  H33  1  0.13433355  0.35101015  0.49175489  1
  H+  H34  1  1.02938087  0.39833558  0.68126767  1
  H+  H35  1  0.08602651  0.42964228  0.74278407  1
  H+  H36  1  0.48551897  0.61072203  0.32691698  1
  H+  H37  1  0.33786744  0.92190854  0.73962301  1
  H+  H38  1  0.36572064  0.22516637  1.00687181  1
  H+  H39  1  0.69293328  0.70718426  0.37341573  1
  H+  H40  1  0.87550494  0.98840253  0.49739247  1
  H+  H41  1  0.41565151  0.82688004  0.93868124  1
  H+  H42  1  0.62916590  0.48911523  0.51503317  1
  H+  H43  1  0.88863165  0.22823534  1.01674225  1
  H+  H44  1  0.77728510  0.13707142  0.48828086  1
  H+  H45  1  0.47186119  0.09891644  0.17460653  1
  H+  H46  1  0.69869071  0.35080291  0.83680408  1
  H+  H47  1  0.38926989  0.61533107  0.99806645  1
  H+  H48  1  0.00060090  0.12260913  0.18435738  1
  H+  H49  1  0.59877896  0.13892457  0.71730248  1
  H+  H50  1  0.39086726  0.85926233  -0.00114333  1
  H+  H51  1  0.76274264  0.09176467  0.71672734  1
  H+  H52  1  0.82163785  0.37439005  0.79897140  1
  H+  H53  1  0.10940788  0.88012944  0.48753406  1
  H+  H54  1  0.86277193  0.47905936  0.65416597  1
  H+  H55  1  0.36431711  0.97377942  0.83259661  1
  H+  H56  1  0.78886908  0.40166903  0.15471912  1
  H+  H57  1  0.14147996  0.61578605  0.17819555  1
  H+  H58  1  0.77734241  0.83944104  0.99252789  1
  H+  H59  1  0.02744601  0.39043593  0.16146837  1
  H+  H60  1  0.51465098  0.37535263  0.65211292  1
  H+  H61  1  0.85187760  0.54749443  0.90431793  1
  H+  H62  1  0.11333400  0.62854028  0.66431428  1
  H+  H63  1  0.46239810  0.35113726  0.84272316  1
  H+  H64  1  0.97979297  0.86113484  0.50232270  1
  H+  H65  1  0.47027291  0.11332848  0.66093670  1
  H+  H66  1  0.37171013  0.76317679  0.66334901  1
  H+  H67  1  1.04061121  0.39088532  0.84068657  1
  H+  H68  1  0.36223108  0.46283290  0.66144763  1
  H+  H69  1  0.89654762  0.14598772  0.16584625  1
  H+  H70  1  0.12839290  0.48362667  0.00723702  1
  H+  H71  1  0.27695619  0.63740521  0.16184985  1
  H+  H72  1  0.90008566  0.78182383  0.17617534  1
  H+  H73  1  0.36871900  0.38916967  0.00721766  1
  H+  H74  1  0.85331638  0.64451989  0.82765731  1
  H+  H75  1  0.13385932  0.73523763  0.82227507  1
  H+  H76  1  0.27468914  0.63570386  0.00783982  1
  H+  H77  1  0.68148708  0.07543194  0.93173049  1
  H+  H78  1  0.63465058  0.27818766  0.66533722  1
  H+  H79  1  0.85235300  0.42775972  0.09939064  1
  H+  H80  1  0.79614948  0.91589909  0.33798510  1
  H+  H81  1  0.59538520  0.46544600  0.83233063  1
  H+  H82  1  0.59282557  0.20428235  0.18111936  1
  H+  H83  1  0.12543206  0.23031841  1.01012634  1
  H+  H84  1  0.60178161  0.40458164  0.48013024  1
  H+  H85  1  0.88392152  0.61225062  0.33073211  1
  H+  H86  1  0.59067120  0.12279750  0.89427221  1
  H+  H87  1  0.95082083  0.10140752  0.27651516  1
  H+  H88  1  0.89538707  0.53017727  0.17637135  1
  H+  H89  1  0.32416379  0.65926351  0.73276509  1
  H+  H90  1  0.09507332  0.12518062  0.47845935  1
  H+  H91  1  0.62021856  0.89906646  0.33968716  1
  H+  H92  1  -0.01893854  0.59112789  0.00826549  1
  H+  H93  1  0.38671139  0.76917121  0.51133056  1
  H+  H94  1  1.02744314  0.89250084  0.34022577  1
  H+  H95  1  0.36844460  0.97268019  0.00862187  1
  H+  H96  1  0.68289343  0.78426839  0.51620904  1
  H+  H97  1  0.61725666  0.88680924  0.49963427  1
  H+  H98  1  0.86500430  0.72667685  0.66687900  1
  H+  H99  1  0.73526708  0.11418617  0.32602551  1
  H+  H100  1  0.45429849  0.58756925  0.50786333  1
  H+  H101  1  0.37062797  0.22457446  0.35172103  1
  H+  H102  1  0.38838193  0.77732752  0.33014439  1
  H+  H103  1  0.97425499  0.36381219  0.32707031  1
  H+  H104  1  0.60766277  0.02379689  0.66114631  1
  H+  H105  1  0.63917565  0.02664437  0.50280535  1
  H+  H106  1  0.10292077  0.25594612  0.31706273  1
  H+  H107  1  0.59864311  0.67416323  0.34872336  1
  H+  H108  1  0.81988196  0.40104839  0.42932784  1
  H+  H109  1  0.23178962  0.87065418  0.33984066  1
  H+  H110  1  0.27445851  0.63485636  0.83309509  1
  H+  H111  1  0.15152310  0.61295626  0.84528317  1
  H+  H112  1  0.12966493  0.76240203  0.49808435  1
  H+  H113  1  0.23795909  0.86523493  0.18093699  1
  H+  H114  1  0.72204068  0.61596207  0.83632185  1
  H+  H115  1  0.82421787  0.46157429  0.81533787  1
  H+  H116  1  0.12846057  0.60239100  0.50575268  1
  H+  H117  1  0.23450723  0.85842925  -0.01017787  1
  H+  H118  1  0.88710351  0.11578602  0.50840797  1
  H+  H119  1  0.11609636  0.13168888  0.83082708  1
  H+  H120  1  0.39741594  0.27069842  0.65756138  1
  H+  H121  1  0.12869992  0.39464262  0.00625680  1
  H+  H122  1  0.01888441  0.62781496  0.49003481  1
  H+  H123  1  0.39204375  0.62514026  0.17257586  1
  H+  H124  1  0.98066674  0.85876786  0.65724606  1
  H+  H125  1  0.75194668  0.88072046  0.51155540  1
  H+  H126  1  0.36359202  0.88449857  0.49936553  1
  H+  H127  1  0.54457580  0.15387916  0.49248305  1
  H+  H128  1  0.89463839  0.36516438  0.17312296  1
  H+  H129  1  0.88392251  0.10258947  0.66335670  1
  H+  H130  1  0.88790949  0.36593136  0.65564109  1
  H+  H131  1  0.38461851  0.10246032  0.17304036  1
  H+  H132  1  0.36229905  0.13687595  0.67050595  1
  H+  H133  1  0.53097019  0.88958883  0.15976118  1
  H+  H134  1  0.83035259  0.67029160  0.40123502  1
  H+  H135  1  0.62466323  0.63043849  0.67255012  1
  H+  H136  1  0.78304485  0.15336441  0.66212302  1
  H+  H137  1  0.65542941  0.30483440  0.13296758  1
  H+  H138  1  0.85223126  0.72017720  0.00912945  1
  H+  H139  1  0.62753173  0.37365610  0.32575120  1
  H+  H140  1  0.86944596  0.88280692  0.67189159  1
  H+  H141  1  0.64441272  0.27127597  0.30913711  1
  H+  H142  1  0.89483568  0.28176137  0.66227816  1
  H+  H143  1  0.11472529  0.01433368  0.50572022  1
  H+  H144  1  0.22891628  0.11449371  0.65853656  1
  H+  H145  1  0.86152214  0.73117888  0.34112777  1
  H+  H146  1  0.91194054  0.36922685  0.86414694  1
  H+  H147  1  0.11210023  0.26179091  0.65154967  1
  H+  H148  1  0.11073406  0.46754696  0.49298920  1
  H+  H149  1  0.63199227  0.76277268  0.99346358  1
  H+  H150  1  0.47425922  0.10252828  0.85036035  1
  H+  H151  1  0.13728799  0.75422218  0.65529668  1
  H+  H152  1  0.22602876  0.10375825  0.83994020  1
  H+  H153  1  0.38145942  0.85766503  0.66607314  1
  H+  H154  1  0.36585750  0.15831840  0.48310815  1
  H+  H155  1  0.36020321  0.12678224  0.82757441  1
  H+  H156  1  0.63258709  0.61210071  0.83769540  1
  H+  H157  1  0.47828771  0.86533673  0.32926310  1
  H+  H158  1  0.14266702  0.02377166  0.65977300  1
  H+  H159  1  0.70314582  0.20794361  0.61993229  1
  H+  H160  1  0.88615758  0.27482499  0.32654106  1
  H+  H161  1  0.35815405  0.21456045  0.82938175  1
  H+  H162  1  0.38258062  0.77028919  0.84063621  1
  H+  H163  1  0.59077471  0.37534440  0.83671908  1
  H+  H164  1  0.67123107  0.81240292  0.32789482  1
  H+  H165  1  0.79745594  0.90977722  0.16874569  1
  H+  H166  1  0.27453270  0.89188959  0.68297303  1
  H+  H167  1  0.36150472  0.35339184  0.18325431  1
  H+  H168  1  0.92081689  0.33438520  0.23355475  1
  H+  H169  1  0.89852874  0.11461342  0.84429889  1
  H+  H170  1  0.11784614  0.89515544  0.34269778  1
  H+  H171  1  0.53749808  0.65053945  0.15488949  1
  H+  H172  1  0.23186714  0.37300731  0.17172133  1
  H+  H173  1  0.13821744  0.52543008  0.17094918  1
  H+  H174  1  0.86873692  0.63997452  1.01108898  1
  H+  H175  1  0.92851969  0.57526915  0.86249509  1
  H+  H176  1  0.23492440  0.36739403  0.99454203  1
  H+  H177  1  0.63222583  0.46126194  0.33592026  1
  H+  H178  1  0.53709934  0.40960672  0.16203269  1
  H+  H179  1  0.62583691  0.49846758  0.15761598  1
  H+  H180  1  0.88634611  0.52414336  0.33124716  1
  H+  H181  1  0.37511186  0.32845490  0.49932354  1
  H+  H182  1  0.10169339  0.92376314  0.10949995  1
  H+  H183  1  0.85891347  0.63494094  0.49168433  1
  H+  H184  1  0.12912051  0.48018495  0.83946591  1
  H+  H185  1  0.78033004  0.38576023  0.33281069  1
  H+  H186  1  0.37739785  0.60795276  0.66215073  1
  H+  H187  1  0.64320981  1.03086866  0.32958522  1
  H+  H188  1  0.51219716  0.14908649  0.33941095  1
  H+  H189  1  0.34866690  0.45372280  0.49699990  1
  H+  H190  1  0.14088088  0.35896291  0.84202637  1
  H+  H191  1  0.36359593  0.21671447  0.16095289  1
  H+  H192  1  0.11830090  0.88203995  0.67306028  1
  H+  H193  1  0.59792351  0.95602842  0.87615159  1
  H+  H194  1  0.19395500  0.66857290  0.97672664  1
  H+  H195  1  0.64650151  0.38226802  0.15824501  1
  H+  H196  1  0.97611384  0.86687043  0.84812478  1
  H+  H197  1  0.88213940  0.35329563  0.50746147  1
  H+  H198  1  0.62793228  1.00253959  0.64376621  1
  H+  H199  1  0.64233016  0.11819877  0.49265798  1
  H+  H200  1  0.97775975  0.61250383  0.65374705  1
  H+  H201  1  0.56201983  0.71592861  0.50602367  1
  H+  H202  1  0.60763877  -0.00050856  0.96839363  1
  H+  H203  1  0.37802619  0.38231041  0.35201047  1
  H+  H204  1  0.86767198  0.72934675  0.49345694  1
  H+  H205  1  0.61547583  0.63438122  0.00405449  1
  H+  H206  1  0.66854411  0.33555940  0.94127307  1
  H+  H207  1  0.04799141  0.89554858  0.01404194  1
  H+  H208  1  0.40196225  0.03587240  0.50125903  1
  H+  H209  1  0.25434523  0.35763142  0.81650673  1
  H+  H210  1  0.89279265  0.13619999  1.01115392  1
  H+  H211  1  0.77877743  0.38491866  0.00648780  1
  H+  H212  1  0.39713719  0.35974137  0.64701436  1
  H+  H213  1  0.47533383  0.36115634  0.99174899  1
  H+  H214  1  0.51196561  0.60846259  0.30076785  1
  H+  H215  1  0.90954361  0.03474176  0.18826721  1
  H+  H216  1  0.01341640  0.13459548  0.48297448  1
  H+  H217  1  0.87012563  0.46969719  0.00175231  1
  H+  H218  1  0.86808335  0.98052064  0.82854852  1
  H+  H219  1  0.39888624  0.54206383  0.85186529  1
  H+  H220  1  0.48025494  0.61653340  -0.00310215  1
  H+  H221  1  0.08551940  0.90777719  0.73253992  1
  H+  H222  1  0.86855442  0.38801165  0.33999651  1
  H+  H223  1  0.34157821  0.43677309  0.79287151  1
  H+  H224  1  0.37029632  0.47974001  0.00633736  1
  H+  H225  1  0.86700601  0.22569577  0.49495777  1
  H+  H226  1  0.61545049  0.88993212  0.00582367  1
  H+  H227  1  0.11468505  0.13122728  0.67760277  1
  H+  H228  1  0.52340516  0.88228242  0.00725015  1
  H+  H229  1  0.63503155  0.57625927  0.32504051  1
  H+  H230  1  0.12938042  0.25912148  0.48491866  1
  H+  H231  1  0.23831309  0.11944526  0.32697758  1
  H+  H232  1  0.13394263  0.52650456  0.66546324  1
  H+  H233  1  0.88259883  0.90411087  0.17195802  1
  H+  H234  1  0.38407699  0.02412983  0.65937469  1
  H+  H235  1  0.36168656  0.63991350  0.34880046  1
  H+  H236  1  0.52895562  0.64640159  0.82356603  1
  H+  H237  1  0.73517574  0.63316667  0.50974717  1
  H+  H238  1  0.73696816  0.11543538  0.80881626  1
  H+  H239  1  0.21876003  0.60537616  0.50830630  1
  H+  H240  1  0.47691894  0.11189121  -0.00275230  1
  H+  H241  1  0.09722895  0.37119910  0.33796032  1
  H+  H242  1  0.89052556  1.01831017  0.65979171  1
  H+  H243  1  0.36759440  0.64475893  0.82874285  1
  H+  H244  1  0.35173964  0.62503337  0.49888356  1
  H+  H245  1  0.11485254  0.73258603  0.34749611  1
  H+  H246  1  0.39029569  1.02075524  0.33160810  1
  H+  H247  1  0.58955490  0.92374973  0.10011348  1
  H+  H248  1  0.52546680  0.88166003  0.49987512  1
  H+  H249  1  0.90959333  0.86897576  1.00795913  1
  H+  H250  1  0.61225128  0.47673555  0.00110235  1
  H+  H251  1  0.62500246  0.25888994  0.85834418  1
  H+  H252  1  0.62484451  0.72873729  0.67013090  1
  H+  H253  1  0.50324611  0.84647756  0.68221293  1
  H+  H254  1  0.72850420  0.61474909  0.66314162  1
  H+  H255  1  0.97972660  0.65431698  0.95942221  1
  H+  H256  1  0.46752811  0.61014956  0.65992193  1
  H+  H257  1  0.88453606  0.15084862  0.34346890  1
  H+  H258  1  0.14936805  0.03142187  0.17804576  1
  H+  H259  1  0.61041367  0.22774216  0.01322205  1
  H+  H260  1  0.16843926  0.07670028  0.90040743  1
  H+  H261  1  -0.00733530  0.11813391  -0.00238342  1
  H+  H262  1  0.65042011  1.02450000  0.80446970  1
  H+  H263  1  0.89161639  0.99434636  0.34572956  1
  H+  H264  1  0.36756612  0.33758494  0.83729177  1
  H+  H265  1  0.22953995  0.86238970  0.83884057  1
  H+  H266  1  0.14777109  0.77948886  0.19001243  1
  H+  H267  1  0.11059128  0.88006786  0.82849993  1
  H+  H268  1  0.89874473  0.35975338  0.00330480  1
  H+  H269  1  0.89300403  0.86910252  0.33007504  1
  H+  H270  1  1.11260242  0.96992322  0.82766483  1
  H+  H271  1  0.61196292  0.47313072  0.65414435  1
  H+  H272  1  0.73353470  0.86404032  0.83830498  1
  H+  H273  1  0.30923090  0.27154697  0.22317871  1
  H+  H274  1  0.98486992  0.10990267  0.84292157  1
  H+  H275  1  0.64254250  0.62984870  0.51320517  1
  H+  H276  1  0.88030784  0.23260187  0.83497253  1
  H+  H277  1  0.61041361  0.12533153  0.16933509  1
  H+  H278  1  0.37448442  0.48490486  0.16030567  1
  H+  H279  1  0.86192109  0.73744910  0.82885592  1
  H+  H280  1  0.15120675  0.86545020  0.99148398  1
  H+  H281  1  0.36662148  0.88845981  0.34491025  1
  H+  H282  1  0.87019619  0.64219773  0.16466724  1
  H+  H283  1  0.14455130  0.11486953  0.99641133  1
  H+  H284  1  0.17373044  0.33352798  0.93560204  1
  H+  H285  1  0.72554105  0.60828936  -0.00763286  1
  H+  H286  1  0.39328664  0.77470768  0.17462300  1
  H+  H287  1  1.02729600  0.64342135  0.34336919  1
  H+  H288  1  0.04232122  0.14373465  0.38558921  1
  H+  H289  1  0.27446362  0.88425845  0.49495771  1
  H+  H290  1  0.58423748  0.91609063  0.40164890  1
  H+  H291  1  0.42271678  0.83477279  0.23389509  1
  H+  H292  1  0.43015712  0.60275695  0.90797162  1
  H+  H293  1  0.42696030  0.09486665  0.55857174  1
  H+  H294  1  0.17989111  0.56445278  0.26567522  1
  H+  H295  1  0.41556349  0.82909113  0.57011191  1
  H+  H296  1  0.08853345  0.42175818  0.10179517  1
  H+  H297  1  0.33570143  0.66531753  0.10153084  1
  H+  H298  1  0.14627740  0.03506962  0.32445464  1
  H+  H299  1  0.59016850  0.66651158  0.73477088  1
  H+  H300  1  0.70281196  0.30077440  0.48747628  1
  H+  H301  1  0.33468624  0.16597408  0.73129985  1
  H+  H302  1  0.13320885  0.26463976  0.84227991  1
  H+  H303  1  0.33928316  0.52040535  0.26311048  1
  H+  H304  1  0.09762298  0.17091886  0.06998512  1
  H+  H305  1  0.55495170  0.18594495  0.74660467  1
  H+  H306  1  0.05936904  0.59210473  0.08102119  1
  H+  H307  1  0.83568184  0.67231700  0.72832767  1
  H+  H308  1  0.59426019  0.18172192  0.43039271  1
  H+  H309  1  0.34004299  0.91888598  0.40621727  1
  H+  H310  1  0.17860861  0.59130347  0.91162143  1
  H+  H311  1  0.44930698  0.62180073  0.22755882  1
  H+  H312  1  0.66533513  0.08658159  0.23587347  1
  H+  H313  1  0.84590597  0.92993231  0.43667608  1
  H+  H314  1  0.92229080  0.83301600  0.59687683  1
  H+  H315  1  0.36665321  0.72204593  0.01100035  1
  H+  H316  1  0.93493855  0.32875148  0.91884985  1
  H+  H317  1  0.58325757  0.42363737  0.06264040  1
  H+  H318  1  0.31674567  0.38312388  0.70603190  1
  H+  H319  1  0.70932755  0.14170130  0.57567229  1
  H+  H320  1  0.88966847  0.61539248  0.65470947  1
  H+  H321  1  0.61636729  0.38140851  0.65111169  1
  H+  H322  1  0.12805274  0.89395896  0.17047879  1
  H+  H323  1  0.14701565  0.08134511  0.56040648  1
  H+  H324  1  0.42142196  0.33584418  0.27996458  1
  H+  H325  1  0.40947505  0.32665839  0.93509027  1
  H+  H326  1  0.27493265  0.63570068  0.34494693  1
  H+  H327  1  0.68224795  0.32851939  0.24768737  1
  H+  H328  1  0.07569695  0.40833621  0.39871904  1
  H+  H329  1  0.33646051  0.16366879  0.06581068  1
  H+  H330  1  0.66735730  0.58376401  0.93144582  1
  H+  H331  1  0.84041817  0.92017715  0.76848769  1
  H+  H332  1  0.41070835  0.07559427  0.90575438  1
  H+  H333  1  0.90996758  0.57645131  0.55850513  1
  H+  H334  1  0.54450284  0.23745470  0.37163077  1
  H+  H335  1  0.91807010  0.58565433  0.23881841  1
  H+  H336  1  0.08218993  0.66114805  0.43222708  1
  H+  H337  1  0.92959833  0.08811118  0.93950104  1
  H+  H338  1  0.81891287  0.42002866  0.71157187  1
  H+  H339  1  0.62179245  0.12833714  0.82822261  1
  H+  H340  1  0.08128085  0.91686122  0.43082021  1
  H+  H341  1  0.08543061  0.16042627  0.77077995  1
  H+  H342  1  0.17661806  0.84373107  0.27920200  1
  H+  H343  1  0.07895662  0.70592168  0.11787657  1
  H+  H344  1  0.59186780  0.67009681  0.06431014  1
  H+  H345  1  0.15224512  0.82241736  0.55599100  1
  H+  H346  1  0.15079867  0.32497712  0.26514247  1
  H+  H347  1  0.12696070  0.23235671  0.16189300  1
  H+  H348  1  0.67523960  0.82596675  0.89819912  1
  H+  H349  1  0.41435414  0.07392743  0.26866294  1
  H+  H350  1  0.26514112  0.62929361  0.67192358  1
  H+  H351  1  0.17002008  0.82823801  0.89828181  1
  H+  H352  1  0.84102741  0.67050874  0.10366086  1
  H+  H353  1  0.34336431  0.42441623  0.10102703  1
  H+  H354  1  0.67918207  0.59129508  0.22744775  1
  H+  H355  1  0.89350134  0.86662591  0.50515889  1
  H+  H356  1  0.68709480  0.86075353  0.26386309  1
  H+  H357  1  0.13469061  0.30666540  0.58838157  1
  H+  H358  1  0.16276017  0.57661070  0.59966210  1
  H+  H359  1  0.91896762  0.33083769  0.56672578  1
  H+  H360  1  0.36362711  0.96974724  0.16193144  1
  H+  H361  1  0.85805581  0.18064250  0.77203666  1
  H+  H362  1  0.65021006  0.87806081  0.17085669  1
  H+  H363  1  0.88950228  0.87183874  0.84441941  1
  H+  H364  1  0.67226923  0.82728502  0.60580782  1
  H+  H365  1  0.14076390  0.36864679  0.17018592  1
  H+  H366  1  0.89497600  0.83406697  0.93916523  1
  H+  H367  1  0.57803263  0.16441219  0.06988094  1
  H+  H368  1  0.41945008  0.30742984  0.55216104  1
  H+  H369  1  0.99088867  0.86914600  0.17944288  1
  H+  H370  1  0.33651788  0.91134885  0.06732841  1
  H+  H371  1  0.56965414  0.88718972  0.73683329  1
  H+  H372  1  0.58802171  0.68570797  0.44648530  1
  H+  H373  1  0.84480415  0.17261372  0.40045445  1
  H+  H374  1  0.33068250  0.39981364  0.42114068  1
  H+  H375  1  0.67200774  0.59603018  0.60216711  1
  H+  H376  1  0.25687596  0.36247455  0.48885310  1
  H+  H377  1  0.61870016  0.88729922  0.84498195  1
  H+  H378  1  0.32883116  0.66456970  0.44147769  1
  H+  H379  1  0.86754933  0.16991885  0.08339294  1
  H+  H380  1  0.18320508  0.09238116  0.23790275  1
  H+  H381  1  0.38623110  0.10838970  0.99599897  1
  H+  H382  1  0.09219767  0.66488731  0.72443932  1
  H+  H383  1  0.92119852  0.83596213  0.27113469  1
  O2-  O384  1  0.09809261  0.17143832  0.14776925  1
  O2-  O385  1  0.06777667  0.15737074  0.45913718  1
  O2-  O386  1  0.08546590  0.16220704  0.81700208  1
  O2-  O387  1  0.08875410  0.42318535  0.14712026  1
  O2-  O388  1  0.08161843  0.40826691  0.47563387  1
  O2-  O389  1  0.09871114  0.42008178  0.82255734  1
  O2-  O390  1  0.07927046  0.67081167  0.15158481  1
  O2-  O391  1  0.08065703  0.65823911  0.47875960  1
  O2-  O392  1  0.11024552  0.67556684  0.80342564  1
  O2-  O393  1  0.09679887  0.92280010  0.15454513  1
  O2-  O394  1  0.07679440  0.90939680  0.47635255  1
  O2-  O395  1  0.07922960  0.90894921  0.81298118  1
  O2-  O396  1  0.33741942  0.15834978  0.14369596  1
  O2-  O397  1  0.31826033  0.16716476  0.49698337  1
  O2-  O398  1  0.32897805  0.15528143  0.81131455  1
  O2-  O399  1  0.34144637  0.42450957  0.14678668  1
  O2-  O400  1  0.32268092  0.39526537  0.47836240  1
  O2-  O401  1  0.30981606  0.37444558  0.79359030  1
  O2-  O402  1  0.33793975  0.66712076  0.14745089  1
  O2-  O403  1  0.32761362  0.66212149  0.48684199  1
  O2-  O404  1  0.33247081  0.66875570  0.81260489  1
  O2-  O405  1  0.33286874  0.90874411  0.14665680  1
  O2-  O406  1  0.33610288  0.91669635  0.48328730  1
  O2-  O407  1  0.33442714  0.91451704  0.81460870  1
  O2-  O408  1  0.57587315  0.15615293  0.15349225  1
  O2-  O409  1  0.60384879  0.18033986  0.47479537  1
  O2-  O410  1  0.58971097  0.14816850  0.85476127  1
  O2-  O411  1  0.59376357  0.43624025  0.14321112  1
  O2-  O412  1  0.60644952  0.42754154  0.52092202  1
  O2-  O413  1  0.56112999  0.40464958  0.82016934  1
  O2-  O414  1  0.59763441  0.68101570  0.14050873  1
  O2-  O415  1  0.56858555  0.66918640  0.48927172  1
  O2-  O416  1  0.58718511  0.67160656  0.80466375  1
  O2-  O417  1  0.59158030  0.92153178  0.14527832  1
  O2-  O418  1  0.58525509  0.91339642  0.48299691  1
  O2-  O419  1  0.58826654  0.92059280  0.83870529  1
  O2-  O420  1  0.86808288  0.17346694  0.14318615  1
  O2-  O421  1  0.83969959  0.16636221  0.47730015  1
  O2-  O422  1  0.85050564  0.17421086  0.81657499  1
  O2-  O423  1  0.85095845  0.42976099  0.14465520  1
  O2-  O424  1  0.82137339  0.39756819  0.47552048  1
  O2-  O425  1  0.79297580  0.40733543  0.79154240  1
  O2-  O426  1  0.84178194  0.67415460  0.14900297  1
  O2-  O427  1  0.83142560  0.66883409  0.47805657  1
  O2-  O428  1  0.83012671  0.67889669  0.80978961  1
  O2-  O429  1  0.85956139  0.94160228  0.15943893  1
  O2-  O430  1  0.84461615  0.92679175  0.48211012  1
  O2-  O431  1  0.83666157  0.91926548  0.81381339  1
  O2-  O432  1  0.18289247  0.09286050  0.19034377  1
  O2-  O433  1  0.12386505  0.07085650  0.51878502  1
  O2-  O434  1  0.16525443  0.07387545  0.85508606  1
  O2-  O435  1  0.17128191  0.33852318  0.18521422  1
  O2-  O436  1  0.16408486  0.31849929  0.50253013  1
  O2-  O437  1  0.16889888  0.32577267  0.85655306  1
  O2-  O438  1  0.17231919  0.58512289  0.18835150  1
  O2-  O439  1  0.15795144  0.57169861  0.52211188  1
  O2-  O440  1  0.17844423  0.58234331  0.86415475  1
  O2-  O441  1  0.17918424  0.84116135  0.19999194  1
  O2-  O442  1  0.16019348  0.82441686  0.51160040  1
  O2-  O443  1  0.16811205  0.82804709  0.85212178  1
  O2-  O444  1  0.41097737  0.06914118  0.18963741  1
  O2-  O445  1  0.43618812  0.09649712  0.51417047  1
  O2-  O446  1  0.41225762  0.07513121  0.85970550  1
  O2-  O447  1  0.36671033  0.30811359  0.20658084  1
  O2-  O448  1  0.41311299  0.30470124  0.50738955  1
  O2-  O449  1  0.40132205  0.31516688  0.85833082  1
  O2-  O450  1  0.42565989  0.59669518  0.18791185  1
  O2-  O451  1  0.39449189  0.55850470  0.52246349  1
  O2-  O452  1  0.43094521  0.60302612  0.86144639  1
  O2-  O453  1  0.42435623  0.83562126  0.18835896  1
  O2-  O454  1  0.41940254  0.83041366  0.52474326  1
  O2-  O455  1  0.41242425  0.82971965  0.85853385  1
  O2-  O456  1  0.65898449  0.08740177  0.19040407  1
  O2-  O457  1  0.67349999  0.08930807  0.51021528  1
  O2-  O458  1  0.67806332  0.08551949  0.79100787  1
  O2-  O459  1  0.67660017  0.34852480  0.16487763  1
  O2-  O460  1  0.73224263  0.36348876  0.49523122  1
  O2-  O461  1  0.64814380  0.32162551  0.86389319  1
  O2-  O462  1  0.67766237  0.59600547  0.18231776  1
  O2-  O463  1  0.67780022  0.60767176  0.53082214  1
  O2-  O464  1  0.66316238  0.58294353  0.85369208  1
  O2-  O465  1  0.68223377  0.85064208  0.18867751  1
  O2-  O466  1  0.69144735  0.84031560  0.52827945  1
  O2-  O467  1  0.67249451  0.82930857  0.85293525  1
  O2-  O468  1  0.94265115  0.09665109  0.20393156  1
  O2-  O469  1  0.91838484  0.08563037  0.52236221  1
  O2-  O470  1  0.92406744  0.08002829  0.85891840  1
  O2-  O471  1  0.92513955  0.33534110  0.18784403  1
  O2-  O472  1  0.91700629  0.32772052  0.52126845  1
  O2-  O473  1  0.93474787  0.33133550  0.87241064  1
  O2-  O474  1  0.92170393  0.59002344  0.19293850  1
  O2-  O475  1  0.90701414  0.57552202  0.51317987  1
  O2-  O476  1  0.86687119  0.55361907  0.86104074  1
  O2-  O477  1  0.93025379  0.84026194  0.19430140  1
  O2-  O478  1  0.91902203  0.83157518  0.51937688  1
  O2-  O479  1  0.91557969  0.83910316  0.86327178  1
  O2-  O480  1  0.18086933  0.09277914  0.30620052  1
  O2-  O481  1  0.16757580  0.08365497  0.64564451  1
  O2-  O482  1  0.17207216  0.08188794  0.98066119  1
  O2-  O483  1  0.13954717  0.31820668  0.30943735  1
  O2-  O484  1  0.10789155  0.30551854  0.62748941  1
  O2-  O485  1  0.17364411  0.33698234  0.98105106  1
  O2-  O486  1  0.19517833  0.55234259  0.30649125  1
  O2-  O487  1  0.16713629  0.58582788  0.64476304  1
  O2-  O488  1  0.18161791  0.60915520  0.97867500  1
  O2-  O489  1  0.17134162  0.84189441  0.32429434  1
  O2-  O490  1  0.17635191  0.81494287  0.63845332  1
  O2-  O491  1  0.17503502  0.83162309  0.97322732  1
  O2-  O492  1  0.41885772  0.07996705  0.31378435  1
  O2-  O493  1  0.41242656  0.08376214  0.64289725  1
  O2-  O494  1  0.41625106  0.07777770  0.98106353  1
  O2-  O495  1  0.43130291  0.34177833  0.32435437  1
  O2-  O496  1  0.42983981  0.32846514  0.63708207  1
  O2-  O497  1  0.41319303  0.33056732  0.98074109  1
  O2-  O498  1  0.32410105  0.52062017  0.30570818  1
  O2-  O499  1  0.40826632  0.57862666  0.64504391  1
  O2-  O500  1  0.42056566  0.58689988  0.97999923  1
  O2-  O501  1  0.41812310  0.83631881  0.31289810  1
  O2-  O502  1  0.40695356  0.82419371  0.64898547  1
  O2-  O503  1  0.42013489  0.82743473  0.98394162  1
  O2-  O504  1  0.67557937  0.08855249  0.31118507  1
  O2-  O505  1  0.73743172  0.18130911  0.61103380  1
  O2-  O506  1  0.61989726  0.03550691  0.93045502  1
  O2-  O507  1  0.68533379  0.32946231  0.29240519  1
  O2-  O508  1  0.65942047  0.32888432  0.63875437  1
  O2-  O509  1  0.67546035  0.34014714  0.98643758  1
  O2-  O510  1  0.68068543  0.57215570  0.30441140  1
  O2-  O511  1  0.66712252  0.58739680  0.64820415  1
  O2-  O512  1  0.66540404  0.58119423  0.97706384  1
  O2-  O513  1  0.69212282  0.86917009  0.30950165  1
  O2-  O514  1  0.66532917  0.81655705  0.65072944  1
  O2-  O515  1  0.66284345  0.82367523  0.97603166  1
  O2-  O516  1  0.94838732  0.10111045  0.32344187  1
  O2-  O517  1  0.91916162  0.07932266  0.64632066  1
  O2-  O518  1  0.93138260  0.09155837  0.98471818  1
  O2-  O519  1  0.91388865  0.33513020  0.31041035  1
  O2-  O520  1  0.92324540  0.33911373  0.64465545  1
  O2-  O521  1  0.93197898  0.33129488  0.99094755  1
  O2-  O522  1  0.91493517  0.58389251  0.31448216  1
  O2-  O523  1  0.91783442  0.58441663  0.63745122  1
  O2-  O524  1  0.93981759  0.60394359  0.98291396  1
  O2-  O525  1  0.91739241  0.83260302  0.31671730  1
  O2-  O526  1  0.91999723  0.83015636  0.64258480  1
  O2-  O527  1  0.87218896  0.82048718  0.98211986  1
  O2-  O528  1  0.09727583  0.16955601  0.02431456  1
  O2-  O529  1  0.03981615  0.14630628  0.33929735  1
  O2-  O530  1  0.08365701  0.15835389  0.69700711  1
  O2-  O531  1  0.09773398  0.42421635  0.02237821  1
  O2-  O532  1  0.07330681  0.40850852  0.35311616  1
  O2-  O533  1  0.08193982  0.44448257  0.70014117  1
  O2-  O534  1  0.04095545  0.56598908  0.04069687  1
  O2-  O535  1  0.08577905  0.67152956  0.36074415  1
  O2-  O536  1  0.08267062  0.66018167  0.67970672  1
  O2-  O537  1  0.10676791  0.92730804  0.02886395  1
  O2-  O538  1  0.08719140  0.92610800  0.35579141  1
  O2-  O539  1  0.08574434  0.90908462  0.68700944  1
  O2-  O540  1  0.33541953  0.16375100  0.02026348  1
  O2-  O541  1  0.33505502  0.16261610  0.35941525  1
  O2-  O542  1  0.33624590  0.17099728  0.68605930  1
  O2-  O543  1  0.33974407  0.42042164  0.02361351  1
  O2-  O544  1  0.33491627  0.39808970  0.36883233  1
  O2-  O545  1  0.33918629  0.40035677  0.66455273  1
  O2-  O546  1  0.33554897  0.66113951  0.02551044  1
  O2-  O547  1  0.33398909  0.67215160  0.36249627  1
  O2-  O548  1  0.32641376  0.65913643  0.68738365  1
  O2-  O549  1  0.33932787  0.91126169  0.02191051  1
  O2-  O550  1  0.33777465  0.91967886  0.36065177  1
  O2-  O551  1  0.33598480  0.92181425  0.69371185  1
  O2-  O552  1  0.57594993  0.16662617  0.02502049  1
  O2-  O553  1  0.56548920  0.19989965  0.35736488  1
  O2-  O554  1  0.57221574  0.17342185  0.70763059  1
  O2-  O555  1  0.58290394  0.41682184  0.01785976  1
  O2-  O556  1  0.59800349  0.40028238  0.34723494  1
  O2-  O557  1  0.58264521  0.41131932  0.66584149  1
  O2-  O558  1  0.58571103  0.66555206  0.01884770  1
  O2-  O559  1  0.64302594  0.71513149  0.37661550  1
  O2-  O560  1  0.59288357  0.66445944  0.68763420  1
  O2-  O561  1  0.58533065  0.92066453  0.01880083  1
  O2-  O562  1  0.58120408  0.91828937  0.35659201  1
  O2-  O563  1  0.55435610  0.84874162  0.70207343  1
  O2-  O564  1  0.86256875  0.16804437  0.03237678  1
  O2-  O565  1  0.84686233  0.17404787  0.35482509  1
  O2-  O566  1  0.81204154  0.13657049  0.69449339  1
  O2-  O567  1  0.84087220  0.41225403  0.01964519  1
  O2-  O568  1  0.83588872  0.41659909  0.35515788  1
  O2-  O569  1  0.82987429  0.41744204  0.66786602  1
  O2-  O570  1  0.82976843  0.66078287  0.02505912  1
  O2-  O571  1  0.82769764  0.66965437  0.35554420  1
  O2-  O572  1  0.83293239  0.66624389  0.68325843  1
  O2-  O573  1  0.74394798  0.86416351  0.01036963  1
  O2-  O574  1  0.85257335  0.93323884  0.35766034  1
  O2-  O575  1  0.83978084  0.91296099  0.68884614  1
