# generated using pymatgen
data_H2O
_symmetry_space_group_name_H-M   'P 1'
_cell_length_a   17.99115230
_cell_length_b   17.99300301
_cell_length_c   22.00391146
_cell_angle_alpha   89.97369903
_cell_angle_beta   90.01627200
_cell_angle_gamma   119.98428106
_symmetry_Int_Tables_number   1
_chemical_formula_structural   H2O
_chemical_formula_sum   'H384 O192'
_cell_volume   6169.66913792
_cell_formula_units_Z   192
loop_
 _symmetry_equiv_pos_site_id
 _symmetry_equiv_pos_as_xyz
  1  'x, y, z'
loop_
 _atom_type_symbol
 _atom_type_oxidation_number
  H+  1.0
  O2-  -2.0
loop_
 _atom_site_type_symbol
 _atom_site_label
 _atom_site_symmetry_multiplicity
 _atom_site_fract_x
 _atom_site_fract_y
 _atom_site_fract_z
 _atom_site_occupancy
  H+  H0  1  0.67196649  0.62588554  0.99667549  1
  H+  H1  1  0.26621681  0.30684788  0.36590919  1
  H+  H2  1  0.11671169  -0.01637171  0.83041535  1
  H+  H3  1  0.10773725  0.89710588  0.00039991  1
  H+  H4  1  0.64094079  0.60588232  0.50621059  1
  H+  H5  1  0.10973363  0.62956722  0.33721481  1
  H+  H6  1  0.89824775  0.87084258  0.85416506  1
  H+  H7  1  0.10961752  0.64113306  0.82263076  1
  H+  H8  1  0.31914456  0.68268588  0.17408160  1
  H+  H9  1  0.26979394  0.14191814  0.48856709  1
  H+  H10  1  0.35785951  0.49817671  0.16046391  1
  H+  H11  1  0.87043328  0.47300767  0.67254665  1
  H+  H12  1  0.85197957  0.97506252  0.70635969  1
  H+  H13  1  0.77665866  0.87313986  0.51172098  1
  H+  H14  1  0.12970670  0.08453018  0.32557714  1
  H+  H15  1  0.73899179  0.12021513  0.32368525  1
  H+  H16  1  0.13597623  0.51933735  0.33078139  1
  H+  H17  1  0.39048842  0.02141729  0.65807825  1
  H+  H18  1  0.11046623  0.89285206  0.48995854  1
  H+  H19  1  0.86767953  0.33732479  0.17372806  1
  H+  H20  1  0.35860139  0.62870266  0.66756464  1
  H+  H21  1  0.78860225  0.38416541  0.48882214  1
  H+  H22  1  0.54919232  0.90921501  0.18149143  1
  H+  H23  1  0.88801032  0.61318311  0.32002184  1
  H+  H24  1  0.91313572  1.00532253  0.84392912  1
  H+  H25  1  0.34327163  0.87194525  0.33518845  1
  H+  H26  1  0.60890866  -0.01434002  0.33431113  1
  H+  H27  1  0.07869988  0.16420486  0.35943453  1
  H+  H28  1  0.35700952  0.88138147  0.68093054  1
  H+  H29  1  0.34443848  0.11336318  0.67623042  1
  H+  H30  1  0.61538012  0.95511900  0.82622588  1
  H+  H31  1  0.66198094  0.80451375  0.90390852  1
  H+  H32  1  0.53072018  0.14367265  0.82791307  1
  H+  H33  1  0.25026239  0.86639181  0.33415762  1
  H+  H34  1  0.13097891  0.40002452  0.83291267  1
  H+  H35  1  0.58184881  0.40430425  0.42032768  1
  H+  H36  1  0.48759476  0.61700587  0.51759726  1
  H+  H37  1  0.91248316  0.72466369  -0.00897975  1
  H+  H38  1  0.36798425  0.39360707  -0.01278960  1
  H+  H39  1  0.46694815  0.85644331  0.97385159  1
  H+  H40  1  0.01031105  0.66927916  0.01468863  1
  H+  H41  1  0.10480096  0.37911360  0.01764798  1
  H+  H42  1  0.95263076  0.08003888  0.32361662  1
  H+  H43  1  0.47343638  0.36347485  0.98844633  1
  H+  H44  1  -0.13132660  0.59000240  -0.05457801  1
  H+  H45  1  0.51870603  0.79725061  0.45889877  1
  H+  H46  1  0.42197883  0.23291946  0.77741422  1
  H+  H47  1  0.43586838  0.57775298  0.19173798  1
  H+  H48  1  0.61143067  0.96640518  -0.02010319  1
  H+  H49  1  0.38653049  0.55223884  0.29712440  1
  H+  H50  1  0.27891764  0.64696484  0.34563734  1
  H+  H51  1  0.77846599  0.63849622  0.33257935  1
  H+  H52  1  0.10737100  0.71727420  0.33149837  1
  H+  H53  1  0.61157971  0.38331520  0.49484605  1
  H+  H54  1  0.98372779  0.11787532  0.17283271  1
  H+  H55  1  0.10509772  0.13896887  0.67000590  1
  H+  H56  1  0.78424440  0.14027070  1.00675604  1
  H+  H57  1  0.65516958  0.13155931  0.32731450  1
  H+  H58  1  0.86146555  0.47297791  0.83263065  1
  H+  H59  1  0.38603708  0.11884566  0.50558210  1
  H+  H60  1  0.48568248  0.63895479  0.84609633  1
  H+  H61  1  0.63292667  0.67750509  0.83235820  1
  H+  H62  1  0.52340513  0.13941391  0.16412763  1
  H+  H63  1  0.21749759  0.86862777  0.50506144  1
  H+  H64  1  0.88832770  0.76696931  0.49919550  1
  H+  H65  1  0.13402811  0.51504414  0.67194196  1
  H+  H66  1  0.86999095  0.48245226  0.33432183  1
  H+  H67  1  0.36710697  0.26184914  0.83595124  1
  H+  H68  1  0.12581084  0.48593632  0.82797803  1
  H+  H69  1  0.23916752  0.62730638  0.82201458  1
  H+  H70  1  0.63582444  0.36180859  0.99310947  1
  H+  H71  1  0.82583944  0.07959380  0.49049709  1
  H+  H72  1  0.88026278  0.23422490  0.51209873  1
  H+  H73  1  0.39126715  0.27356192  0.50424671  1
  H+  H74  1  0.61349850  0.97778817  0.67339291  1
  H+  H75  1  0.10416370  0.14114527  0.01102995  1
  H+  H76  1  0.63814628  0.85231491  0.95924793  1
  H+  H77  1  0.87236731  0.60103956  0.84764717  1
  H+  H78  1  0.73088632  0.11961879  0.66522813  1
  H+  H79  1  0.21979533  0.12001382  0.99303465  1
  H+  H80  1  0.72420313  0.61655228  0.66863284  1
  H+  H81  1  0.89884338  0.36917442  0.67057953  1
  H+  H82  1  0.12518879  0.35646768  0.17435113  1
  H+  H83  1  0.77859939  0.38596486  0.67913757  1
  H+  H84  1  0.77669561  0.63297873  0.48792842  1
  H+  H85  1  0.86276795  0.86529418  0.00896440  1
  H+  H86  1  0.37697534  0.77155747  0.98619797  1
  H+  H87  1  0.86583293  0.63391035  0.48599055  1
  H+  H88  1  0.66943367  0.62365652  0.16603860  1
  H+  H89  1  1.01973480  0.12925813  0.82232954  1
  H+  H90  1  0.10692997  -0.00340671  0.14875316  1
  H+  H91  1  0.60739199  0.62759361  0.33998141  1
  H+  H92  1  0.08854878  0.26144223  0.31975043  1
  H+  H93  1  0.36704803  0.14373668  0.16034648  1
  H+  H94  1  0.89465140  0.08978264  -0.00480956  1
  H+  H95  1  0.36823764  0.48369981  0.66601456  1
  H+  H96  1  0.97918709  0.61542680  0.50000742  1
  H+  H97  1  0.47248859  0.61055524  0.66751606  1
  H+  H98  1  0.85821696  0.90667101  0.09845741  1
  H+  H99  1  0.63621514  0.77137363  0.66253079  1
  H+  H100  1  0.65595105  0.52836695  0.16614220  1
  H+  H101  1  0.64333196  0.52301456  0.32217919  1
  H+  H102  1  0.55688268  0.17364108  0.34139709  1
  H+  H103  1  0.63840546  0.86088812  0.65924902  1
  H+  H104  1  0.88601034  0.59290082  0.16495011  1
  H+  H105  1  0.42194898  0.59072191  0.60328156  1
  H+  H106  1  0.14256811  0.27384574  0.52348712  1
  H+  H107  1  0.21266378  0.86535816  0.84966110  1
  H+  H108  1  0.40058931  0.83425605  0.61082068  1
  H+  H109  1  0.83948872  0.67035875  0.39060811  1
  H+  H110  1  0.40174049  0.54865817  0.85201957  1
  H+  H111  1  0.64689835  0.83272448  0.50383298  1
  H+  H112  1  0.85704844  0.37577695  0.00724897  1
  H+  H113  1  0.67893628  0.88009188  0.18517060  1
  H+  H114  1  0.42257312  0.81208280  0.16969657  1
  H+  H115  1  0.47744863  0.86061758  0.82944532  1
  H+  H116  1  0.28921993  0.35183900  0.86489810  1
  H+  H117  1  0.10767836  -0.01879992  0.48009404  1
  H+  H118  1  0.39207836  0.34588440  0.33183116  1
  H+  H119  1  0.57454363  0.66920257  0.14806756  1
  H+  H120  1  0.90845280  0.32120450  0.27039697  1
  H+  H121  1  0.92256070  0.24133175  0.50033404  1
  H+  H122  1  0.28242263  0.38095645  0.50129851  1
  H+  H123  1  0.35840256  0.22763091  0.00517433  1
  H+  H124  1  0.41559758  0.37864842  0.19180185  1
  H+  H125  1  0.76550478  0.87551279  0.17756721  1
  H+  H126  1  0.63665892  0.27255554  0.66098422  1
  H+  H127  1  0.83603412  0.17007095  0.73263007  1
  H+  H128  1  -0.02257455  0.85840689  0.50056658  1
  H+  H129  1  0.76556552  0.63243253  0.83856476  1
  H+  H130  1  0.96856456  0.10044572  0.51930614  1
  H+  H131  1  0.86950089  0.23302357  0.67430849  1
  H+  H132  1  0.87054462  0.97255076  0.51513829  1
  H+  H133  1  0.85419286  0.87978162  0.33822022  1
  H+  H134  1  0.13954876  0.00363524  0.32152274  1
  H+  H135  1  0.48381356  0.37934294  0.65545946  1
  H+  H136  1  0.14004287  0.61613490  0.66853484  1
  H+  H137  1  0.85221960  0.72228287  0.68008625  1
  H+  H138  1  0.22614040  0.86453802  0.98690639  1
  H+  H139  1  0.11797794  0.72513921  0.66957391  1
  H+  H140  1  0.11052998  0.58224745  0.17156356  1
  H+  H141  1  0.16858331  0.09583214  0.43614392  1
  H+  H142  1  0.41317632  0.62880281  0.01440898  1
  H+  H143  1  0.98427439  0.36088276  0.83932037  1
  H+  H144  1  0.31889451  0.14567666  0.73605439  1
  H+  H145  1  0.39481724  0.04995181  0.83725604  1
  H+  H146  1  0.35380259  0.99170223  0.32249662  1
  H+  H147  1  0.66289470  0.75402393  0.15614594  1
  H+  H148  1  0.33220158  0.36838940  0.11412162  1
  H+  H149  1  0.62067257  0.48380445  0.66929148  1
  H+  H150  1  0.85823189  0.45252091  0.15829326  1
  H+  H151  1  0.27705120  0.38563451  0.67009680  1
  H+  H152  1  0.86608275  0.21214122  0.82839499  1
  H+  H153  1  0.09725864  0.90573958  0.15026246  1
  H+  H154  1  0.65689070  0.29397699  0.32654316  1
  H+  H155  1  0.46687733  0.87279885  0.32387131  1
  H+  H156  1  0.66203034  0.06397933  1.04403935  1
  H+  H157  1  0.92246298  0.39871497  0.51465167  1
  H+  H158  1  0.19711863  0.57809178  0.16937353  1
  H+  H159  1  0.13743806  0.40052396  0.49688132  1
  H+  H160  1  0.07467932  0.90551556  0.39285646  1
  H+  H161  1  0.11912920  0.13016313  0.48826595  1
  H+  H162  1  0.39278389  0.76001364  0.49206050  1
  H+  H163  1  0.87506192  0.12938026  0.15199918  1
  H+  H164  1  0.57666929  0.54364398  0.86631767  1
  H+  H165  1  0.74504069  0.59849268  0.98341748  1
  H+  H166  1  0.09723665  0.72228481  0.82570990  1
  H+  H167  1  0.35599307  0.98459773  0.48611030  1
  H+  H168  1  0.64994625  0.26267004  0.82795994  1
  H+  H169  1  0.75409614  0.36278094  0.82783927  1
  H+  H170  1  0.14709761  0.36752139  0.67113456  1
  H+  H171  1  0.61153090  0.63473621  0.67586992  1
  H+  H172  1  0.66874964  0.81525694  0.27449043  1
  H+  H173  1  0.88133827  0.07478246  0.83508039  1
  H+  H174  1  0.39725682  0.26056248  0.32976957  1
  H+  H175  1  0.22991081  0.12060363  0.83863899  1
  H+  H176  1  0.61444098  0.22905582  0.16125006  1
  H+  H177  1  0.09072585  0.68756669  0.17225771  1
  H+  H178  1  0.58807726  0.67374601  0.73374173  1
  H+  H179  1  0.62401385  0.15399956  0.49570348  1
  H+  H180  1  0.35898987  -0.01858459  0.99335730  1
  H+  H181  1  0.88566321  0.77395887  0.31261416  1
  H+  H182  1  0.86284044  0.22016332  0.34400834  1
  H+  H183  1  0.62329241  0.38677837  0.34265000  1
  H+  H184  1  0.31942685  0.91587940  0.43024938  1
  H+  H185  1  -0.04280008  0.33797084  0.17783272  1
  H+  H186  1  0.51362461  0.13230432  1.00441860  1
  H+  H187  1  -0.01673551  0.59787513  0.65147371  1
  H+  H188  1  0.45771838  0.89388995  0.52762038  1
  H+  H189  1  0.41061346  0.07799392  0.23087405  1
  H+  H190  1  -0.02773819  0.85001635  0.66211683  1
  H+  H191  1  0.55236577  0.65269729  0.01364203  1
  H+  H192  1  0.38955820  0.03265172  0.16606135  1
  H+  H193  1  0.21146236  0.09849073  0.66284528  1
  H+  H194  1  0.52684683  0.37665032  0.34425256  1
  H+  H195  1  0.65677554  0.35987332  0.83109619  1
  H+  H196  1  0.88094102  0.11149908  0.66455136  1
  H+  H197  1  0.86283515  0.21732034  0.15882477  1
  H+  H198  1  0.79803924  0.63384657  0.14752088  1
  H+  H199  1  0.67821398  0.35326114  0.57654518  1
  H+  H200  1  0.62151774  0.24118364  0.49623515  1
  H+  H201  1  0.84150356  0.96004853  0.33590300  1
  H+  H202  1  0.07946459  0.16768301  0.07414555  1
  H+  H203  1  0.64514053  0.76233382  0.97884857  1
  H+  H204  1  0.85952734  0.12904550  0.33457739  1
  H+  H205  1  0.52533478  0.13602341  0.67296526  1
  H+  H206  1  0.77072785  0.38038470  0.00931810  1
  H+  H207  1  0.37993669  0.76869920  0.66522272  1
  H+  H208  1  0.97445414  0.35721316  0.99478348  1
  H+  H209  1  0.71294764  0.09308336  0.50196305  1
  H+  H210  1  0.57338882  0.16260756  1.06424123  1
  H+  H211  1  0.58222516  0.89621442  0.46751702  1
  H+  H212  1  0.10602830  0.97178017  0.67316343  1
  H+  H213  1  0.13118163  0.26701344  0.33080417  1
  H+  H214  1  0.63162542  0.12730985  0.17667166  1
  H+  H215  1  0.87170558  0.23173466  0.00476635  1
  H+  H216  1  0.11741066  0.14172907  0.16845634  1
  H+  H217  1  0.90653960  0.07020115  0.57847031  1
  H+  H218  1  0.27022711  0.63643161  1.00447180  1
  H+  H219  1  0.97638372  0.61062249  0.32189000  1
  H+  H220  1  0.86374043  0.38886919  0.33465130  1
  H+  H221  1  0.27338552  0.12772142  0.33764535  1
  H+  H222  1  -0.02939054  0.85279339  -0.02606808  1
  H+  H223  1  0.23191759  0.12059389  0.17198640  1
  H+  H224  1  0.38377043  0.77705651  0.32119328  1
  H+  H225  1  0.84189568  0.42050485  0.76733320  1
  H+  H226  1  0.47598966  0.12094301  0.50263822  1
  H+  H227  1  0.08356521  0.66618924  0.72989209  1
  H+  H228  1  0.33783036  0.93095843  0.89117132  1
  H+  H229  1  0.40732746  0.36605651  0.83506028  1
  H+  H230  1  0.14002995  0.49247171  0.49160736  1
  H+  H231  1  0.72977341  0.43714212  0.53817845  1
  H+  H232  1  0.85571860  0.95088530  0.01081585  1
  H+  H233  1  0.36481348  0.87452454  0.51230168  1
  H+  H234  1  0.36967881  0.23319494  0.16155281  1
  H+  H235  1  0.20962110  0.35276413  0.00148997  1
  H+  H236  1  0.85553633  0.71131771  0.85923278  1
  H+  H237  1  0.08558207  0.44963527  0.16890722  1
  H+  H238  1  0.64082275  0.51820545  0.50764324  1
  H+  H239  1  0.33206644  0.40093794  0.43820081  1
  H+  H240  1  0.11555443  0.23057002  0.17044601  1
  H+  H241  1  0.37970776  0.11527074  -0.00885605  1
  H+  H242  1  0.12183470  0.84986136  0.31937571  1
  H+  H243  1  0.63687117  0.47901817  0.82936677  1
  H+  H244  1  0.14013195  0.27415303  0.66924106  1
  H+  H245  1  0.29177131  0.39319573  0.33204227  1
  H+  H246  1  0.77480896  0.12701409  0.82486969  1
  H+  H247  1  0.14378608  0.81570819  0.14697010  1
  H+  H248  1  0.01735577  0.87995622  0.33107095  1
  H+  H249  1  0.61274875  0.47486102  0.00405345  1
  H+  H250  1  0.89407795  0.52387243  0.49636057  1
  H+  H251  1  0.41825613  0.64569461  0.51569601  1
  H+  H252  1  0.61449583  0.03744584  0.51996168  1
  H+  H253  1  0.62211914  0.82407209  0.82006545  1
  H+  H254  1  0.74042707  0.38465866  0.32330706  1
  H+  H255  1  0.20776485  0.44555244  0.31108300  1
  H+  H256  1  1.01294732  0.40282935  0.51850466  1
  H+  H257  1  0.54056391  0.39175185  0.16151784  1
  H+  H258  1  0.37757791  0.39120174  0.65987760  1
  H+  H259  1  0.44733059  0.06533743  0.32802152  1
  H+  H260  1  0.73007486  0.35452516  0.16740556  1
  H+  H261  1  0.64780870  1.04136757  0.18184662  1
  H+  H262  1  0.96153729  0.60331514  0.84983942  1
  H+  H263  1  0.03075341  0.39543799  0.67868102  1
  H+  H264  1  0.13044108  0.77399416  0.99396685  1
  H+  H265  1  0.97022321  0.35923194  0.32917287  1
  H+  H266  1  0.11961863  0.26273023  0.00704467  1
  H+  H267  1  0.60809180  0.71643052  0.34350892  1
  H+  H268  1  0.35799933  0.12158289  0.33960713  1
  H+  H269  1  0.63398312  0.10106249  0.83826607  1
  H+  H270  1  0.08591055  0.35692645  0.35179476  1
  H+  H271  1  0.51050956  0.37260264  0.48986223  1
  H+  H272  1  0.46996321  0.60886198  0.33860821  1
  H+  H273  1  0.39214943  0.36497116  0.50145702  1
  H+  H274  1  0.71808785  0.84596870  0.33581004  1
  H+  H275  1  0.40428567  0.14622008  0.83383179  1
  H+  H276  1  0.21500483  0.36404131  0.15626446  1
  H+  H277  1  0.10334291  0.46819286  0.02392711  1
  H+  H278  1  0.36987028  0.64532359  0.82138256  1
  H+  H279  1  0.11455237  0.61252339  1.00129627  1
  H+  H280  1  0.55570241  0.38813814  0.82873639  1
  H+  H281  1  0.21938225  0.86128415  0.65879452  1
  H+  H282  1  0.36761840  0.64635616  0.34511447  1
  H+  H283  1  0.52319014  0.88893271  0.67376017  1
  H+  H284  1  0.41413167  0.54258511  0.00597482  1
  H+  H285  1  0.76998368  0.88530149  0.70400623  1
  H+  H286  1  -0.03042793  0.11180215  0.66489339  1
  H+  H287  1  0.14102970  0.61750711  0.50385828  1
  H+  H288  1  0.33158322  0.66104463  0.72766681  1
  H+  H289  1  0.87511553  0.90046887  0.78980515  1
  H+  H290  1  0.09284540  0.41739122  0.40672056  1
  H+  H291  1  0.16024335  0.33445966  0.91377823  1
  H+  H292  1  0.86695924  0.66045312  0.09325208  1
  H+  H293  1  -0.03762907  0.89980031  0.15562921  1
  H+  H294  1  0.58995120  0.89857419  0.36643996  1
  H+  H295  1  0.08413843  0.66882188  0.43105659  1
  H+  H296  1  0.90032419  0.02429630  0.16700237  1
  H+  H297  1  0.62316798  0.10570337  1.00257377  1
  H+  H298  1  0.94074184  0.35789432  0.61011105  1
  H+  H299  1  0.32411409  0.66680515  0.06435884  1
  H+  H300  1  0.21502414  0.39665598  0.25272944  1
  H+  H301  1  0.90815895  0.84244501  0.25795264  1
  H+  H302  1  0.67301689  0.33811410  0.22788405  1
  H+  H303  1  0.04298219  0.09108794  0.40773829  1
  H+  H304  1  0.07109132  0.67199429  0.06757100  1
  H+  H305  1  0.67364468  0.10429308  0.24381656  1
  H+  H306  1  0.41297683  0.82689388  0.88668423  1
  H+  H307  1  0.31346259  0.42378050  -0.05192737  1
  H+  H308  1  0.66788052  0.07548001  0.89635451  1
  H+  H309  1  0.63844614  0.36368694  0.66255943  1
  H+  H310  1  0.82720311  0.39468300  0.09694726  1
  H+  H311  1  0.00147267  0.60470659  0.15831664  1
  H+  H312  1  0.89476980  0.35843077  0.83746229  1
  H+  H313  1  0.35998256  0.89032010  -0.00761655  1
  H+  H314  1  0.02342234  0.90270861  0.82911866  1
  H+  H315  1  0.63163464  0.69975266  0.05885027  1
  H+  H316  1  0.33004580  0.16930928  0.06477653  1
  H+  H317  1  0.12178051  0.86953986  0.84781771  1
  H+  H318  1  0.89348238  0.04779128  0.93172427  1
  H+  H319  1  0.91118343  0.56446303  0.22809845  1
  H+  H320  1  0.17013687  0.09447395  0.89764943  1
  H+  H321  1  0.92255562  0.56731141  0.59313505  1
  H+  H322  1  0.09328184  0.42598388  0.73840214  1
  H+  H323  1  0.80164401  0.11204474  0.42992410  1
  H+  H324  1  0.87376022  0.87649752  0.50759323  1
  H+  H325  1  0.63589616  0.27431269  0.99197015  1
  H+  H326  1  0.05965379  0.39257544  0.10860392  1
  H+  H327  1  0.58103987  0.41520991  0.06232777  1
  H+  H328  1  0.62642603  0.71224875  0.49752733  1
  H+  H329  1  0.36815524  0.73330667  0.81339392  1
  H+  H330  1  0.67539903  0.82179323  0.57259465  1
  H+  H331  1  0.07490303  0.19390189  0.45920974  1
  H+  H332  1  0.42563963  0.85186406  0.23573895  1
  H+  H333  1  0.16688927  0.58623349  0.56287630  1
  H+  H334  1  0.15752290  0.83475687  0.56414500  1
  H+  H335  1  0.61620006  0.13854505  0.67450090  1
  H+  H336  1  0.60792443  0.19057324  0.40328788  1
  H+  H337  1  0.84486692  0.16719691  0.08787440  1
  H+  H338  1  0.62701352  0.38979280  0.15420091  1
  H+  H339  1  0.58564500  0.16246878  0.76592556  1
  H+  H340  1  0.08365720  0.91754691  0.73460555  1
  H+  H341  1  0.12938513  0.03341076  0.98657426  1
  H+  H342  1  0.11116092  0.72984817  0.48996969  1
  H+  H343  1  0.33907805  0.92650969  0.09111420  1
  H+  H344  1  0.41640363  0.09641754  0.92959149  1
  H+  H345  1  0.67556007  0.58122986  0.26203358  1
  H+  H346  1  0.12962624  0.85873562  0.66155159  1
  H+  H347  1  0.33378296  0.60502655  0.15986054  1
  H+  H348  1  0.15511797  0.83311951  0.91943375  1
  H+  H349  1  0.84126258  0.41596015  0.42642041  1
  H+  H350  1  0.58117600  0.88894928  0.02394358  1
  H+  H351  1  0.17749505  0.34009145  0.57771521  1
  H+  H352  1  0.23402740  0.61112590  0.66616221  1
  H+  H353  1  0.19418061  0.61461621  0.88438581  1
  H+  H354  1  0.35729358  0.88583641  0.83889762  1
  H+  H355  1  0.67225533  0.09331350  0.60583927  1
  H+  H356  1  0.31658493  0.42324504  0.06709427  1
  H+  H357  1  0.32583823  0.92162163  0.73289726  1
  H+  H358  1  0.67025964  0.58539586  0.60497800  1
  H+  H359  1  0.41950305  0.08306633  0.60000053  1
  H+  H360  1  0.07669364  0.16719013  0.73114978  1
  H+  H361  1  0.43544920  0.33040230  0.24245928  1
  H+  H362  1  0.90663216  0.07406593  0.26011094  1
  H+  H363  1  0.11115799  0.13858594  0.81782578  1
  H+  H364  1  0.65772554  0.57694074  0.90941069  1
  H+  H365  1  0.11517397  0.54985738  0.95242188  1
  H+  H366  1  0.91779938  0.81726806  0.60179114  1
  H+  H367  1  0.15635361  0.83056950  0.25774438  1
  H+  H368  1  0.61508368  0.92973727  0.12832699  1
  H+  H369  1  0.17149108  0.07984487  0.23087801  1
  H+  H370  1  0.42585146  0.34784571  0.59473139  1
  H+  H371  1  0.58646174  0.65485808  0.43710054  1
  H+  H372  1  0.33586154  0.16713284  0.43459303  1
  H+  H373  1  0.37939455  0.70707953  0.43046455  1
  H+  H374  1  0.92005339  0.32743789  0.93211913  1
  H+  H375  1  0.40419840  0.32670500  0.93201731  1
  H+  H376  1  0.59334095  0.42225296  0.72725312  1
  H+  H377  1  0.58454754  0.90541216  0.76353050  1
  H+  H378  1  0.07060048  0.92801055  0.05416126  1
  H+  H379  1  0.37229979  0.90442582  0.15276373  1
  H+  H380  1  0.15697625  0.07863398  0.60142345  1
  H+  H381  1  0.82036316  0.66950041  0.74232014  1
  H+  H382  1  0.23431057  0.89097465  0.16339438  1
  H+  H383  1  0.15821860  0.57051769  0.26874528  1
  O2-  O384  1  0.08440948  0.17021563  0.15511007  1
  O2-  O385  1  0.07441934  0.16170503  0.49489192  1
  O2-  O386  1  0.07684357  0.16342203  0.80243731  1
  O2-  O387  1  0.05748284  0.38852479  0.15429767  1
  O2-  O388  1  0.11007258  0.43069449  0.47719800  1
  O2-  O389  1  0.09702378  0.42499994  0.81501058  1
  O2-  O390  1  0.06508857  0.64001877  0.14348906  1
  O2-  O391  1  0.08397404  0.66886447  0.47637453  1
  O2-  O392  1  0.07141801  0.66345003  0.80960855  1
  O2-  O393  1  0.07074164  0.93698580  0.13216778  1
  O2-  O394  1  0.07759963  0.91804053  0.47048850  1
  O2-  O395  1  0.08382293  0.92083480  0.81924499  1
  O2-  O396  1  0.33656139  0.17388561  0.14540779  1
  O2-  O397  1  0.33359357  0.16992280  0.47977177  1
  O2-  O398  1  0.37439338  0.19771234  0.80477913  1
  O2-  O399  1  0.31240299  0.40985043  0.11150028  1
  O2-  O400  1  0.34040465  0.40514223  0.48265641  1
  O2-  O401  1  0.27341726  0.39637030  0.87579544  1
  O2-  O402  1  0.30417564  0.63688466  0.14463958  1
  O2-  O403  1  0.41291229  0.72619942  0.46907099  1
  O2-  O404  1  0.33810284  0.67129666  0.80056766  1
  O2-  O405  1  0.33932562  0.93064458  0.13621570  1
  O2-  O406  1  0.32155671  0.92229999  0.47539269  1
  O2-  O407  1  0.32436704  0.91624165  0.84817452  1
  O2-  O408  1  0.58389251  0.16641223  0.14833899  1
  O2-  O409  1  0.59431412  0.18419593  0.47762924  1
  O2-  O410  1  0.59067219  0.16511750  0.81167552  1
  O2-  O411  1  0.59713341  0.42158248  0.14101411  1
  O2-  O412  1  0.57557191  0.40301732  0.47230844  1
  O2-  O413  1  0.61343002  0.42028288  0.81169392  1
  O2-  O414  1  0.63424222  0.69562995  0.13523062  1
  O2-  O415  1  0.59026450  0.65226080  0.48258155  1
  O2-  O416  1  0.59822872  0.70280563  0.81742136  1
  O2-  O417  1  0.61257705  0.93896502  0.17175219  1
  O2-  O418  1  0.58087267  0.84338922  0.45606041  1
  O2-  O419  1  0.58203977  0.89642589  0.80893053  1
  O2-  O420  1  0.84305575  0.15999309  0.13627689  1
  O2-  O421  1  0.77770564  0.07823779  0.46758520  1
  O2-  O422  1  0.83442683  0.15461197  0.80934315  1
  O2-  O423  1  0.82623440  0.39150826  0.14418076  1
  O2-  O424  1  0.84668911  0.41680796  0.47187072  1
  O2-  O425  1  0.83793127  0.41393070  0.81360616  1
  O2-  O426  1  0.85912683  0.65523388  0.13763536  1
  O2-  O427  1  0.83580791  0.66453601  0.47044995  1
  O2-  O428  1  0.82702444  0.65947205  0.83081682  1
  O2-  O429  1  0.86397218  0.91995161  0.14689098  1
  O2-  O430  1  0.84086911  0.90945199  0.49918536  1
  O2-  O431  1  0.91769224  0.91804135  0.82327470  1
  O2-  O432  1  0.17089977  0.08929066  0.18617232  1
  O2-  O433  1  0.16129887  0.09291120  0.48016847  1
  O2-  O434  1  0.17035838  0.08711649  0.85229376  1
  O2-  O435  1  0.16874933  0.33958921  0.18705473  1
  O2-  O436  1  0.17746326  0.33629233  0.53235971  1
  O2-  O437  1  0.17914972  0.34949169  0.87019277  1
  O2-  O438  1  0.13986381  0.55236922  0.18937425  1
  O2-  O439  1  0.17389471  0.59002101  0.51867835  1
  O2-  O440  1  0.17994781  0.60097678  0.84152200  1
  O2-  O441  1  0.17258785  0.86263922  0.17591902  1
  O2-  O442  1  0.15659297  0.83619790  0.51872335  1
  O2-  O443  1  0.15127421  0.83575834  0.86388382  1
  O2-  O444  1  0.41915627  0.08999635  0.18644057  1
  O2-  O445  1  0.41636676  0.08688817  0.51753796  1
  O2-  O446  1  0.42964511  0.10817495  0.85351434  1
  O2-  O447  1  0.43533653  0.33751321  0.19682358  1
  O2-  O448  1  0.42744588  0.33590335  0.51538690  1
  O2-  O449  1  0.36716360  0.31632014  0.85884392  1
  O2-  O450  1  0.37374368  0.54815327  0.18758085  1
  O2-  O451  1  0.43233603  0.60519025  0.53597446  1
  O2-  O452  1  0.42522329  0.60975579  0.85963306  1
  O2-  O453  1  0.44168915  0.86674027  0.19026416  1
  O2-  O454  1  0.39791516  0.85011731  0.53366268  1
  O2-  O455  1  0.41516472  0.83335823  0.84155718  1
  O2-  O456  1  0.66902786  0.10273937  0.19485487  1
  O2-  O457  1  0.66298341  0.09539929  0.52436692  1
  O2-  O458  1  0.66263413  0.06860541  0.85231630  1
  O2-  O459  1  0.66862133  0.32943680  0.18312292  1
  O2-  O460  1  0.68880298  0.37593013  0.53256201  1
  O2-  O461  1  0.68598419  0.32612934  0.84085184  1
  O2-  O462  1  0.69125073  0.58735034  0.18338040  1
  O2-  O463  1  0.67382030  0.57750119  0.52229742  1
  O2-  O464  1  0.63909298  0.57058729  0.86478922  1
  O2-  O465  1  0.70374240  0.84291558  0.19130030  1
  O2-  O466  1  0.68397387  0.81604539  0.52769199  1
  O2-  O467  1  0.65363680  0.79414229  0.83469507  1
  O2-  O468  1  0.91977120  0.08408261  0.18169072  1
  O2-  O469  1  0.90716791  0.06437035  0.53243569  1
  O2-  O470  1  0.92124532  0.06245361  0.85751647  1
  O2-  O471  1  0.89548786  0.30481673  0.19168700  1
  O2-  O472  1  0.96450219  0.39791714  0.54298007  1
  O2-  O473  1  0.92381469  0.32793994  0.85359110  1
  O2-  O474  1  0.91091105  0.55719224  0.18297589  1
  O2-  O475  1  0.91767856  0.58262703  0.51349445  1
  O2-  O476  1  0.90152953  0.56973428  0.86428039  1
  O2-  O477  1  0.90464428  0.87444417  0.17525335  1
  O2-  O478  1  0.91782635  0.82591149  0.51768060  1
  O2-  O479  1  0.90894952  0.79875968  0.89823294  1
  O2-  O480  1  0.16962563  0.06637329  0.30955928  1
  O2-  O481  1  0.15143517  0.07651296  0.64555463  1
  O2-  O482  1  0.16131921  0.09523083  0.97488020  1
  O2-  O483  1  0.24631745  0.43142214  0.28924457  1
  O2-  O484  1  0.17670523  0.33697087  0.65640812  1
  O2-  O485  1  0.14856845  0.32555265  0.99077459  1
  O2-  O486  1  0.16543041  0.57799832  0.31366034  1
  O2-  O487  1  0.16806067  0.58017348  0.65490893  1
  O2-  O488  1  0.14418172  0.58024377  0.98952000  1
  O2-  O489  1  0.15286924  0.82082242  0.30216564  1
  O2-  O490  1  0.15916609  0.82829483  0.64415435  1
  O2-  O491  1  0.16316153  0.83328516  0.97390249  1
  O2-  O492  1  0.39357509  0.05435436  0.30946396  1
  O2-  O493  1  0.42246351  0.08252549  0.64509545  1
  O2-  O494  1  0.40975617  0.08506124  0.97478666  1
  O2-  O495  1  0.42991962  0.32282013  0.31747071  1
  O2-  O496  1  0.42398835  0.35385571  0.63962529  1
  O2-  O497  1  0.41094630  0.33270103  0.97735640  1
  O2-  O498  1  0.40678452  0.58558661  0.33446366  1
  O2-  O499  1  0.41308801  0.58062258  0.65007464  1
  O2-  O500  1  0.44782573  0.60143533  1.02240854  1
  O2-  O501  1  0.40803690  0.83760039  0.30487005  1
  O2-  O502  1  0.40799285  0.83114402  0.65552532  1
  O2-  O503  1  0.40449393  0.82954382  0.96619974  1
  O2-  O504  1  0.67788901  0.09754687  0.30689607  1
  O2-  O505  1  0.66929156  0.08781534  0.65080207  1
  O2-  O506  1  0.65700358  0.07369731  1.00090253  1
  O2-  O507  1  0.67797681  0.35252227  0.30978190  1
  O2-  O508  1  0.66937804  0.33391501  0.64706362  1
  O2-  O509  1  0.66961333  0.33498710  0.97994380  1
  O2-  O510  1  0.67201704  0.58261410  0.30746790  1
  O2-  O511  1  0.66320893  0.58316633  0.64987262  1
  O2-  O512  1  0.68360227  0.58254983  0.97813904  1
  O2-  O513  1  0.65805759  0.81388852  0.31840611  1
  O2-  O514  1  0.66994488  0.83119546  0.64684018  1
  O2-  O515  1  0.66713673  0.81826655  0.95004691  1
  O2-  O516  1  0.89822452  0.06971437  0.30515937  1
  O2-  O517  1  0.90797259  0.07693200  0.65242684  1
  O2-  O518  1  0.86939432  0.03488028  0.97394109  1
  O2-  O519  1  0.90950815  0.32663756  0.31579145  1
  O2-  O520  1  0.93314131  0.34334909  0.65516792  1
  O2-  O521  1  0.91536964  0.32475642  0.97753603  1
  O2-  O522  1  0.91594992  0.57977555  0.30600033  1
  O2-  O523  1  0.92406096  0.55942327  0.63771635  1
  O2-  O524  1  0.84262818  0.59835918  0.98292178  1
  O2-  O525  1  0.91611803  0.83632984  0.30176873  1
  O2-  O526  1  0.91300712  0.81722133  0.64640222  1
  O2-  O527  1  0.91024185  0.80623343  0.96592758  1
  O2-  O528  1  0.07587628  0.17127334  0.02930325  1
  O2-  O529  1  0.05053431  0.10146794  0.36359778  1
  O2-  O530  1  0.07850717  0.17267605  0.68464623  1
  O2-  O531  1  0.07137713  0.40652029  0.03389498  1
  O2-  O532  1  0.08318030  0.40888077  0.36049967  1
  O2-  O533  1  0.09354897  0.42907543  0.69262951  1
  O2-  O534  1  0.06980661  0.67999379  0.02262191  1
  O2-  O535  1  0.07805209  0.65922606  0.35057561  1
  O2-  O536  1  0.09403445  0.66484494  0.68540648  1
  O2-  O537  1  0.07310672  0.92429806  0.00873183  1
  O2-  O538  1  0.07739980  0.90438453  0.34722082  1
  O2-  O539  1  0.08321443  0.91252743  0.68977578  1
  O2-  O540  1  0.32744832  0.16668947  0.01951940  1
  O2-  O541  1  0.33379567  0.15789411  0.35337516  1
  O2-  O542  1  0.29919802  0.12188360  0.69457239  1
  O2-  O543  1  0.33700890  0.42768221  -0.00978451  1
  O2-  O544  1  0.31549244  0.36372954  0.35886587  1
  O2-  O545  1  0.34168449  0.42000780  0.67860157  1
  O2-  O546  1  0.32957734  0.67131918  0.01942865  1
  O2-  O547  1  0.34055749  0.68297777  0.35539758  1
  O2-  O548  1  0.32564042  0.65775025  0.68183769  1
  O2-  O549  1  0.32685962  0.91861582  0.00579677  1
  O2-  O550  1  0.31032373  0.89953148  0.35093461  1
  O2-  O551  1  0.32756922  0.91572843  0.68894242  1
  O2-  O552  1  0.57411225  0.15736198  0.01936468  1
  O2-  O553  1  0.61412577  0.19268503  0.35737830  1
  O2-  O554  1  0.58547988  0.16895815  0.68927739  1
  O2-  O555  1  0.57600813  0.41434861  0.01706760  1
  O2-  O556  1  0.58698481  0.41005081  0.36199496  1
  O2-  O557  1  0.58960442  0.42089800  0.68252612  1
  O2-  O558  1  0.61763369  0.68798391  0.01429241  1
  O2-  O559  1  0.57696717  0.65471544  0.35902419  1
  O2-  O560  1  0.57989351  0.66488879  0.68948671  1
  O2-  O561  1  0.58294269  0.90203061  -0.01928294  1
  O2-  O562  1  0.56326729  0.93104353  0.35133538  1
  O2-  O563  1  0.58389473  0.91677178  0.68743210  1
  O2-  O564  1  0.84253758  0.17179656  0.02377103  1
  O2-  O565  1  0.82912066  0.15753257  0.35338442  1
  O2-  O566  1  0.83368801  0.17181669  0.68710131  1
  O2-  O567  1  0.82931652  0.40446338  0.02769777  1
  O2-  O568  1  0.83613380  0.42153346  0.35014965  1
  O2-  O569  1  0.83820895  0.41545206  0.69504326  1
  O2-  O570  1  0.91416573  0.67407816  0.01205698  1
  O2-  O571  1  0.84011425  0.67015159  0.34510927  1
  O2-  O572  1  0.81331281  0.66399983  0.69800116  1
  O2-  O573  1  0.84229060  0.89684734  0.03398497  1
  O2-  O574  1  0.81977531  0.90363513  0.35553231  1
  O2-  O575  1  0.81561538  0.92458740  0.73178513  1
