# generated using pymatgen
data_H2O
_symmetry_space_group_name_H-M   'P 1'
_cell_length_a   17.99093230
_cell_length_b   18.00053108
_cell_length_c   22.00671403
_cell_angle_alpha   89.99396113
_cell_angle_beta   90.01168041
_cell_angle_gamma   119.99308944
_symmetry_Int_Tables_number   1
_chemical_formula_structural   H2O
_chemical_formula_sum   'H384 O192'
_cell_volume   6172.41401515
_cell_formula_units_Z   192
loop_
 _symmetry_equiv_pos_site_id
 _symmetry_equiv_pos_as_xyz
  1  'x, y, z'
loop_
 _atom_type_symbol
 _atom_type_oxidation_number
  H+  1.0
  O2-  -2.0
loop_
 _atom_site_type_symbol
 _atom_site_label
 _atom_site_symmetry_multiplicity
 _atom_site_fract_x
 _atom_site_fract_y
 _atom_site_fract_z
 _atom_site_occupancy
  H+  H0  1  0.19937369  0.86509187  0.68555279  1
  H+  H1  1  0.40259713  0.32751342  0.22452415  1
  H+  H2  1  0.12633275  0.51627250  0.17122915  1
  H+  H3  1  0.45679720  0.91327652  0.94948783  1
  H+  H4  1  0.40230911  0.04163486  0.51540801  1
  H+  H5  1  0.60940070  0.48829625  0.50652398  1
  H+  H6  1  0.34899972  0.13605920  -0.00232052  1
  H+  H7  1  0.10948938  0.62689871  0.17064899  1
  H+  H8  1  0.61774220  0.38996238  0.82584684  1
  H+  H9  1  0.85662350  0.10766663  0.49004648  1
  H+  H10  1  0.61424414  0.38253617  0.67301058  1
  H+  H11  1  0.67046741  0.83160679  0.94443608  1
  H+  H12  1  0.02806846  0.11907285  0.34419903  1
  H+  H13  1  0.72742739  0.07742844  0.84324837  1
  H+  H14  1  0.86167195  0.65809617  0.80796801  1
  H+  H15  1  0.93433776  0.56794512  1.04609091  1
  H+  H16  1  0.71936772  0.60804674  0.29168180  1
  H+  H17  1  0.36616536  0.15284907  0.66951788  1
  H+  H18  1  0.38185054  0.52405648  0.50904080  1
  H+  H19  1  0.32991557  0.93413185  0.73812053  1
  H+  H20  1  0.61968494  0.11842389  0.66449570  1
  H+  H21  1  0.65229795  0.38140197  0.34054225  1
  H+  H22  1  0.35064796  0.71266463  -0.00603241  1
  H+  H23  1  -0.00477609  0.12621915  0.17679063  1
  H+  H24  1  0.86326678  0.22228177  0.68252162  1
  H+  H25  1  0.84431570  0.71268416  0.48676782  1
  H+  H26  1  0.54100106  0.13346568  0.00726856  1
  H+  H27  1  0.64069205  0.16397752  0.00162995  1
  H+  H28  1  0.11223496  0.38474215  -0.00562748  1
  H+  H29  1  0.40829073  0.92004173  0.80930312  1
  H+  H30  1  0.76464223  0.12058131  0.32427990  1
  H+  H31  1  0.67986849  0.83834863  0.10761409  1
  H+  H32  1  0.13391524  0.78149482  0.99291028  1
  H+  H33  1  0.86883154  0.89403327  0.00777807  1
  H+  H34  1  0.44247069  0.34944040  0.31739159  1
  H+  H35  1  0.36902679  0.02870620  0.32805617  1
  H+  H36  1  0.89123113  0.52319064  0.14026041  1
  H+  H37  1  0.08753547  0.88478590  0.68483957  1
  H+  H38  1  0.76916505  0.64737527  0.81553037  1
  H+  H39  1  0.39495560  0.00180905  0.81610281  1
  H+  H40  1  0.87440942  0.22890324  0.34783902  1
  H+  H41  1  0.66930164  0.58809984  1.07329814  1
  H+  H42  1  0.35047729  0.71045700  0.14457891  1
  H+  H43  1  0.11729106  0.98629159  0.15660731  1
  H+  H44  1  0.36564736  0.46909271  0.13457639  1
  H+  H45  1  0.36084589  0.62836995  -0.00611936  1
  H+  H46  1  0.36966517  0.73753162  0.49698833  1
  H+  H47  1  0.75931394  0.16192269  0.98104397  1
  H+  H48  1  0.86896496  0.42440934  0.48604995  1
  H+  H49  1  0.36024145  0.47757311  0.67406693  1
  H+  H50  1  0.41442345  0.09239722  0.88585657  1
  H+  H51  1  0.14184733  0.03393089  0.84009032  1
  H+  H52  1  0.32540945  0.90583399  0.66822220  1
  H+  H53  1  0.85894802  0.89556464  0.83165265  1
  H+  H54  1  0.69671477  0.12936530  0.92429935  1
  H+  H55  1  0.79858129  0.89918037  0.16222118  1
  H+  H56  1  0.47037242  0.61013043  0.98881296  1
  H+  H57  1  0.39941858  0.13261741  0.82686628  1
  H+  H58  1  0.41546413  0.58285486  0.60423347  1
  H+  H59  1  0.13044218  0.27164004  0.66195436  1
  H+  H60  1  0.11340352  0.89568880  1.00696794  1
  H+  H61  1  0.33056691  0.66695330  0.72911272  1
  H+  H62  1  0.23066906  0.59683978  0.98050049  1
  H+  H63  1  0.98426931  0.87949343  0.99199519  1
  H+  H64  1  0.65364141  0.52509716  0.18450200  1
  H+  H65  1  0.61262640  0.86785078  0.01703673  1
  H+  H66  1  0.63522991  0.76766273  0.00205995  1
  H+  H67  1  0.14565361  0.38501655  0.16438336  1
  H+  H68  1  -0.00429720  0.87051972  0.57258700  1
  H+  H69  1  0.77093528  0.36811586  0.00749596  1
  H+  H70  1  0.22342794  0.35962645  -0.01855061  1
  H+  H71  1  0.84224083  0.16462544  0.06350686  1
  H+  H72  1  0.59168117  1.00645371  -0.04718874  1
  H+  H73  1  0.11877912  0.51366824  0.33788974  1
  H+  H74  1  0.93029983  0.08165139  0.27183900  1
  H+  H75  1  0.61747809  0.88857808  0.50525472  1
  H+  H76  1  0.66347437  0.58083984  0.60133018  1
  H+  H77  1  0.61574317  0.38575874  1.00804945  1
  H+  H78  1  0.91228293  0.03199384  0.17750248  1
  H+  H79  1  0.38465993  0.52772794  0.83468370  1
  H+  H80  1  0.97963776  0.87861368  0.84233596  1
  H+  H81  1  0.10818642  0.66202072  0.48871942  1
  H+  H82  1  0.97804684  0.36637250  0.83702596  1
  H+  H83  1  0.90814857  0.87180476  0.17624037  1
  H+  H84  1  0.09908471  0.37666615  0.35406722  1
  H+  H85  1  0.86429402  0.50945725  0.48478720  1
  H+  H86  1  0.33447185  0.91842836  0.43054691  1
  H+  H87  1  0.35870479  0.25893080  0.31983659  1
  H+  H88  1  0.63726520  0.02036701  0.51614985  1
  H+  H89  1  0.64996947  0.64680675  0.36024304  1
  H+  H90  1  0.58109524  0.67246684  0.76808051  1
  H+  H91  1  0.86449714  0.38818463  0.68051891  1
  H+  H92  1  0.87375907  0.13543416  1.00444966  1
  H+  H93  1  0.02114794  0.38467863  -0.00490033  1
  H+  H94  1  0.63968112  0.86336748  0.16088190  1
  H+  H95  1  0.09137619  0.43552428  0.52356392  1
  H+  H96  1  0.27713333  0.14792919  0.82380604  1
  H+  H97  1  0.88926694  0.27361501  0.18142539  1
  H+  H98  1  0.12370233  0.47861683  0.82306823  1
  H+  H99  1  0.10365929  0.35772035  0.50533368  1
  H+  H100  1  0.02090051  0.88783263  0.16133080  1
  H+  H101  1  0.01831898  0.13937600  0.66941825  1
  H+  H102  1  0.09962793  0.62915032  0.67998032  1
  H+  H103  1  0.60554838  0.63443652  0.01358699  1
  H+  H104  1  0.13203727  0.25825716  0.50993858  1
  H+  H105  1  0.87312998  0.75710596  0.00537353  1
  H+  H106  1  0.13172528  0.50211522  0.98049303  1
  H+  H107  1  0.63821320  0.78028209  0.51991448  1
  H+  H108  1  0.34001198  0.69971864  0.34548086  1
  H+  H109  1  0.72036629  0.10516256  0.17308787  1
  H+  H110  1  0.35744061  0.88809330  0.00359786  1
  H+  H111  1  0.22230727  0.36011509  0.66039102  1
  H+  H112  1  0.36235626  0.39020319  0.67319578  1
  H+  H113  1  0.77788576  0.39207396  0.16657314  1
  H+  H114  1  0.72105106  0.61258763  0.50904159  1
  H+  H115  1  0.27293851  0.88727756  0.34864688  1
  H+  H116  1  0.62146520  0.88922269  0.67568647  1
  H+  H117  1  0.88280480  0.84908655  0.50743769  1
  H+  H118  1  0.05410377  0.15136912  0.76931144  1
  H+  H119  1  0.80280812  0.64830520  0.42660899  1
  H+  H120  1  0.13526780  1.03169741  0.66352440  1
  H+  H121  1  0.13663762  0.78875104  0.32890050  1
  H+  H122  1  0.75128743  0.62140701  0.66328664  1
  H+  H123  1  0.88290908  0.58891794  0.88847633  1
  H+  H124  1  0.34675245  0.46004832  0.35649491  1
  H+  H125  1  0.90918829  0.87592563  0.37712807  1
  H+  H126  1  0.38338371  0.61409554  0.51087491  1
  H+  H127  1  0.97296179  0.10136545  0.50636494  1
  H+  H128  1  0.38235800  0.10906553  0.16980422  1
  H+  H129  1  0.25074202  0.61437864  0.34979328  1
  H+  H130  1  0.63610179  0.27657905  0.99383290  1
  H+  H131  1  0.35878689  0.97582462  0.15734285  1
  H+  H132  1  0.88617034  0.00861712  0.51199744  1
  H+  H133  1  0.61770307  0.71990322  0.15778541  1
  H+  H134  1  0.55416561  0.63183277  0.35779199  1
  H+  H135  1  0.88632192  0.11073494  0.66010312  1
  H+  H136  1  0.29100440  0.02588632  0.93303715  1
  H+  H137  1  0.62148457  0.22633738  0.66686206  1
  H+  H138  1  0.90200183  0.11379517  0.33064806  1
  H+  H139  1  0.60776788  0.63784139  0.82549576  1
  H+  H140  1  0.78441978  0.05701974  0.12049566  1
  H+  H141  1  0.61125919  0.63836493  0.67503976  1
  H+  H142  1  0.62572223  0.14831901  0.50369138  1
  H+  H143  1  0.49227784  0.85714054  0.65657099  1
  H+  H144  1  0.02510470  0.38168238  0.14887985  1
  H+  H145  1  0.35889164  0.88670750  0.14951764  1
  H+  H146  1  0.11666403  0.76731972  0.84372509  1
  H+  H147  1  0.37941008  0.73794915  0.81520345  1
  H+  H148  1  0.09349206  0.71342148  0.69287267  1
  H+  H149  1  0.88434029  0.50710512  0.86189846  1
  H+  H150  1  0.37932347  0.60498837  0.14916783  1
  H+  H151  1  0.10849799  0.12853386  0.50010160  1
  H+  H152  1  0.63567250  0.51773777  0.66106991  1
  H+  H153  1  0.37252055  0.90470299  0.35115553  1
  H+  H154  1  0.20860294  0.35160825  0.33729533  1
  H+  H155  1  0.89697677  0.61676199  0.13843298  1
  H+  H156  1  0.38273291  0.37108459  0.51262481  1
  H+  H157  1  0.59180574  0.10429945  0.34279174  1
  H+  H158  1  0.07228534  0.68155178  0.42692857  1
  H+  H159  1  0.97323305  0.36537800  0.34230597  1
  H+  H160  1  0.63427518  0.61913811  0.51773015  1
  H+  H161  1  0.67283488  0.02204388  0.32577482  1
  H+  H162  1  0.60987223  0.95386423  0.01851462  1
  H+  H163  1  0.49447991  0.12597117  0.51687646  1
  H+  H164  1  0.72925729  0.10305021  0.51491606  1
  H+  H165  1  0.47098667  0.10840494  0.17431672  1
  H+  H166  1  0.63505879  0.36080544  0.17867230  1
  H+  H167  1  0.64347155  0.78262690  0.66741250  1
  H+  H168  1  0.38743087  0.27907036  0.65631471  1
  H+  H169  1  0.36085396  0.14436713  0.33703523  1
  H+  H170  1  0.63443872  0.77383727  0.85516165  1
  H+  H171  1  0.77667981  0.88703067  1.01392793  1
  H+  H172  1  0.14250591  0.37357131  0.83292110  1
  H+  H173  1  0.46206279  0.88872094  0.28805720  1
  H+  H174  1  0.11469638  0.20735258  0.34449919  1
  H+  H175  1  0.52839384  0.63105586  0.15874335  1
  H+  H176  1  0.14335298  0.56398069  0.49161282  1
  H+  H177  1  0.11579907  0.47867216  0.67206536  1
  H+  H178  1  0.33086897  0.41727529  0.76655773  1
  H+  H179  1  0.33693765  0.36817117  0.34307480  1
  H+  H180  1  0.73509770  0.87290810  0.66863295  1
  H+  H181  1  0.62468912  0.23607686  0.50190888  1
  H+  H182  1  0.96487299  0.61091273  0.66031245  1
  H+  H183  1  0.52766854  0.38794335  0.16412959  1
  H+  H184  1  0.22705463  0.12336722  0.99407554  1
  H+  H185  1  0.86892599  0.38945615  0.83314730  1
  H+  H186  1  0.13634049  0.11915060  0.99168355  1
  H+  H187  1  0.46374456  0.84968938  0.16945877  1
  H+  H188  1  0.95346734  0.82716782  0.34932195  1
  H+  H189  1  0.36700046  0.88647577  0.49684427  1
  H+  H190  1  0.10913170  0.14326963  0.67206048  1
  H+  H191  1  0.61001391  0.22319262  0.16594802  1
  H+  H192  1  0.22973440  0.11280499  0.16692778  1
  H+  H193  1  0.65168648  0.61184963  0.18557202  1
  H+  H194  1  0.38588588  0.04479240  0.66838367  1
  H+  H195  1  0.10383622  0.88781979  0.83197413  1
  H+  H196  1  0.08349419  0.12433744  0.82854689  1
  H+  H197  1  0.72827871  0.38514570  0.50868006  1
  H+  H198  1  0.76818249  0.38347085  0.34107014  1
  H+  H199  1  0.48074852  0.86417203  0.99569818  1
  H+  H200  1  0.49972524  0.08922186  0.32004727  1
  H+  H201  1  0.48186775  0.36636743  -0.00960610  1
  H+  H202  1  0.66537167  0.51023023  0.35830176  1
  H+  H203  1  0.96477015  0.32869316  0.51873066  1
  H+  H204  1  0.09728755  0.64365640  0.33740350  1
  H+  H205  1  0.86499519  0.38544804  0.34238863  1
  H+  H206  1  0.35435640  0.22590533  0.49140259  1
  H+  H207  1  0.13097689  1.02612885  0.49610007  1
  H+  H208  1  0.57467732  0.90781016  0.73246042  1
  H+  H209  1  0.13175857  0.27151891  0.98428985  1
  H+  H210  1  0.72849478  0.35882114  0.66639167  1
  H+  H211  1  0.11686179  0.38905916  0.67102018  1
  H+  H212  1  0.11911029  0.91062412  0.45129309  1
  H+  H213  1  0.85818416  0.47376918  0.67443299  1
  H+  H214  1  0.96664712  0.63047856  0.50121201  1
  H+  H215  1  0.60386121  -0.02199841  0.93552422  1
  H+  H216  1  0.77506854  0.13494127  0.67897680  1
  H+  H217  1  0.12126283  0.72989381  0.17067618  1
  H+  H218  1  0.39175178  0.36474901  0.98245094  1
  H+  H219  1  0.48261169  0.37937002  0.51096211  1
  H+  H220  1  0.57014259  0.66116322  0.06781121  1
  H+  H221  1  0.03492690  0.90973513  0.42629197  1
  H+  H222  1  0.59521424  0.67563737  0.44969508  1
  H+  H223  1  0.26600910  0.37331886  0.50393648  1
  H+  H224  1  0.86893306  0.44299429  0.01814261  1
  H+  H225  1  0.22588870  0.85178711  0.16951935  1
  H+  H226  1  0.86880114  0.62421325  0.32710243  1
  H+  H227  1  0.48120803  0.36701555  0.65850584  1
  H+  H228  1  0.88685009  0.34755862  0.99395244  1
  H+  H229  1  0.78816455  0.88656343  0.34999159  1
  H+  H230  1  0.39084491  0.28319889  0.83294815  1
  H+  H231  1  0.41560138  0.58542383  0.92598096  1
  H+  H232  1  0.38758738  0.35808541  0.15977837  1
  H+  H233  1  0.87101754  0.61997055  0.50113809  1
  H+  H234  1  0.52524290  0.13881942  0.67098655  1
  H+  H235  1  0.21560158  0.60203310  0.17456978  1
  H+  H236  1  0.26679247  0.13132820  0.33443802  1
  H+  H237  1  0.86189660  0.11141847  0.16286197  1
  H+  H238  1  0.79119652  0.64555152  0.16684671  1
  H+  H239  1  0.54039687  0.14757373  0.82552474  1
  H+  H240  1  0.36352111  0.22306381  0.15689176  1
  H+  H241  1  0.72438847  0.86037966  0.85377105  1
  H+  H242  1  0.57150981  0.43538288  0.34778712  1
  H+  H243  1  0.64238682  0.89306708  0.34679462  1
  H+  H244  1  0.88436118  0.54875579  0.30543444  1
  H+  H245  1  0.88856941  0.79137328  0.83771107  1
  H+  H246  1  0.63871706  0.52183279  0.83261871  1
  H+  H247  1  0.17182841  0.09588760  0.89672736  1
  H+  H248  1  0.77355220  0.88121959  0.50541291  1
  H+  H249  1  0.36460246  0.72097158  0.66765893  1
  H+  H250  1  0.01510747  0.61771252  0.84491221  1
  H+  H251  1  0.40490168  0.85460292  0.66212413  1
  H+  H252  1  0.23212114  0.64302076  0.50796341  1
  H+  H253  1  0.27036144  0.88696186  0.49245516  1
  H+  H254  1  0.02466776  0.14073089  0.00420220  1
  H+  H255  1  0.91999072  0.33172924  0.28008599  1
  H+  H256  1  0.59939886  0.96935074  0.16926238  1
  H+  H257  1  0.21859773  0.11397664  0.50505750  1
  H+  H258  1  0.21983140  0.86970589  0.99239151  1
  H+  H259  1  0.52837912  0.39143840  0.82367290  1
  H+  H260  1  0.35821453  0.47142066  -0.01120708  1
  H+  H261  1  0.97897732  0.36472464  0.67250885  1
  H+  H262  1  0.89048974  0.02457114  0.99521775  1
  H+  H263  1  0.65372309  0.76933686  0.34040001  1
  H+  H264  1  0.38381800  0.61052655  0.66322217  1
  H+  H265  1  0.13194293  0.23783218  0.16068678  1
  H+  H266  1  0.37988167  0.59945756  0.35634600  1
  H+  H267  1  0.86849764  0.31179930  0.52311293  1
  H+  H268  1  0.52396126  0.64196474  0.50275277  1
  H+  H269  1  0.48355012  0.87459077  0.50276692  1
  H+  H270  1  0.13575903  0.61255904  0.83955186  1
  H+  H271  1  0.85821405  0.19549034  0.49518797  1
  H+  H272  1  0.86243317  -0.02344702  0.67480038  1
  H+  H273  1  0.62528305  0.01685920  0.66663868  1
  H+  H274  1  0.08287849  0.15634826  0.43834960  1
  H+  H275  1  0.36812313  0.23334192  1.00182299  1
  H+  H276  1  0.23813612  0.37266865  0.83602636  1
  H+  H277  1  0.23294399  0.62479004  0.83458356  1
  H+  H278  1  0.63633220  0.11676228  0.18029792  1
  H+  H279  1  0.08128823  0.41889845  0.08724451  1
  H+  H280  1  0.90848951  0.78262651  0.17672461  1
  H+  H281  1  0.34601717  1.00543811  -0.02243268  1
  H+  H282  1  0.85415944  0.62979565  0.66394092  1
  H+  H283  1  0.64551474  0.27974197  0.83967507  1
  H+  H284  1  0.11663210  0.98779667  0.00665803  1
  H+  H285  1  0.12938610  0.78876697  0.48662225  1
  H+  H286  1  0.52315242  0.63928463  0.67410988  1
  H+  H287  1  0.32150204  0.39952718  0.44298093  1
  H+  H288  1  0.83445001  0.91194238  0.44592685  1
  H+  H289  1  0.15914939  0.88734779  0.31623575  1
  H+  H290  1  0.84234889  0.97498517  0.83158808  1
  H+  H291  1  0.87416766  0.66954253  0.00967696  1
  H+  H292  1  0.92247476  0.84869368  0.93200078  1
  H+  H293  1  0.31449376  0.64754097  0.08814651  1
  H+  H294  1  0.07216382  0.40585427  0.41508439  1
  H+  H295  1  0.58698557  0.16546977  0.10607745  1
  H+  H296  1  0.46780570  0.84605364  0.87283657  1
  H+  H297  1  0.73202994  0.37001399  0.84282289  1
  H+  H298  1  0.13228945  0.09035419  0.32578352  1
  H+  H299  1  0.33402159  0.16611811  0.09675199  1
  H+  H300  1  0.17124215  0.57320651  0.91460923  1
  H+  H301  1  0.56307214  0.91147957  0.35041433  1
  H+  H302  1  0.36471809  0.39061529  0.82618415  1
  H+  H303  1  0.61728410  0.47489542  0.01730631  1
  H+  H304  1  0.15069481  0.66560237  0.99139019  1
  H+  H305  1  0.58808156  0.41452140  0.10621443  1
  H+  H306  1  0.82400915  0.67135776  0.72120921  1
  H+  H307  1  0.66394270  0.33091872  0.23792666  1
  H+  H308  1  0.91149319  0.08292793  0.93523049  1
  H+  H309  1  0.83982072  0.15663824  0.40211905  1
  H+  H310  1  0.15086200  0.83281923  0.89875863  1
  H+  H311  1  0.32030271  0.17360383  0.42992744  1
  H+  H312  1  0.58702166  0.95558067  0.82732975  1
  H+  H313  1  0.67261437  0.84301426  0.57774117  1
  H+  H314  1  0.22045300  0.41685270  0.21212002  1
  H+  H315  1  0.82820965  0.39681812  0.10700535  1
  H+  H316  1  0.68397061  0.82279971  0.27899146  1
  H+  H317  1  0.16103931  0.59210087  0.60172322  1
  H+  H318  1  0.60344745  0.92497512  0.44272546  1
  H+  H319  1  0.00853450  0.90172043  0.68339163  1
  H+  H320  1  0.63647945  0.37645212  0.51619319  1
  H+  H321  1  0.22240602  0.61639499  0.65949759  1
  H+  H322  1  0.47473050  0.61686202  0.83494744  1
  H+  H323  1  0.58889087  0.43082106  0.44666864  1
  H+  H324  1  0.14603394  0.32037721  0.27961177  1
  H+  H325  1  0.02198428  0.63364969  0.14668274  1
  H+  H326  1  0.84269582  0.68878397  0.10496531  1
  H+  H327  1  0.27375881  0.14770974  0.66685779  1
  H+  H328  1  0.17616047  0.82558808  0.23363751  1
  H+  H329  1  0.91545254  0.32135636  0.61691708  1
  H+  H330  1  0.91547756  0.07899136  0.60072211  1
  H+  H331  1  0.15108751  0.86850199  0.53066555  1
  H+  H332  1  0.65515872  0.10488151  0.82869598  1
  H+  H333  1  0.12651473  0.14674469  0.15818953  1
  H+  H334  1  0.01298081  0.65379747  0.33409703  1
  H+  H335  1  0.16787424  0.33557827  0.89646353  1
  H+  H336  1  0.42484921  0.34109425  0.89288331  1
  H+  H337  1  0.96179739  0.26322689  0.21121359  1
  H+  H338  1  0.09270598  0.41744290  0.76441535  1
  H+  H339  1  0.67039425  0.58432831  0.88994173  1
  H+  H340  1  0.66754553  0.33600871  0.93400629  1
  H+  H341  1  0.08843744  0.17729320  0.06184703  1
  H+  H342  1  0.57377074  0.90827882  0.11032529  1
  H+  H343  1  0.49799654  0.97231762  0.32782910  1
  H+  H344  1  0.32986557  0.40770891  0.04556405  1
  H+  H345  1  0.08384208  0.92509943  0.09422305  1
  H+  H346  1  0.07670775  0.92744808  0.77579889  1
  H+  H347  1  0.73471017  0.62922978  1.02043224  1
  H+  H348  1  0.67243287  0.33591602  0.60490573  1
  H+  H349  1  0.42885465  0.58080276  0.30592164  1
  H+  H350  1  0.36717215  0.64415834  0.82270245  1
  H+  H351  1  0.68877266  0.08625162  0.26203637  1
  H+  H352  1  0.60030471  0.17416284  0.76799377  1
  H+  H353  1  0.92107099  0.33507807  0.89669980  1
  H+  H354  1  0.16166486  0.32043382  0.57018082  1
  H+  H355  1  0.40155724  0.08141443  0.26522395  1
  H+  H356  1  0.27670214  0.38332246  0.14008575  1
  H+  H357  1  0.32873724  0.92031011  0.06250089  1
  H+  H358  1  0.40072450  0.56449418  0.20467761  1
  H+  H359  1  0.16187151  0.08081043  0.59995166  1
  H+  H360  1  0.90255875  0.26897041  0.99055278  1
  H+  H361  1  0.63700301  0.28614913  0.34236730  1
  H+  H362  1  0.83888604  0.42562421  0.77656936  1
  H+  H363  1  0.33321579  0.17997642  0.76268251  1
  H+  H364  1  0.15189404  0.56875822  0.27648309  1
  H+  H365  1  0.42212971  0.34393816  0.57771601  1
  H+  H366  1  0.05756157  0.63480020  0.01273466  1
  H+  H367  1  0.12608489  0.97836633  0.36733988  1
  H+  H368  1  0.66154924  0.07795643  0.60431315  1
  H+  H369  1  0.58523069  0.41557011  0.73092139  1
  H+  H370  1  0.94122669  0.10844142  0.84019666  1
  H+  H371  1  0.13804585  0.81685613  0.63058709  1
  H+  H372  1  0.83684948  0.43287515  0.39988273  1
  H+  H373  1  0.85531781  0.92741001  0.10320945  1
  H+  H374  1  0.16819880  0.07922848  0.22593742  1
  H+  H375  1  0.90970158  0.58779931  0.59773499  1
  H+  H376  1  0.32835112  0.66794046  0.44314471  1
  H+  H377  1  0.42697400  0.09790620  0.60612967  1
  H+  H378  1  0.42541205  0.84233686  0.56279844  1
  H+  H379  1  0.38053211  0.80289485  0.21258413  1
  H+  H380  1  0.93360102  0.55877299  0.97108420  1
  H+  H381  1  0.82943018  0.91986953  0.73498712  1
  H+  H382  1  0.06103388  0.64353651  0.77895777  1
  H+  H383  1  0.87474372  0.97826980  0.34970539  1
  O2-  O384  1  0.09696568  0.17920730  0.14526603  1
  O2-  O385  1  0.07909423  0.15982525  0.48335953  1
  O2-  O386  1  0.04243432  0.14113968  0.81336538  1
  O2-  O387  1  0.08354635  0.41933293  0.13288019  1
  O2-  O388  1  0.06832600  0.38719896  0.49533001  1
  O2-  O389  1  0.09548807  0.41753145  0.81033282  1
  O2-  O390  1  0.08749130  0.66455769  0.15392392  1
  O2-  O391  1  0.07428264  0.68772354  0.47267881  1
  O2-  O392  1  0.07150229  0.64859745  0.82369623  1
  O2-  O393  1  0.08522374  0.92476641  0.14088755  1
  O2-  O394  1  0.09686889  0.94851834  0.43919841  1
  O2-  O395  1  0.07916001  0.92601208  0.82083859  1
  O2-  O396  1  0.33209535  0.16223046  0.14230119  1
  O2-  O397  1  0.31373208  0.16971917  0.47474381  1
  O2-  O398  1  0.33768022  0.17933255  0.80784102  1
  O2-  O399  1  0.33516680  0.40721275  0.12298165  1
  O2-  O400  1  0.32707050  0.40550692  0.48831601  1
  O2-  O401  1  0.33113938  0.41882390  0.81234889  1
  O2-  O402  1  0.31907726  0.64844882  0.13336173  1
  O2-  O403  1  0.33301875  0.67487485  0.48816554  1
  O2-  O404  1  0.33843268  0.67644664  0.80757959  1
  O2-  O405  1  0.32764328  0.91710448  0.13844543  1
  O2-  O406  1  0.33374467  0.91557186  0.48015950  1
  O2-  O407  1  0.36946273  0.94225150  0.79978417  1
  O2-  O408  1  0.58219591  0.16222700  0.15139697  1
  O2-  O409  1  0.59430688  0.17604093  0.48754932  1
  O2-  O410  1  0.60180551  0.17442796  0.81273541  1
  O2-  O411  1  0.58923240  0.41805423  0.15161973  1
  O2-  O412  1  0.57809684  0.42622038  0.49126609  1
  O2-  O413  1  0.58945727  0.42173917  0.80888706  1
  O2-  O414  1  0.58963569  0.65822131  0.14677173  1
  O2-  O415  1  0.58694323  0.67426103  0.49449611  1
  O2-  O416  1  0.57712880  0.66837580  0.81353968  1
  O2-  O417  1  0.57094195  0.90829411  0.15608394  1
  O2-  O418  1  0.58830807  0.91902981  0.48646934  1
  O2-  O419  1  0.55409080  0.89559926  0.80915943  1
  O2-  O420  1  0.81301900  0.11272346  0.14090834  1
  O2-  O421  1  0.82635179  0.13911386  0.47423114  1
  O2-  O422  1  0.83599493  0.11583181  0.85479984  1
  O2-  O423  1  0.83652590  0.41842527  0.14955841  1
  O2-  O424  1  0.83504513  0.44681430  0.46725619  1
  O2-  O425  1  0.83768853  0.42234247  0.82169610  1
  O2-  O426  1  0.84975864  0.67956582  0.14864952  1
  O2-  O427  1  0.80921515  0.65042042  0.47524866  1
  O2-  O428  1  0.82719334  0.68369409  0.79600733  1
  O2-  O429  1  0.85913411  0.92977208  0.14908586  1
  O2-  O430  1  0.83434738  0.90657731  0.49122308  1
  O2-  O431  1  0.81980494  0.91522811  0.81603669  1
  O2-  O432  1  0.16787609  0.08395707  0.18064726  1
  O2-  O433  1  0.15844603  0.07865396  0.52192473  1
  O2-  O434  1  0.17283062  0.09592811  0.85153789  1
  O2-  O435  1  0.18286370  0.36696011  0.18723747  1
  O2-  O436  1  0.16200350  0.32018468  0.52408673  1
  O2-  O437  1  0.17457977  0.34304642  0.84999618  1
  O2-  O438  1  0.15691479  0.57301761  0.19238271  1
  O2-  O439  1  0.16850766  0.61526519  0.51700138  1
  O2-  O440  1  0.17336873  0.58686193  0.85063524  1
  O2-  O441  1  0.16905719  0.81472473  0.18922741  1
  O2-  O442  1  0.16879359  0.85345020  0.49289521  1
  O2-  O443  1  0.14378827  0.82872893  0.85386847  1
  O2-  O444  1  0.40978647  0.07734588  0.18788652  1
  O2-  O445  1  0.43563452  0.09685777  0.53565339  1
  O2-  O446  1  0.43187363  0.10470946  0.84262939  1
  O2-  O447  1  0.41601024  0.32960809  0.18042316  1
  O2-  O448  1  0.42076019  0.34620403  0.52829261  1
  O2-  O449  1  0.42297343  0.34443945  0.84742757  1
  O2-  O450  1  0.41209426  0.57488791  0.16129570  1
  O2-  O451  1  0.41460272  0.58405229  0.52380179  1
  O2-  O452  1  0.41328488  0.58809192  0.84979993  1
  O2-  O453  1  0.39891363  0.81624536  0.17033647  1
  O2-  O454  1  0.42192654  0.84588496  0.51743690  1
  O2-  O455  1  0.46375739  0.85751748  0.82936555  1
  O2-  O456  1  0.66496119  0.08360329  0.19519176  1
  O2-  O457  1  0.67085927  0.08002546  0.53307882  1
  O2-  O458  1  0.66483083  0.05985520  0.84595922  1
  O2-  O459  1  0.66299566  0.32773391  0.19326868  1
  O2-  O460  1  0.67175695  0.35017851  0.52813954  1
  O2-  O461  1  0.66992669  0.33986451  0.85505961  1
  O2-  O462  1  0.68684227  0.58612780  0.19787595  1
  O2-  O463  1  0.66193341  0.58458548  0.52982844  1
  O2-  O464  1  0.66971697  0.58460074  0.84560597  1
  O2-  O465  1  0.67569302  0.83659646  0.15206387  1
  O2-  O466  1  0.66992639  0.84206139  0.53176962  1
  O2-  O467  1  0.66880931  0.82901455  0.87644209  1
  O2-  O468  1  0.93527766  0.09204525  0.19315650  1
  O2-  O469  1  0.91241286  0.07161169  0.52147701  1
  O2-  O470  1  0.88509598  0.07374955  0.86297165  1
  O2-  O471  1  0.94230853  0.30461114  0.20491115  1
  O2-  O472  1  0.90620384  0.29081703  0.53663811  1
  O2-  O473  1  0.91932689  0.34404818  0.85229564  1
  O2-  O474  1  0.92706909  0.58510723  0.12597727  1
  O2-  O475  1  0.90709269  0.59418205  0.51698731  1
  O2-  O476  1  0.91809603  0.56185967  0.88728012  1
  O2-  O477  1  0.94245729  0.84468490  0.18832755  1
  O2-  O478  1  0.91237282  0.81405242  0.51073864  1
  O2-  O479  1  0.91794060  0.84805878  0.85744943  1
  O2-  O480  1  0.16984866  0.07063525  0.30468351  1
  O2-  O481  1  0.16786554  0.08953330  0.64503601  1
  O2-  O482  1  0.16711664  0.08861203  0.97822974  1
  O2-  O483  1  0.14650429  0.32010062  0.32422760  1
  O2-  O484  1  0.16250211  0.33212191  0.64432604  1
  O2-  O485  1  0.16190242  0.33194076  0.96729574  1
  O2-  O486  1  0.15148388  0.57329103  0.32151957  1
  O2-  O487  1  0.16065180  0.58628684  0.64644920  1
  O2-  O488  1  0.16979875  0.56590842  0.96283750  1
  O2-  O489  1  0.18119492  0.84681889  0.31375014  1
  O2-  O490  1  0.13730966  0.82453017  0.67440164  1
  O2-  O491  1  0.15866868  0.84291220  0.97956263  1
  O2-  O492  1  0.40463964  0.08675638  0.31085545  1
  O2-  O493  1  0.42607955  0.10293621  0.65266458  1
  O2-  O494  1  0.34719762  0.05296232  0.95274297  1
  O2-  O495  1  0.38334316  0.32057476  0.30308559  1
  O2-  O496  1  0.42149283  0.34097559  0.64104513  1
  O2-  O497  1  0.42390502  0.33490516  0.97091768  1
  O2-  O498  1  0.41595669  0.57239207  0.34924819  1
  O2-  O499  1  0.41617141  0.58160988  0.64955026  1
  O2-  O500  1  0.41072694  0.58117854  0.97175801  1
  O2-  O501  1  0.46639897  0.90610789  0.33051996  1
  O2-  O502  1  0.43095753  0.82675251  0.63971165  1
  O2-  O503  1  0.43249827  0.85721670  0.96918155  1
  O2-  O504  1  0.70168595  0.08317186  0.30779317  1
  O2-  O505  1  0.65293132  0.07821741  0.65061402  1
  O2-  O506  1  0.71236673  0.16616217  0.96052325  1
  O2-  O507  1  0.67398942  0.34268622  0.32461226  1
  O2-  O508  1  0.66798466  0.32720648  0.65006637  1
  O2-  O509  1  0.66801214  0.33725177  0.97960209  1
  O2-  O510  1  0.71164252  0.60352560  0.33640640  1
  O2-  O511  1  0.66616869  0.57967521  0.64779152  1
  O2-  O512  1  0.67209566  0.59032225  1.02888673  1
  O2-  O513  1  0.68143007  0.82901764  0.32285747  1
  O2-  O514  1  0.67203414  0.84306441  0.65309783  1
  O2-  O515  1  0.66863154  0.83027485  0.99220368  1
  O2-  O516  1  0.92817391  0.07927395  0.31719166  1
  O2-  O517  1  0.91875819  0.08174930  0.64590608  1
  O2-  O518  1  0.92192115  0.08505229  0.98057412  1
  O2-  O519  1  0.91292109  0.33560211  0.32465533  1
  O2-  O520  1  0.91694311  0.33444217  0.66067899  1
  O2-  O521  1  0.92746992  0.32992994  0.97633311  1
  O2-  O522  1  0.91289573  0.61091263  0.30878480  1
  O2-  O523  1  0.90531212  0.58424573  0.64308476  1
  O2-  O524  1  0.95236661  0.54688463  1.01029624  1
  O2-  O525  1  0.94784312  0.85279393  0.38666803  1
  O2-  O526  1  0.93737264  0.82156563  0.57533736  1
  O2-  O527  1  0.92285607  0.84888583  0.97797665  1
  O2-  O528  1  0.08667536  0.17523651  0.01678120  1
  O2-  O529  1  0.08947271  0.14704388  0.35813911  1
  O2-  O530  1  0.07868171  0.17322128  0.68633511  1
  O2-  O531  1  0.08532487  0.41929178  0.00831859  1
  O2-  O532  1  0.07101809  0.40890059  0.36988227  1
  O2-  O533  1  0.08777910  0.41933357  0.68900427  1
  O2-  O534  1  0.11666414  0.68487449  0.01364481  1
  O2-  O535  1  0.07387154  0.68051865  0.35043893  1
  O2-  O536  1  0.06261378  0.65015242  0.69838981  1
  O2-  O537  1  0.08394967  0.92731266  0.02285597  1
  O2-  O538  1  0.13535992  0.97977078  0.32182686  1
  O2-  O539  1  0.06823205  0.92631648  0.69605504  1
  O2-  O540  1  0.33276859  0.17428461  0.01944690  1
  O2-  O541  1  0.32629674  0.17147016  0.34983011  1
  O2-  O542  1  0.33440592  0.18272986  0.68212529  1
  O2-  O543  1  0.32795095  0.40929778  0.00015454  1
  O2-  O544  1  0.30978250  0.39758913  0.36492069  1
  O2-  O545  1  0.32941279  0.41665206  0.68918049  1
  O2-  O546  1  0.32327971  0.65314654  0.00836518  1
  O2-  O547  1  0.31196624  0.64399615  0.36571064  1
  O2-  O548  1  0.32776734  0.66185536  0.68371250  1
  O2-  O549  1  0.32597738  0.91722998  0.01683311  1
  O2-  O550  1  0.33194302  0.92231005  0.36809905  1
  O2-  O551  1  0.30460127  0.93408624  0.69539575  1
  O2-  O552  1  0.59636568  0.17273348  0.02550742  1
  O2-  O553  1  0.54274339  0.06952218  0.31665895  1
  O2-  O554  1  0.58890612  0.16385011  0.68128307  1
  O2-  O555  1  0.58315594  0.41269405  0.02593758  1
  O2-  O556  1  0.62331869  0.44664396  0.36956979  1
  O2-  O557  1  0.58418548  0.41438402  0.68520980  1
  O2-  O558  1  0.57050429  0.66189922  0.02249986  1
  O2-  O559  1  0.61272857  0.67172867  0.37176578  1
  O2-  O560  1  0.58340024  0.67041529  0.68986755  1
  O2-  O561  1  0.57905128  0.89548432  0.03495371  1
  O2-  O562  1  0.62490828  0.93517470  0.36080617  1
  O2-  O563  1  0.58444975  0.91577784  0.68734819  1
  O2-  O564  1  0.84809175  0.17102269  0.01913832  1
  O2-  O565  1  0.84749092  0.16611182  0.35609259  1
  O2-  O566  1  0.83612953  0.15944172  0.68772363  1
  O2-  O567  1  0.82657047  0.38178825  0.02704769  1
  O2-  O568  1  0.83247862  0.41748236  0.35377677  1
  O2-  O569  1  0.83070102  0.41616793  0.69347044  1
  O2-  O570  1  0.84267522  0.69689344  0.02455244  1
  O2-  O571  1  0.80132026  0.64838819  0.36017321  1
  O2-  O572  1  0.81901479  0.65846191  0.67620255  1
  O2-  O573  1  0.83781387  0.92097204  0.02772114  1
  O2-  O574  1  0.84510019  0.92072594  0.36947783  1
  O2-  O575  1  0.82884887  0.91636558  0.68989851  1
