# generated using pymatgen
data_H2O
_symmetry_space_group_name_H-M   'P 1'
_cell_length_a   17.98653079
_cell_length_b   17.97928456
_cell_length_c   21.99505571
_cell_angle_alpha   89.97127455
_cell_angle_beta   90.01658733
_cell_angle_gamma   120.01401959
_symmetry_Int_Tables_number   1
_chemical_formula_structural   H2O
_chemical_formula_sum   'H384 O192'
_cell_volume   6159.05502520
_cell_formula_units_Z   192
loop_
 _symmetry_equiv_pos_site_id
 _symmetry_equiv_pos_as_xyz
  1  'x, y, z'
loop_
 _atom_type_symbol
 _atom_type_oxidation_number
  H+  1.0
  O2-  -2.0
loop_
 _atom_site_type_symbol
 _atom_site_label
 _atom_site_symmetry_multiplicity
 _atom_site_fract_x
 _atom_site_fract_y
 _atom_site_fract_z
 _atom_site_occupancy
  H+  H0  1  0.13952563  0.54636599  0.99958397  1
  H+  H1  1  -0.09774588  0.56360100  0.89605987  1
  H+  H2  1  0.20843150  0.58888401  0.33275650  1
  H+  H3  1  0.09636502  0.43114290  0.07351829  1
  H+  H4  1  0.30204323  0.38330762  0.16473176  1
  H+  H5  1  0.37049036  0.72890397  0.68762702  1
  H+  H6  1  0.28914911  0.39709032  0.69077333  1
  H+  H7  1  0.37926100  0.64163230  0.86282784  1
  H+  H8  1  0.07721608  0.46800635  0.34241890  1
  H+  H9  1  0.88612922  0.62022330  0.16699825  1
  H+  H10  1  1.01552443  0.38781539  0.15243507  1
  H+  H11  1  0.52125564  0.14174765  0.20603271  1
  H+  H12  1  0.70712831  0.85630395  0.93935612  1
  H+  H13  1  0.64119033  0.28383736  0.83789436  1
  H+  H14  1  0.16208960  0.26814100  0.16729036  1
  H+  H15  1  0.35131074  0.73224368  0.15474413  1
  H+  H16  1  0.38447442  0.35776086  0.48893222  1
  H+  H17  1  0.61838262  0.64340817  0.84487701  1
  H+  H18  1  0.22463779  0.86098082  0.49466554  1
  H+  H19  1  0.78486669  0.63723557  1.00023228  1
  H+  H20  1  0.10631332  -0.02289033  0.99734974  1
  H+  H21  1  0.45353239  0.89493478  0.35911048  1
  H+  H22  1  0.38201344  0.11764072  0.51553493  1
  H+  H23  1  0.29597572  -0.00085723  0.21197440  1
  H+  H24  1  0.35302674  0.22096855  0.48705143  1
  H+  H25  1  0.87481473  0.39208854  0.00555844  1
  H+  H26  1  0.98838173  0.13852124  0.84448602  1
  H+  H27  1  0.89420412  0.12253126  0.83484672  1
  H+  H28  1  0.77174266  0.13876606  0.80976549  1
  H+  H29  1  0.70266439  0.10812294  0.57664663  1
  H+  H30  1  0.85932804  0.47271254  0.33548449  1
  H+  H31  1  0.89931782  0.59623938  0.65089184  1
  H+  H32  1  0.27690386  0.37573978  0.00546269  1
  H+  H33  1  0.36217074  0.87189640  0.14351260  1
  H+  H34  1  0.48351093  0.35128754  0.17985373  1
  H+  H35  1  0.60730303  0.16944639  0.03933462  1
  H+  H36  1  0.84002399  0.65381335  0.62111389  1
  H+  H37  1  0.58532401  0.44412612  0.30670462  1
  H+  H38  1  0.11046207  0.62450414  0.82612319  1
  H+  H39  1  0.39200827  0.27766107  0.83817096  1
  H+  H40  1  0.88484217  0.85504409  0.50102449  1
  H+  H41  1  0.63676457  0.24164427  0.65626536  1
  H+  H42  1  0.22811880  0.34330804  0.32068078  1
  H+  H43  1  0.14455830  0.61626145  0.65980629  1
  H+  H44  1  0.07523572  0.92500159  0.05941916  1
  H+  H45  1  0.62675180  0.47701687  0.67616292  1
  H+  H46  1  0.99175540  0.35992509  0.83066481  1
  H+  H47  1  0.92353501  0.32257887  0.88504823  1
  H+  H48  1  0.87989566  0.23837329  0.50093464  1
  H+  H49  1  0.64722044  0.76511049  0.51199064  1
  H+  H50  1  0.34725527  0.11881777  0.16147738  1
  H+  H51  1  0.86513794  0.13416430  1.00521082  1
  H+  H52  1  0.85792822  0.71930346  0.48075061  1
  H+  H53  1  0.13318489  0.26892288  0.49084946  1
  H+  H54  1  0.73697252  0.36694702  0.32701958  1
  H+  H55  1  1.02341487  0.64599440  0.16136546  1
  H+  H56  1  0.62874514  0.75310297  0.01437269  1
  H+  H57  1  0.87859152  0.27327125  0.16050454  1
  H+  H58  1  0.62393909  0.99740630  0.51006545  1
  H+  H59  1  0.53230742  0.64834503  0.85235840  1
  H+  H60  1  0.10814844  0.87922285  0.48179668  1
  H+  H61  1  0.73011078  0.13375050  0.17947262  1
  H+  H62  1  0.35228434  0.11366162  0.34878783  1
  H+  H63  1  0.36764109  0.13599170  0.82018357  1
  H+  H64  1  0.70244694  0.96215118  0.17923448  1
  H+  H65  1  0.17169801  0.10296305  0.70367347  1
  H+  H66  1  0.81851495  0.16327244  0.09611280  1
  H+  H67  1  0.62607709  0.23267367  0.34836492  1
  H+  H68  1  0.41426580  1.00467440  -0.01161304  1
  H+  H69  1  0.32499624  0.69674597  0.33163421  1
  H+  H70  1  0.87619595  0.77736223  0.83747138  1
  H+  H71  1  0.39753642  0.52860583  0.16915552  1
  H+  H72  1  0.64957818  0.37024242  0.99928013  1
  H+  H73  1  0.73843996  0.37302270  0.50373763  1
  H+  H74  1  0.30767772  0.80701785  0.31746198  1
  H+  H75  1  0.64415175  0.89769863  -0.00742780  1
  H+  H76  1  0.88792019  0.18927454  0.33280199  1
  H+  H77  1  0.02975496  0.62441278  0.67083629  1
  H+  H78  1  0.23312381  0.61614961  0.66136517  1
  H+  H79  1  0.28582229  0.39289882  0.83808798  1
  H+  H80  1  0.65199359  0.02807974  0.97361344  1
  H+  H81  1  0.22007753  0.61267564  0.18462249  1
  H+  H82  1  0.07308636  0.14862965  0.40305913  1
  H+  H83  1  -0.01626172  0.36466677  -0.01477035  1
  H+  H84  1  0.88786802  0.61245953  -0.01662832  1
  H+  H85  1  0.53750067  0.62221119  0.50776655  1
  H+  H86  1  0.77234086  0.91583749  0.65801868  1
  H+  H87  1  0.12532846  0.48663258  0.49503243  1
  H+  H88  1  0.12318574  0.66313031  0.01341625  1
  H+  H89  1  0.89579841  0.50641631  0.64935399  1
  H+  H90  1  0.75294894  0.81812999  0.37225953  1
  H+  H91  1  0.13749586  0.36073999  0.49261409  1
  H+  H92  1  0.73886239  0.62310302  0.83621888  1
  H+  H93  1  0.10198322  0.47775977  0.16202943  1
  H+  H94  1  0.06938740  0.91121347  0.43127790  1
  H+  H95  1  0.37481133  0.24196868  0.67512266  1
  H+  H96  1  0.15296291  0.62209029  0.49774577  1
  H+  H97  1  0.32230667  0.90374117  0.40485363  1
  H+  H98  1  1.01138606  0.88763568  0.67752626  1
  H+  H99  1  0.00883565  0.11427911  0.00041597  1
  H+  H100  1  0.89604799  0.27622835  -0.01022895  1
  H+  H101  1  0.01373762  0.88314455  0.83181137  1
  H+  H102  1  0.36763685  0.38313812  0.00732624  1
  H+  H103  1  0.97530091  0.87584672  0.15951946  1
  H+  H104  1  0.81894439  0.65859922  0.42023258  1
  H+  H105  1  0.89117999  0.89594993  0.64918104  1
  H+  H106  1  0.85656401  0.89207718  0.82026157  1
  H+  H107  1  0.08360353  0.73893990  1.00175840  1
  H+  H108  1  0.44242504  0.85379204  0.37562246  1
  H+  H109  1  0.88824142  0.78393412  0.16124594  1
  H+  H110  1  0.61852111  0.37888014  0.32342232  1
  H+  H111  1  0.65201394  0.11800915  0.97190056  1
  H+  H112  1  0.39289889  0.24939311  0.17341860  1
  H+  H113  1  0.61379367  0.15457313  0.21608299  1
  H+  H114  1  0.83580796  0.06568716  0.66694457  1
  H+  H115  1  0.74248978  0.37394810  0.99626324  1
  H+  H116  1  0.85504820  0.85982172  -0.00852852  1
  H+  H117  1  0.44170004  0.81502253  0.15894560  1
  H+  H118  1  0.63675582  0.64587898  0.34788435  1
  H+  H119  1  0.59184423  0.67842018  0.10843001  1
  H+  H120  1  0.85493265  0.88881476  0.14306318  1
  H+  H121  1  0.23377446  0.82467102  0.40466765  1
  H+  H122  1  0.36002322  0.65893598  -0.01838735  1
  H+  H123  1  -0.04390466  0.34296142  0.34548130  1
  H+  H124  1  0.38872775  -0.01823502  0.68593580  1
  H+  H125  1  0.87415195  0.46347842  0.81589018  1
  H+  H126  1  0.22928793  0.11267547  -0.01228222  1
  H+  H127  1  0.86701146  0.67241847  0.79887269  1
  H+  H128  1  0.36908095  0.61646976  0.14570933  1
  H+  H129  1  0.17531447  0.45407256  0.02926656  1
  H+  H130  1  0.28646292  0.14885743  0.66592792  1
  H+  H131  1  0.26346620  0.84752601  0.83119650  1
  H+  H132  1  1.03408071  0.39873688  0.50154255  1
  H+  H133  1  0.40926301  0.02650559  0.83466010  1
  H+  H134  1  0.48401065  0.35992646  0.98961609  1
  H+  H135  1  0.37548637  0.48686009  0.68605413  1
  H+  H136  1  0.86563326  0.22626485  0.80467060  1
  H+  H137  1  0.62234489  0.26865585  0.17991079  1
  H+  H138  1  0.15207079  0.37675737  0.67893518  1
  H+  H139  1  0.12383475  0.92072331  0.16172655  1
  H+  H140  1  0.62438871  0.61971965  0.50203325  1
  H+  H141  1  0.34275549  0.16314629  0.05653142  1
  H+  H142  1  1.01075071  0.88170263  0.33139231  1
  H+  H143  1  0.21626777  0.09445624  0.33248598  1
  H+  H144  1  0.67629594  0.84641923  0.59094073  1
  H+  H145  1  0.78329183  0.38671458  0.66798304  1
  H+  H146  1  0.11210345  0.64737446  0.16465089  1
  H+  H147  1  0.88162515  0.36318916  0.16140875  1
  H+  H148  1  0.65151173  0.30339131  0.11355542  1
  H+  H149  1  0.09420168  0.87154509  0.33783447  1
  H+  H150  1  0.35596326  0.46937253  0.49246438  1
  H+  H151  1  0.64367199  0.36453298  0.49788339  1
  H+  H152  1  0.51054389  0.86928105  0.97776432  1
  H+  H153  1  -0.11733023  0.52096633  -0.01244752  1
  H+  H154  1  0.38669199  0.11912985  0.67200023  1
  H+  H155  1  0.63406169  0.14854755  0.35270127  1
  H+  H156  1  0.52730247  0.63543831  0.16451471  1
  H+  H157  1  0.65204145  0.74435527  0.18563138  1
  H+  H158  1  0.14180851  0.76694214  0.47966254  1
  H+  H159  1  0.27186793  0.37964366  0.48278464  1
  H+  H160  1  0.85845284  0.00547817  0.98677000  1
  H+  H161  1  0.07420587  0.11541622  0.66923347  1
  H+  H162  1  0.41402340  0.87547058  0.66232174  1
  H+  H163  1  0.47535974  0.62334295  0.65342758  1
  H+  H164  1  0.95521843  0.11110826  0.16192174  1
  H+  H165  1  0.77884748  0.64257750  0.15671558  1
  H+  H166  1  0.89049574  0.61205842  0.49528503  1
  H+  H167  1  0.60647698  0.67627319  0.70512406  1
  H+  H168  1  0.08324334  0.12654671  0.15606603  1
  H+  H169  1  -0.04754117  0.87495138  -0.00513726  1
  H+  H170  1  0.66727413  0.33801247  0.89960631  1
  H+  H171  1  0.19803822  0.18685620  0.19818288  1
  H+  H172  1  0.10479198  0.12466638  0.49831728  1
  H+  H173  1  0.86602037  1.02302660  0.16727885  1
  H+  H174  1  0.37086457  1.00484939  0.17626161  1
  H+  H175  1  0.98282917  0.10421555  0.68057063  1
  H+  H176  1  0.13616019  0.85938893  0.66470774  1
  H+  H177  1  0.13513879  0.25951368  0.32046462  1
  H+  H178  1  0.39078223  0.36750493  0.84329726  1
  H+  H179  1  0.62420689  0.47689222  0.00292945  1
  H+  H180  1  0.53459135  0.14453569  0.81014021  1
  H+  H181  1  0.64304157  0.24962435  0.49781096  1
  H+  H182  1  0.68574953  0.54594690  0.35201736  1
  H+  H183  1  0.48428880  0.62394058  0.31945438  1
  H+  H184  1  0.50216707  0.13482655  0.97562024  1
  H+  H185  1  0.84439531  0.60247501  0.32118708  1
  H+  H186  1  0.12094361  0.48768953  0.82775200  1
  H+  H187  1  0.69379982  0.14279134  0.67242915  1
  H+  H188  1  0.64254878  0.61048267  0.18305071  1
  H+  H189  1  0.85725693  0.56979198  0.83533397  1
  H+  H190  1  0.89623576  0.36710225  0.51026541  1
  H+  H191  1  0.97833889  0.14013937  0.31531037  1
  H+  H192  1  0.43527541  0.90655681  0.83000890  1
  H+  H193  1  0.37876140  0.91057359  0.50340290  1
  H+  H194  1  0.40586740  0.78432395  0.98742800  1
  H+  H195  1  0.47017783  0.32709129  0.32725700  1
  H+  H196  1  0.21556831  0.86903941  0.17402336  1
  H+  H197  1  0.88579887  0.35311146  0.65869532  1
  H+  H198  1  0.88491612  0.10783360  0.51453467  1
  H+  H199  1  0.63809183  0.24325743  -0.01070814  1
  H+  H200  1  0.06665323  0.83280231  0.98285190  1
  H+  H201  1  0.58586828  0.14568431  0.62971648  1
  H+  H202  1  0.49885379  0.88399489  0.51310762  1
  H+  H203  1  0.40658281  0.12347379  0.98277464  1
  H+  H204  1  0.22353192  0.87613536  0.99593731  1
  H+  H205  1  0.16986882  0.86121737  0.23784787  1
  H+  H206  1  0.29133279  0.66486499  0.49432205  1
  H+  H207  1  0.77391260  0.39870917  0.15279451  1
  H+  H208  1  0.73573262  0.60031189  0.50061940  1
  H+  H209  1  0.77634240  0.81480790  0.34517010  1
  H+  H210  1  0.33203004  0.72744519  0.82817128  1
  H+  H211  1  0.84669763  0.65443406  0.65500206  1
  H+  H212  1  0.53588241  0.94624110  0.12304326  1
  H+  H213  1  0.88386688  0.37968135  0.80981060  1
  H+  H214  1  0.12671094  0.00991738  0.50924294  1
  H+  H215  1  0.37581883  -0.00193280  0.50167909  1
  H+  H216  1  0.85272338  0.18798316  0.43904648  1
  H+  H217  1  1.01658284  0.12521499  0.49994513  1
  H+  H218  1  0.37732881  0.23654103  0.32967678  1
  H+  H219  1  0.09665809  0.20574039  -0.00066081  1
  H+  H220  1  0.78236574  0.14195641  -0.00321229  1
  H+  H221  1  0.22816419  0.11129558  0.83263836  1
  H+  H222  1  0.75068193  0.13121006  0.51229888  1
  H+  H223  1  0.86165835  0.97031512  0.49844665  1
  H+  H224  1  0.42674644  0.88753447  -0.02035789  1
  H+  H225  1  0.11565199  0.75559211  0.31817630  1
  H+  H226  1  0.11736990  0.14455254  0.81965583  1
  H+  H227  1  0.22410297  0.63669923  0.99010819  1
  H+  H228  1  0.11811181  0.48371965  0.66871507  1
  H+  H229  1  0.37617797  0.56884421  0.57860472  1
  H+  H230  1  0.19956529  0.84565120  0.32691202  1
  H+  H231  1  0.72809509  0.87507397  0.84273727  1
  H+  H232  1  0.12253471  0.84605932  0.83855307  1
  H+  H233  1  0.26382506  0.12992845  0.49591059  1
  H+  H234  1  0.75862553  0.15535116  0.34281016  1
  H+  H235  1  0.97173399  0.85174730  0.50399340  1
  H+  H236  1  0.10700211  0.96876068  0.82844090  1
  H+  H237  1  0.64668259  0.52820227  0.83501393  1
  H+  H238  1  0.64538152  0.87489015  0.65384095  1
  H+  H239  1  0.57802092  0.65137748  0.01186604  1
  H+  H240  1  0.61457052  0.39123529  0.82926805  1
  H+  H241  1  0.37424790  0.22579780  -0.00122517  1
  H+  H242  1  0.86383756  0.48797821  0.15888371  1
  H+  H243  1  0.10342351  0.11700481  0.34352282  1
  H+  H244  1  0.14482244  0.37283111  0.84017929  1
  H+  H245  1  0.73054623  0.85639548  0.50235318  1
  H+  H246  1  0.46624891  0.64803511  -0.03925270  1
  H+  H247  1  0.90851875  0.89769402  0.31353036  1
  H+  H248  1  0.87012843  0.48040692  0.49032941  1
  H+  H249  1  0.49807297  0.86771910  0.65698347  1
  H+  H250  1  0.89705604  0.06192393  0.57317099  1
  H+  H251  1  0.64298969  0.04986013  0.19780252  1
  H+  H252  1  0.63447443  0.98674992  0.68282048  1
  H+  H253  1  0.61940957  0.46763079  0.48512844  1
  H+  H254  1  0.12512546  0.34175360  0.99068998  1
  H+  H255  1  0.52666804  0.39352896  0.82495261  1
  H+  H256  1  0.47517431  0.12040086  0.67393258  1
  H+  H257  1  0.81095219  0.15226777  0.72542866  1
  H+  H258  1  0.64558764  0.36784162  0.66184972  1
  H+  H259  1  0.62301066  0.73896588  0.65160191  1
  H+  H260  1  0.35656771  0.36095253  0.34031339  1
  H+  H261  1  0.10865559  -0.00089101  0.15387717  1
  H+  H262  1  0.60783909  0.47611835  0.16890751  1
  H+  H263  1  0.71785846  0.62970379  0.66903943  1
  H+  H264  1  0.61824024  0.76372274  0.32819638  1
  H+  H265  1  0.12492659  0.00721310  0.32612799  1
  H+  H266  1  0.48529093  0.36570607  0.67214411  1
  H+  H267  1  0.85040700  0.41476804  0.72534545  1
  H+  H268  1  0.47394769  0.10425046  0.33159940  1
  H+  H269  1  0.88545430  1.01279073  0.34093577  1
  H+  H270  1  0.60546451  0.97508239  0.82258916  1
  H+  H271  1  0.64425895  0.11995911  0.82217219  1
  H+  H272  1  0.81893489  0.76117449  0.69089472  1
  H+  H273  1  0.91426846  0.11130299  0.25787860  1
  H+  H274  1  0.13772142  0.10971146  0.98915524  1
  H+  H275  1  0.03149586  0.61126240  0.33631415  1
  H+  H276  1  0.64425637  0.78471943  0.85700316  1
  H+  H277  1  0.59823721  0.18006876  0.75331646  1
  H+  H278  1  0.67829015  0.95435103  0.20886020  1
  H+  H279  1  0.66107537  0.60982101  0.98004160  1
  H+  H280  1  0.66046300  0.00761704  0.35317550  1
  H+  H281  1  0.94172106  0.62294376  0.32366876  1
  H+  H282  1  1.03101922  0.39174585  0.67192492  1
  H+  H283  1  0.14067927  0.77550586  0.66448001  1
  H+  H284  1  0.39487392  0.62357876  0.31973358  1
  H+  H285  1  0.22920637  0.85038597  -0.02905694  1
  H+  H286  1  0.03538136  0.63303141  0.48151753  1
  H+  H287  1  0.64024638  0.86292247  0.32519729  1
  H+  H288  1  0.85779026  0.38053259  0.34022107  1
  H+  H289  1  0.34403135  0.67514763  0.05086854  1
  H+  H290  1  0.61247498  0.18147764  0.43440024  1
  H+  H291  1  0.59207277  0.65882505  0.40552107  1
  H+  H292  1  0.24507518  0.62709681  0.83410158  1
  H+  H293  1  0.34964928  0.90263330  0.73326792  1
  H+  H294  1  0.74142560  0.84506733  0.17917394  1
  H+  H295  1  0.79194390  0.70556472  0.75262696  1
  H+  H296  1  0.13700456  0.26388186  0.59918488  1
  H+  H297  1  0.17327959  0.10269835  0.23868455  1
  H+  H298  1  0.08854304  0.65860269  0.41721730  1
  H+  H299  1  0.16858857  0.08543394  0.89119207  1
  H+  H300  1  0.13303771  0.61314246  0.33008626  1
  H+  H301  1  0.79832974  0.90121147  0.09011732  1
  H+  H302  1  0.40495190  0.78582203  0.51128244  1
  H+  H303  1  0.01604091  0.61789174  0.82567353  1
  H+  H304  1  0.31976280  0.14885603  0.40477510  1
  H+  H305  1  0.86270059  0.73359200  0.00352053  1
  H+  H306  1  0.68119794  0.32386710  0.26734889  1
  H+  H307  1  0.92266839  0.58198456  0.55465831  1
  H+  H308  1  0.92327096  0.33366927  0.57029372  1
  H+  H309  1  0.85182861  0.92936863  0.43400959  1
  H+  H310  1  0.42402253  0.33178616  0.93015700  1
  H+  H311  1  0.64794093  0.15641943  0.50177208  1
  H+  H312  1  0.42007433  0.29974595  0.24591149  1
  H+  H313  1  0.58619454  0.42478105  0.06542106  1
  H+  H314  1  0.59745908  0.12916853  0.11289189  1
  H+  H315  1  0.09457778  0.79317701  0.92599075  1
  H+  H316  1  0.84602141  0.42504085  0.06531363  1
  H+  H317  1  0.11736430  0.75357084  0.83906353  1
  H+  H318  1  0.05945365  0.14985699  0.09189803  1
  H+  H319  1  0.58799519  0.91782753  0.73599451  1
  H+  H320  1  0.09409873  0.42703541  0.76814327  1
  H+  H321  1  0.39892855  0.37085426  0.67678264  1
  H+  H322  1  0.33261217  0.40467451  0.39322285  1
  H+  H323  1  0.33882005  0.42468288  0.09924373  1
  H+  H324  1  0.67683998  0.08979397  0.88069268  1
  H+  H325  1  0.46994454  0.35134128  0.48712204  1
  H+  H326  1  0.37062077  0.65298774  0.49901398  1
  H+  H327  1  0.12306196  0.00953339  0.67556551  1
  H+  H328  1  0.88045365  0.26122185  0.65681504  1
  H+  H329  1  0.67597844  0.34569610  0.59779855  1
  H+  H330  1  0.60837721  0.38839047  0.15526185  1
  H+  H331  1  0.91890743  0.85465021  0.25275822  1
  H+  H332  1  0.83615507  0.67302841  0.09526982  1
  H+  H333  1  0.27616106  0.56961034  0.11604939  1
  H+  H334  1  0.69782078  0.11424590  0.28480892  1
  H+  H335  1  0.19432854  0.29523727  0.23597550  1
  H+  H336  1  0.63005512  0.59974857  0.64052832  1
  H+  H337  1  0.91012688  0.84315009  0.59885762  1
  H+  H338  1  0.64276179  0.16720440  0.11218168  1
  H+  H339  1  0.34383263  0.78965398  0.25466772  1
  H+  H340  1  0.29213369  0.52696456  0.53833175  1
  H+  H341  1  0.37260943  0.93298885  0.08724694  1
  H+  H342  1  0.43662698  0.09589494  0.88574747  1
  H+  H343  1  0.14298642  0.28296335  0.83505632  1
  H+  H344  1  0.59640409  0.41841323  0.73653288  1
  H+  H345  1  0.59630735  0.88434479  0.83301065  1
  H+  H346  1  0.68505259  0.58814630  0.23965753  1
  H+  H347  1  0.84366108  0.13198040  0.15684996  1
  H+  H348  1  0.68339799  0.57550656  0.92045406  1
  H+  H349  1  0.59060485  0.41278409  0.42323699  1
  H+  H350  1  0.09490027  0.69339561  0.07838409  1
  H+  H351  1  0.40208709  0.06199816  0.27997016  1
  H+  H352  1  0.59345710  0.91721741  0.04409065  1
  H+  H353  1  0.15966423  0.32156488  0.93012763  1
  H+  H354  1  0.96606226  1.02248244  0.37106686  1
  H+  H355  1  0.42730658  0.59877414  0.22574309  1
  H+  H356  1  0.56971572  0.92536728  0.35697298  1
  H+  H357  1  0.90389312  0.58568621  0.22897586  1
  H+  H358  1  0.90543485  0.84066123  0.89640940  1
  H+  H359  1  0.83717506  0.41530207  0.43434207  1
  H+  H360  1  0.60647551  0.93904148  0.45127507  1
  H+  H361  1  0.15748387  0.58125498  0.24162495  1
  H+  H362  1  0.43623758  0.84306784  0.58150226  1
  H+  H363  1  0.90641811  0.07849353  0.93358458  1
  H+  H364  1  0.16127418  0.30505730  0.63587234  1
  H+  H365  1  0.41049861  0.08886569  0.57575357  1
  H+  H366  1  0.68277699  0.56935100  0.56431821  1
  H+  H367  1  0.18301933  0.59923445  0.56140826  1
  H+  H368  1  0.15982542  0.58462995  0.89155664  1
  H+  H369  1  0.33129209  0.66808989  0.74689106  1
  H+  H370  1  0.27496953  0.14495997  0.16055750  1
  H+  H371  1  0.67510464  0.81285833  0.24737083  1
  H+  H372  1  0.15593006  0.06778245  0.56951322  1
  H+  H373  1  0.07596811  0.16825397  0.76342284  1
  H+  H374  1  0.08058796  0.65291199  0.73465054  1
  H+  H375  1  0.82943790  0.93015187  0.76423963  1
  H+  H376  1  0.33097583  0.91282255  -0.00871429  1
  H+  H377  1  0.06799350  0.90670296  0.73895305  1
  H+  H378  1  0.38649115  0.61957521  0.67152190  1
  H+  H379  1  0.06145907  0.41876213  0.40607715  1
  H+  H380  1  0.59522815  0.91165645  0.14617953  1
  H+  H381  1  0.33671378  0.66621712  0.39754165  1
  H+  H382  1  0.34857845  0.42624425  0.78140916  1
  H+  H383  1  0.33700308  0.16969031  0.76416533  1
  O2-  O384  1  0.05359790  0.15412054  0.13706621  1
  O2-  O385  1  0.07412607  0.15302632  0.48039636  1
  O2-  O386  1  0.08946476  0.17815206  0.80782406  1
  O2-  O387  1  0.07788427  0.42225844  0.14030854  1
  O2-  O388  1  0.09131755  0.42590793  0.48116167  1
  O2-  O389  1  0.09264267  0.42441133  0.81339470  1
  O2-  O390  1  0.08426383  0.67867507  0.14770090  1
  O2-  O391  1  0.09444162  0.65988604  0.46527120  1
  O2-  O392  1  0.07600226  0.65345535  0.81154698  1
  O2-  O393  1  0.08616877  0.93943298  0.14101052  1
  O2-  O394  1  0.07461159  0.90987453  0.47661452  1
  O2-  O395  1  0.07459594  0.90728903  0.81610256  1
  O2-  O396  1  0.33369381  0.16208744  0.14378508  1
  O2-  O397  1  0.32214996  0.15670981  0.47788312  1
  O2-  O398  1  0.33530138  0.16560776  0.80960468  1
  O2-  O399  1  0.34572655  0.43596204  0.14399736  1
  O2-  O400  1  0.33473370  0.41385158  0.47159488  1
  O2-  O401  1  0.34712604  0.41977619  0.82650892  1
  O2-  O402  1  0.32427152  0.62740594  0.12332363  1
  O2-  O403  1  0.35403746  0.69432214  0.48236356  1
  O2-  O404  1  0.31884193  0.66822846  0.82199278  1
  O2-  O405  1  0.35941456  0.92358618  0.13104539  1
  O2-  O406  1  0.34966994  0.93780001  0.48393342  1
  O2-  O407  1  0.31454228  0.84970154  0.81106792  1
  O2-  O408  1  0.57865795  0.18326069  0.22044673  1
  O2-  O409  1  0.61835854  0.18637505  0.48239041  1
  O2-  O410  1  0.59649235  0.17654408  0.79793271  1
  O2-  O411  1  0.57393051  0.41753435  0.15015637  1
  O2-  O412  1  0.59012426  0.40796867  0.46787098  1
  O2-  O413  1  0.58763352  0.42360549  0.81035743  1
  O2-  O414  1  0.59103501  0.66442242  0.15237251  1
  O2-  O415  1  0.59400850  0.65153701  0.48883871  1
  O2-  O416  1  0.59134501  0.67890521  0.83657692  1
  O2-  O417  1  0.54795123  0.89924064  0.11807823  1
  O2-  O418  1  0.58679045  0.93905582  0.49327947  1
  O2-  O419  1  0.56841556  0.91307449  0.81225919  1
  O2-  O420  1  0.81314558  0.16252171  0.14151568  1
  O2-  O421  1  0.84806385  0.17810040  0.48341447  1
  O2-  O422  1  0.82911846  0.16635881  0.78837934  1
  O2-  O423  1  0.83489178  0.42791686  0.14127972  1
  O2-  O424  1  0.83798382  0.41703862  0.47957109  1
  O2-  O425  1  0.85467549  0.40948423  0.79243933  1
  O2-  O426  1  0.83841883  0.67561745  0.14115625  1
  O2-  O427  1  0.82944249  0.65873455  0.46554712  1
  O2-  O428  1  0.82544147  0.68761714  0.81331091  1
  O2-  O429  1  0.81148736  0.90752459  0.13552171  1
  O2-  O430  1  0.83675382  0.91359153  0.47735919  1
  O2-  O431  1  0.82185451  0.91888588  0.80800829  1
  O2-  O432  1  0.18204020  0.12371163  0.19549182  1
  O2-  O433  1  0.15586387  0.07066065  0.52500084  1
  O2-  O434  1  0.16676811  0.08295230  0.84591627  1
  O2-  O435  1  0.21163272  0.28262864  0.19363019  1
  O2-  O436  1  0.16975627  0.33037445  0.50158107  1
  O2-  O437  1  0.17170240  0.33958041  0.85643416  1
  O2-  O438  1  0.15948813  0.58647262  0.19538397  1
  O2-  O439  1  0.18879966  0.59881998  0.51609178  1
  O2-  O440  1  0.16469439  0.58378002  0.84717052  1
  O2-  O441  1  0.19331276  0.89777734  0.19980888  1
  O2-  O442  1  0.16723522  0.83064265  0.47587203  1
  O2-  O443  1  0.14713351  0.81272212  0.85790479  1
  O2-  O444  1  0.35720023  0.04170576  0.20298471  1
  O2-  O445  1  0.41633611  0.09206126  0.53115630  1
  O2-  O446  1  0.43213300  0.08879776  0.84057935  1
  O2-  O447  1  0.42548495  0.30649862  0.19724635  1
  O2-  O448  1  0.40916723  0.32040204  0.49887617  1
  O2-  O449  1  0.42399455  0.33651693  0.85522154  1
  O2-  O450  1  0.42899855  0.59305132  0.17930387  1
  O2-  O451  1  0.35470375  0.55779068  0.53498468  1
  O2-  O452  1  0.42078350  0.62296549  0.87953145  1
  O2-  O453  1  0.38123109  0.79173036  0.17029474  1
  O2-  O454  1  0.43576192  0.84637863  0.53050429  1
  O2-  O455  1  0.38827887  0.91389941  0.84676877  1
  O2-  O456  1  0.67757864  0.11059227  0.20771770  1
  O2-  O457  1  0.69217154  0.10647205  0.53214473  1
  O2-  O458  1  0.67252916  0.08661457  0.83536736  1
  O2-  O459  1  0.65413255  0.32373063  0.15508024  1
  O2-  O460  1  0.67667953  0.33936788  0.51822623  1
  O2-  O461  1  0.66087289  0.34117581  0.85529045  1
  O2-  O462  1  0.67295355  0.57926449  0.19545330  1
  O2-  O463  1  0.67646499  0.56657331  0.51900864  1
  O2-  O464  1  0.67742869  0.58594053  0.85494219  1
  O2-  O465  1  0.69988269  0.79722217  0.20863514  1
  O2-  O466  1  0.67280574  0.82671478  0.52169811  1
  O2-  O467  1  0.67398136  0.84729805  0.86824600  1
  O2-  O468  1  0.89597576  0.08362247  0.18087960  1
  O2-  O469  1  0.90874365  0.07158484  0.52889421  1
  O2-  O470  1  0.93308289  0.12106615  0.86542946  1
  O2-  O471  1  0.91357455  0.33389540  0.17314622  1
  O2-  O472  1  0.92755148  0.33779269  0.52450087  1
  O2-  O473  1  0.92825882  0.32241687  0.84030960  1
  O2-  O474  1  0.91290218  0.58734685  0.18409570  1
  O2-  O475  1  0.92125627  0.58191794  0.50926341  1
  O2-  O476  1  0.90206574  0.55837063  0.84935714  1
  O2-  O477  1  0.91368248  0.84625028  0.17142506  1
  O2-  O478  1  0.91022548  0.82095318  0.51784124  1
  O2-  O479  1  0.91199330  0.84156262  0.85164006  1
  O2-  O480  1  0.15770500  0.06998662  0.31412935  1
  O2-  O481  1  0.15588987  0.07404731  0.66435333  1
  O2-  O482  1  0.16940770  0.08180222  0.97213173  1
  O2-  O483  1  0.17177802  0.31280451  0.29806480  1
  O2-  O484  1  0.18610781  0.34729527  0.67345505  1
  O2-  O485  1  0.15480262  0.31196832  0.97581870  1
  O2-  O486  1  0.15094940  0.56987790  0.31500827  1
  O2-  O487  1  0.17628803  0.58874518  0.64080371  1
  O2-  O488  1  0.16150525  0.60490225  0.98251065  1
  O2-  O489  1  0.14320883  0.81890699  0.30572555  1
  O2-  O490  1  0.17235891  0.83587498  0.65127088  1
  O2-  O491  1  0.06085717  0.77876224  0.96515353  1
  O2-  O492  1  0.41189745  0.07114389  0.32425788  1
  O2-  O493  1  0.41560247  0.08508150  0.66061479  1
  O2-  O494  1  0.44023102  0.09816445  0.96422291  1
  O2-  O495  1  0.41169322  0.29600664  0.30945699  1
  O2-  O496  1  0.42362739  0.33570908  0.66099766  1
  O2-  O497  1  0.42328506  0.32728343  0.97613918  1
  O2-  O498  1  0.43320586  0.61005391  0.29523198  1
  O2-  O499  1  0.41187413  0.58894759  0.64869650  1
  O2-  O500  1  0.40699355  0.61357985  0.94561799  1
  O2-  O501  1  0.30897483  0.76320532  0.29092161  1
  O2-  O502  1  0.43722856  0.83911608  0.64178255  1
  O2-  O503  1  0.44588482  0.84387793  0.96758934  1
  O2-  O504  1  0.69803962  0.11241440  0.33014071  1
  O2-  O505  1  0.71372477  0.10241272  0.65910979  1
  O2-  O506  1  0.68349149  0.08833694  0.95855503  1
  O2-  O507  1  0.67564674  0.33307210  0.31041197  1
  O2-  O508  1  0.67657014  0.33918824  0.64276433  1
  O2-  O509  1  0.68056181  0.34134528  0.98262227  1
  O2-  O510  1  0.70621573  0.59669118  0.32578625  1
  O2-  O511  1  0.67294166  0.58085359  0.64262134  1
  O2-  O512  1  0.68435556  0.57333474  0.96861015  1
  O2-  O513  1  0.62900485  0.81221243  0.30062638  1
  O2-  O514  1  0.68061145  0.85067067  0.63756371  1
  O2-  O515  1  0.70203240  0.85282093  0.98599402  1
  O2-  O516  1  0.91911854  0.12360563  0.30244784  1
  O2-  O517  1  0.87070918  0.03955909  0.65170403  1
  O2-  O518  1  0.90044830  0.06788833  0.97883835  1
  O2-  O519  1  0.89230384  0.30233903  0.32924166  1
  O2-  O520  1  0.91649410  0.32193854  0.64475989  1
  O2-  O521  1  0.92349131  0.33566109  0.97243319  1
  O2-  O522  1  0.88579360  0.57843627  0.30833678  1
  O2-  O523  1  0.92816722  0.56782596  0.63271813  1
  O2-  O524  1  0.90876316  0.57617794  0.96496101  1
  O2-  O525  1  0.92186024  0.85434993  0.29773562  1
  O2-  O526  1  0.91110300  0.85425157  0.64333831  1
  O2-  O527  1  0.89366624  0.83635914  0.97933057  1
  O2-  O528  1  0.06947543  0.14569189  0.01570265  1
  O2-  O529  1  0.06693220  0.14143347  0.35771692  1
  O2-  O530  1  0.04447382  0.14286046  0.68828407  1
  O2-  O531  1  0.11532951  0.43951402  0.02757083  1
  O2-  O532  1  0.04089816  0.41179397  0.36328749  1
  O2-  O533  1  0.08993622  0.42565160  0.68821214  1
  O2-  O534  1  0.11033167  0.70609007  0.03291828  1
  O2-  O535  1  0.08403162  0.66169328  0.34970898  1
  O2-  O536  1  0.08778246  0.65575550  0.68923661  1
  O2-  O537  1  0.06608841  0.91909606  0.01478012  1
  O2-  O538  1  0.06887514  0.90683313  0.35230710  1
  O2-  O539  1  0.07111361  0.91341368  0.69353709  1
  O2-  O540  1  0.34457120  0.16318121  0.01161792  1
  O2-  O541  1  0.32098394  0.14548705  0.35855190  1
  O2-  O542  1  0.34227175  0.17655654  0.68663360  1
  O2-  O543  1  0.33492778  0.41018493  0.02260601  1
  O2-  O544  1  0.32622391  0.39233494  0.34885338  1
  O2-  O545  1  0.35154244  0.42814872  0.70302818  1
  O2-  O546  1  0.34255359  0.69351224  0.00814496  1
  O2-  O547  1  0.32266106  0.64717781  0.35495233  1
  O2-  O548  1  0.33707782  0.66859559  0.70079848  1
  O2-  O549  1  0.39176320  0.94323420  0.00377611  1
  O2-  O550  1  0.28202679  0.85823025  0.37658132  1
  O2-  O551  1  0.39231775  0.93161154  0.70088542  1
  O2-  O552  1  0.60627725  0.17761679  -0.00469190  1
  O2-  O553  1  0.60015257  0.17531717  0.36848707  1
  O2-  O554  1  0.61313140  0.17783810  0.66674861  1
  O2-  O555  1  0.59195815  0.41789949  0.02130633  1
  O2-  O556  1  0.58136526  0.40316431  0.33746840  1
  O2-  O557  1  0.59843755  0.41630657  0.69056585  1
  O2-  O558  1  0.57797039  0.69994554  0.03120347  1
  O2-  O559  1  0.59558945  0.66415603  0.36058015  1
  O2-  O560  1  0.58816746  0.67698184  0.66337229  1
  O2-  O561  1  0.60282052  0.92022661  -0.00048017  1
  O2-  O562  1  0.62993547  0.94628344  0.36724539  1
  O2-  O563  1  0.59713999  0.92468890  0.69049433  1
  O2-  O564  1  0.83886407  0.16986515  0.01817609  1
  O2-  O565  1  0.86189517  0.21788809  0.35808696  1
  O2-  O566  1  0.80578478  0.14371778  0.67608837  1
  O2-  O567  1  0.84281925  0.42076188  0.01981773  1
  O2-  O568  1  0.83018714  0.41385800  0.35372454  1
  O2-  O569  1  0.84545298  0.41351769  0.67795502  1
  O2-  O570  1  0.84208984  0.67401187  0.01938160  1
  O2-  O571  1  0.79879077  0.64653163  0.34380395  1
  O2-  O572  1  0.76913147  0.71462979  0.71194167  1
  O2-  O573  1  0.79109520  0.90015497  0.01252171  1
  O2-  O574  1  0.90555087  0.97874256  0.36362618  1
  O2-  O575  1  0.83324545  0.95281724  0.67759443  1
