# generated using pymatgen
data_H2O
_symmetry_space_group_name_H-M   'P 1'
_cell_length_a   18.00218340
_cell_length_b   18.00094271
_cell_length_c   22.01328900
_cell_angle_alpha   89.96749676
_cell_angle_beta   90.00807052
_cell_angle_gamma   119.99025794
_symmetry_Int_Tables_number   1
_chemical_formula_structural   H2O
_chemical_formula_sum   'H384 O192'
_cell_volume   6178.43593467
_cell_formula_units_Z   192
loop_
 _symmetry_equiv_pos_site_id
 _symmetry_equiv_pos_as_xyz
  1  'x, y, z'
loop_
 _atom_type_symbol
 _atom_type_oxidation_number
  H+  1.0
  O2-  -2.0
loop_
 _atom_site_type_symbol
 _atom_site_label
 _atom_site_symmetry_multiplicity
 _atom_site_fract_x
 _atom_site_fract_y
 _atom_site_fract_z
 _atom_site_occupancy
  H+  H0  1  0.88806245  0.51113953  1.00060745  1
  H+  H1  1  0.34637311  0.97509181  0.45873217  1
  H+  H2  1  -0.00602469  0.59646323  0.84985033  1
  H+  H3  1  0.47925505  0.12699396  0.85041304  1
  H+  H4  1  0.36256418  0.62984747  0.16101283  1
  H+  H5  1  0.36363160  0.65574021  0.48253029  1
  H+  H6  1  0.44592081  0.09376124  0.63465521  1
  H+  H7  1  0.85564970  0.87753736  0.33258467  1
  H+  H8  1  0.12883712  0.10725394  0.65842371  1
  H+  H9  1  0.77617724  0.61281976  0.67019239  1
  H+  H10  1  0.77526770  0.39769744  0.84453621  1
  H+  H11  1  0.36576606  0.62982795  0.33326054  1
  H+  H12  1  0.12134698  0.99114454  0.82863750  1
  H+  H13  1  0.17363972  0.10058264  0.88970984  1
  H+  H14  1  0.14269455  0.87184461  0.33601215  1
  H+  H15  1  0.99757766  0.63842593  0.51088716  1
  H+  H16  1  0.07963631  0.16935752  0.76938876  1
  H+  H17  1  0.30471724  0.66389056  0.83666465  1
  H+  H18  1  0.21838151  0.60652178  0.48658415  1
  H+  H19  1  0.45900265  0.10688723  0.31127525  1
  H+  H20  1  0.07446851  0.20597974  0.35354722  1
  H+  H21  1  0.76362283  0.64577052  0.00463893  1
  H+  H22  1  0.38313136  0.24102345  -0.01182490  1
  H+  H23  1  0.39500178  0.86809379  0.35641599  1
  H+  H24  1  0.62440887  0.98019556  0.47703410  1
  H+  H25  1  0.57126154  0.16833813  0.68546656  1
  H+  H26  1  0.40208371  0.38582956  0.32134221  1
  H+  H27  1  0.47406197  0.71941240  0.54031334  1
  H+  H28  1  0.35160237  0.13268720  0.66654470  1
  H+  H29  1  0.47885781  0.61300250  0.17525922  1
  H+  H30  1  0.11826653  0.46319467  0.33488925  1
  H+  H31  1  0.21659423  1.10804611  0.65287844  1
  H+  H32  1  0.22165234  0.10964098  0.18733529  1
  H+  H33  1  0.66183070  0.09760329  0.27269224  1
  H+  H34  1  -0.01663271  0.61377307  0.17747624  1
  H+  H35  1  0.41241314  0.33134170  0.59020587  1
  H+  H36  1  0.64127088  0.48253918  0.65937082  1
  H+  H37  1  0.61543131  0.88900116  0.02794006  1
  H+  H38  1  0.22650111  0.59170120  0.31814395  1
  H+  H39  1  0.85942899  0.14315064  0.82715523  1
  H+  H40  1  0.47080794  0.86713776  0.46796808  1
  H+  H41  1  0.37057148  0.97793155  0.01032608  1
  H+  H42  1  0.13628405  0.77537091  0.64226229  1
  H+  H43  1  0.53085367  0.39256108  0.32541723  1
  H+  H44  1  0.78382307  0.13989341  0.66784452  1
  H+  H45  1  0.72247507  0.62014756  0.32299299  1
  H+  H46  1  0.35460879  0.38971397  0.81899471  1
  H+  H47  1  0.36890021  0.47538032  0.00625295  1
  H+  H48  1  0.89305828  0.35388147  0.50032653  1
  H+  H49  1  0.65371651  0.88526419  0.48319152  1
  H+  H50  1  0.45286528  0.09753621  0.49992611  1
  H+  H51  1  0.13131744  0.36187125  0.83981417  1
  H+  H52  1  0.87784783  1.02641045  -0.00425953  1
  H+  H53  1  0.12859399  0.48837622  0.66462903  1
  H+  H54  1  0.22643377  0.61298898  0.16631614  1
  H+  H55  1  0.87047826  -0.00135333  0.31888250  1
  H+  H56  1  0.61035281  0.11784145  0.49721597  1
  H+  H57  1  0.10194400  0.88886162  0.48788291  1
  H+  H58  1  0.17276391  1.00708797  -0.00821197  1
  H+  H59  1  0.97179765  0.85757504  0.98777684  1
  H+  H60  1  0.63656611  0.50564289  0.50897782  1
  H+  H61  1  0.63112998  0.75351686  1.02672558  1
  H+  H62  1  0.97228331  0.86106987  0.32830848  1
  H+  H63  1  1.01452083  0.63775552  0.65369737  1
  H+  H64  1  0.35725158  0.38192895  0.65785887  1
  H+  H65  1  0.02329566  0.36264215  0.01824172  1
  H+  H66  1  0.41852179  0.57524877  0.23276500  1
  H+  H67  1  0.63764537  0.59524124  0.51849034  1
  H+  H68  1  0.86054833  0.72714774  0.81841989  1
  H+  H69  1  0.06323251  0.61271008  0.37260693  1
  H+  H70  1  0.14365909  1.07490957  0.55097506  1
  H+  H71  1  0.58932386  0.88114726  0.17439971  1
  H+  H72  1  1.02385128  0.13439620  0.67735331  1
  H+  H73  1  -0.02407121  0.11611931  0.17602014  1
  H+  H74  1  -0.02287869  0.11934000  -0.00336856  1
  H+  H75  1  0.77622993  0.63661678  0.82671391  1
  H+  H76  1  0.26586887  0.89243266  0.35946189  1
  H+  H77  1  0.13464311  1.02027725  0.18200146  1
  H+  H78  1  0.89289387  1.02604591  0.64273102  1
  H+  H79  1  0.70642727  0.86011906  0.87940481  1
  H+  H80  1  0.61922562  0.64626376  0.16802176  1
  H+  H81  1  0.39404511  0.36919463  -0.03083215  1
  H+  H82  1  0.88286565  0.76030692  0.65590878  1
  H+  H83  1  0.29472172  0.64850804  0.01354684  1
  H+  H84  1  0.10201838  0.85952258  0.01654439  1
  H+  H85  1  0.16132346  0.01713152  1.02235175  1
  H+  H86  1  0.36865950  0.22235992  0.18421058  1
  H+  H87  1  0.78067389  0.38388294  0.16931227  1
  H+  H88  1  0.37639491  0.26970378  0.65010225  1
  H+  H89  1  0.32996770  0.60841878  0.67466216  1
  H+  H90  1  0.66408507  0.91564643  0.63427809  1
  H+  H91  1  0.64972238  0.11344519  0.64013480  1
  H+  H92  1  0.76832089  0.62445216  0.49384050  1
  H+  H93  1  0.37997747  0.27378615  0.49930607  1
  H+  H94  1  0.62284879  0.15766778  0.84631864  1
  H+  H95  1  0.11547551  0.64270658  0.01820187  1
  H+  H96  1  0.77231486  0.38262525  0.01693894  1
  H+  H97  1  0.89812926  0.53180239  0.67014908  1
  H+  H98  1  0.86018212  0.37910046  0.84206986  1
  H+  H99  1  0.38156988  0.64360260  1.00971335  1
  H+  H100  1  0.63461142  0.52862231  0.31785483  1
  H+  H101  1  0.23836140  0.37378504  0.18235275  1
  H+  H102  1  0.15018366  0.82901624  0.91511307  1
  H+  H103  1  0.67490538  0.34606664  0.94648228  1
  H+  H104  1  0.61043036  0.71672639  0.84545003  1
  H+  H105  1  0.62914601  0.98383783  0.02080561  1
  H+  H106  1  0.61132975  0.62938625  0.33875519  1
  H+  H107  1  0.89822821  0.04182682  0.84111253  1
  H+  H108  1  0.56379890  0.60238734  0.06030390  1
  H+  H109  1  0.58541245  0.65688425  0.43570661  1
  H+  H110  1  0.66300089  0.58474708  0.23208360  1
  H+  H111  1  0.63791097  0.75535881  0.63707456  1
  H+  H112  1  0.60572196  0.88843943  0.37507907  1
  H+  H113  1  0.14154229  0.37690632  0.18097324  1
  H+  H114  1  0.37095468  0.88943134  0.00642774  1
  H+  H115  1  0.75049894  0.90803749  0.63559360  1
  H+  H116  1  0.13983876  0.86525065  0.65064347  1
  H+  H117  1  0.32293970  0.46009441  0.32675209  1
  H+  H118  1  0.62089199  0.23134646  0.01094397  1
  H+  H119  1  0.60531375  0.59951701  0.64329734  1
  H+  H120  1  0.34760346  0.46682406  0.65489530  1
  H+  H121  1  0.91495745  0.08975128  0.93263074  1
  H+  H122  1  0.64299382  0.31097769  0.35897620  1
  H+  H123  1  0.14797251  0.77683982  0.18483899  1
  H+  H124  1  0.40377503  0.78401455  0.99155593  1
  H+  H125  1  0.28244319  0.15393810  0.82522761  1
  H+  H126  1  0.86015654  0.46239005  0.49495493  1
  H+  H127  1  0.95847878  0.35187356  0.83735227  1
  H+  H128  1  0.63481952  0.61341442  0.67060119  1
  H+  H129  1  0.26597705  0.14615534  0.33794471  1
  H+  H130  1  0.33410311  0.90966897  0.10351329  1
  H+  H131  1  0.89487669  0.82951184  0.16586575  1
  H+  H132  1  0.12437688  0.72286467  0.84843912  1
  H+  H133  1  0.10268525  0.12632783  0.16380154  1
  H+  H134  1  0.87959330  0.78081319  0.97842343  1
  H+  H135  1  0.79201541  0.14542265  0.33571664  1
  H+  H136  1  0.47992607  0.85917242  0.16951348  1
  H+  H137  1  0.86876549  0.26626466  0.83788871  1
  H+  H138  1  0.11480990  0.89424062  0.83417725  1
  H+  H139  1  0.61503557  0.37551567  0.49421414  1
  H+  H140  1  0.27951986  0.88760037  0.16606716  1
  H+  H141  1  0.38570063  0.87149214  0.47170562  1
  H+  H142  1  0.61338198  0.47319825  0.16270908  1
  H+  H143  1  0.43850542  0.59593398  0.66253145  1
  H+  H144  1  0.88236656  0.48808322  0.84514899  1
  H+  H145  1  0.62236874  0.39983021  0.31941073  1
  H+  H146  1  0.51809200  0.91218988  0.81755987  1
  H+  H147  1  0.11749267  0.37952825  0.01505069  1
  H+  H148  1  0.33661513  0.17316675  0.72760358  1
  H+  H149  1  0.03412247  0.38939829  0.17188902  1
  H+  H150  1  0.63980959  0.36887231  1.00527111  1
  H+  H151  1  0.44421398  0.53509349  0.75205909  1
  H+  H152  1  0.73681457  0.10923982  0.49302372  1
  H+  H153  1  0.31608989  0.43156045  0.47470916  1
  H+  H154  1  0.35103956  0.19527176  0.05161026  1
  H+  H155  1  0.22391294  0.34940058  0.65035951  1
  H+  H156  1  0.10390860  -0.02744392  0.34165136  1
  H+  H157  1  0.22014910  0.87322201  0.48663195  1
  H+  H158  1  0.27127292  0.88047744  0.66403082  1
  H+  H159  1  0.38265548  0.28708640  0.32622106  1
  H+  H160  1  0.10534958  0.14634323  0.00137839  1
  H+  H161  1  0.83774577  0.91079975  0.16938343  1
  H+  H162  1  0.37403699  0.90074508  0.82459746  1
  H+  H163  1  0.52708071  0.37791507  0.49666432  1
  H+  H164  1  0.85527989  0.71453436  0.48959192  1
  H+  H165  1  0.86972273  0.24111199  0.34409212  1
  H+  H166  1  0.52498264  0.89883760  0.64503329  1
  H+  H167  1  0.55914590  0.35070985  0.70064064  1
  H+  H168  1  0.74713641  0.10824678  0.17427473  1
  H+  H169  1  0.10063157  0.22972644  0.00781492  1
  H+  H170  1  0.11629454  0.64005056  0.16307611  1
  H+  H171  1  0.13844252  0.52425141  0.16739633  1
  H+  H172  1  1.09015281  0.97013400  0.48451964  1
  H+  H173  1  0.61008111  0.92548487  0.80112802  1
  H+  H174  1  0.05954729  0.77968843  0.88407833  1
  H+  H175  1  0.85891035  0.86236711  0.66313002  1
  H+  H176  1  0.14202908  0.35809271  0.65393792  1
  H+  H177  1  0.11855090  0.34905096  0.33292536  1
  H+  H178  1  0.88942124  0.61751376  0.66297954  1
  H+  H179  1  0.73915624  0.36116035  0.33355709  1
  H+  H180  1  0.91588730  0.53514330  0.33572744  1
  H+  H181  1  0.42045572  0.33963251  0.23183554  1
  H+  H182  1  0.90272365  0.27051821  0.65525696  1
  H+  H183  1  0.62596820  0.78110733  0.18710946  1
  H+  H184  1  0.34460585  0.13581150  0.48398751  1
  H+  H185  1  0.35917243  0.01004134  0.64603887  1
  H+  H186  1  0.47549625  0.61010974  0.85977766  1
  H+  H187  1  0.98055743  0.36851677  0.33328624  1
  H+  H188  1  0.35613404  0.14674354  0.33908002  1
  H+  H189  1  0.63230378  0.72449802  0.48809494  1
  H+  H190  1  0.25137947  0.62412371  0.67489720  1
  H+  H191  1  0.86711573  0.61664557  0.16682237  1
  H+  H192  1  0.72648824  0.12753795  0.83970464  1
  H+  H193  1  0.12144350  0.60834954  0.63479346  1
  H+  H194  1  0.89689012  0.52114548  0.18152828  1
  H+  H195  1  0.88547402  0.16617729  0.15439683  1
  H+  H196  1  0.81590642  0.40663532  0.67597865  1
  H+  H197  1  0.34481386  0.14831757  0.23156538  1
  H+  H198  1  0.39303860  1.03697454  0.84042192  1
  H+  H199  1  0.17010584  0.33636759  0.93555595  1
  H+  H200  1  0.96485988  0.85656634  0.49838284  1
  H+  H201  1  0.80792279  0.72030629  1.05216446  1
  H+  H202  1  0.64125137  0.82705326  0.28484267  1
  H+  H203  1  0.72283256  0.60553963  0.17358536  1
  H+  H204  1  0.36113467  0.38200151  0.16200563  1
  H+  H205  1  0.11643032  0.46408995  0.48584386  1
  H+  H206  1  0.76323358  0.88580892  1.01743421  1
  H+  H207  1  0.63528256  0.61455881  -0.00347981  1
  H+  H208  1  0.82681661  0.66067555  0.73225715  1
  H+  H209  1  0.64968482  0.02730116  0.64512362  1
  H+  H210  1  0.70862427  0.84894102  0.33685776  1
  H+  H211  1  0.91015667  0.88454035  0.82957499  1
  H+  H212  1  0.11405518  0.32693725  0.50096257  1
  H+  H213  1  0.12903936  0.58813229  0.46267992  1
  H+  H214  1  -0.00545575  0.35144559  0.64817707  1
  H+  H215  1  0.23816671  0.86956123  -0.00305808  1
  H+  H216  1  0.87048369  0.13715445  0.67214516  1
  H+  H217  1  0.14882354  0.77807868  0.99991389  1
  H+  H218  1  0.39890514  0.11707987  0.99801422  1
  H+  H219  1  0.97261771  0.85129473  0.65468397  1
  H+  H220  1  0.11269637  0.22205514  0.67559390  1
  H+  H221  1  0.61797147  0.20245126  0.30594677  1
  H+  H222  1  0.49810699  0.65625588  0.50790644  1
  H+  H223  1  1.03201548  0.87547411  0.17264626  1
  H+  H224  1  0.60620077  0.75657443  0.65868154  1
  H+  H225  1  0.16863603  0.61904040  0.86462268  1
  H+  H226  1  1.02552758  0.64018924  1.01164746  1
  H+  H227  1  0.64316664  0.61084960  0.84749441  1
  H+  H228  1  0.79845769  0.19832190  0.00289877  1
  H+  H229  1  0.12052728  0.10647857  0.33773378  1
  H+  H230  1  0.39122055  0.28571301  0.87017634  1
  H+  H231  1  0.61134031  0.83840635  0.88130340  1
  H+  H232  1  0.08644442  0.67678485  0.10803447  1
  H+  H233  1  0.83782425  0.41402358  0.10940037  1
  H+  H234  1  0.87100353  0.21995084  0.49062310  1
  H+  H235  1  0.28680943  0.90203905  0.82091965  1
  H+  H236  1  0.65525939  0.12219299  1.00169876  1
  H+  H237  1  0.63747031  0.35822532  0.17720268  1
  H+  H238  1  0.64755189  0.29502420  0.85713706  1
  H+  H239  1  0.60109496  0.71404741  0.34613721  1
  H+  H240  1  0.19629255  0.54663754  0.87047239  1
  H+  H241  1  0.37382922  0.75756607  0.17263018  1
  H+  H242  1  0.90833101  0.38001124  0.18076206  1
  H+  H243  1  0.36443658  0.47275418  0.16062018  1
  H+  H244  1  0.19366248  0.32462060  0.34098705  1
  H+  H245  1  0.63201914  0.04658563  0.83833166  1
  H+  H246  1  0.67642534  0.02154816  0.28727606  1
  H+  H247  1  0.52106329  0.39183798  0.84989885  1
  H+  H248  1  0.75172897  0.89036379  0.48916895  1
  H+  H249  1  0.84685567  0.36090689  0.02172967  1
  H+  H250  1  0.92643984  0.32482618  0.55899443  1
  H+  H251  1  0.01564192  0.89211278  0.83155168  1
  H+  H252  1  0.90969835  0.29259921  0.17739656  1
  H+  H253  1  0.61960216  0.48447389  0.00601775  1
  H+  H254  1  0.10882726  0.97404521  0.66260717  1
  H+  H255  1  0.23239886  0.36156565  0.99385407  1
  H+  H256  1  1.08666192  0.66500489  0.43302084  1
  H+  H257  1  0.39626254  0.87590815  0.63482075  1
  H+  H258  1  0.90192850  0.12637994  0.47656378  1
  H+  H259  1  0.71189204  0.42914403  0.62975308  1
  H+  H260  1  0.85078989  0.72262931  0.33981453  1
  H+  H261  1  0.77703656  0.37031173  0.48670554  1
  H+  H262  1  0.48415678  0.60875029  1.00195815  1
  H+  H263  1  0.94485217  0.10222161  0.59617359  1
  H+  H264  1  0.70156667  0.87832256  0.18792060  1
  H+  H265  1  0.86835117  0.89211154  0.48837159  1
  H+  H266  1  0.67563225  0.33541639  0.65656232  1
  H+  H267  1  0.98303137  0.13065688  0.84554917  1
  H+  H268  1  0.40178280  0.79350626  0.83531285  1
  H+  H269  1  0.80984903  0.91227386  0.80376009  1
  H+  H270  1  0.49430167  0.37705491  0.67682936  1
  H+  H271  1  0.02626287  0.37561720  0.48820457  1
  H+  H272  1  0.47744354  0.36035348  0.17162587  1
  H+  H273  1  0.96001841  0.09693252  0.32801515  1
  H+  H274  1  0.11340968  0.23061494  0.82880100  1
  H+  H275  1  0.52267778  0.13038956  0.15431356  1
  H+  H276  1  0.86737914  0.59347391  0.50790915  1
  H+  H277  1  0.15047854  0.86636448  0.18516022  1
  H+  H278  1  0.87450868  1.04257126  0.17306199  1
  H+  H279  1  0.09492329  0.68424512  0.52926351  1
  H+  H280  1  0.64232153  0.52217288  0.84621389  1
  H+  H281  1  0.07676796  0.46055997  0.81928040  1
  H+  H282  1  0.85693733  0.89761032  0.00869248  1
  H+  H283  1  0.21917435  0.21751948  0.94594458  1
  H+  H284  1  0.35113431  0.73462957  0.47122444  1
  H+  H285  1  0.53428161  0.13914893  0.00991430  1
  H+  H286  1  0.20145172  0.10587846  0.49289588  1
  H+  H287  1  0.40090952  0.11067540  0.16676140  1
  H+  H288  1  0.83526110  0.64463502  0.10604378  1
  H+  H289  1  0.83985899  0.16948878  0.42637165  1
  H+  H290  1  0.39892776  0.78508095  0.34317254  1
  H+  H291  1  0.39956829  0.62893435  0.85043537  1
  H+  H292  1  0.59308419  0.68356694  0.11178818  1
  H+  H293  1  0.36937236  0.15289742  0.83234257  1
  H+  H294  1  0.42797084  0.85707752  0.57151749  1
  H+  H295  1  0.08887241  0.40497093  0.10941067  1
  H+  H296  1  0.58575652  0.41500347  0.10328513  1
  H+  H297  1  0.83115803  0.16700362  0.76392590  1
  H+  H298  1  0.42321607  0.08411551  0.93959213  1
  H+  H299  1  0.24676365  0.15916849  0.97987260  1
  H+  H300  1  0.04452322  0.18996619  0.52113102  1
  H+  H301  1  0.86717667  0.39195416  0.33891210  1
  H+  H302  1  0.08619009  0.90691518  0.11296818  1
  H+  H303  1  0.53225642  0.39640179  -0.00289940  1
  H+  H304  1  0.22243149  0.36653126  0.83470876  1
  H+  H305  1  0.91447337  0.82273933  0.26888362  1
  H+  H306  1  0.63698486  0.25627627  0.50660274  1
  H+  H307  1  0.07151932  0.15508757  0.10493246  1
  H+  H308  1  0.32020954  0.40194609  0.75469126  1
  H+  H309  1  0.06922480  0.90876354  0.39857912  1
  H+  H310  1  0.08209948  0.67070249  0.70682896  1
  H+  H311  1  0.81835376  0.65623944  0.39450036  1
  H+  H312  1  0.37389660  0.84917863  0.17510814  1
  H+  H313  1  0.83613311  0.41666518  0.39918577  1
  H+  H314  1  0.02273354  0.13926734  0.40796439  1
  H+  H315  1  0.41168213  0.60148291  0.59371844  1
  H+  H316  1  0.16346776  0.56358146  0.26119007  1
  H+  H317  1  0.88011169  0.59510608  0.99542169  1
  H+  H318  1  0.56873172  0.14407415  0.44520453  1
  H+  H319  1  0.53016927  0.07112425  0.70143746  1
  H+  H320  1  0.01966940  0.79472535  0.05128268  1
  H+  H321  1  0.41869091  0.58444781  0.94448807  1
  H+  H322  1  0.48826758  0.87575949  0.99432174  1
  H+  H323  1  0.58691554  0.11523344  0.33933208  1
  H+  H324  1  0.89555134  0.56638873  0.57012341  1
  H+  H325  1  0.92621740  0.34504811  0.27244107  1
  H+  H326  1  0.77130021  0.83381751  0.69666994  1
  H+  H327  1  0.13278789  0.11583138  0.83110660  1
  H+  H328  1  0.32832439  0.66086768  0.38630172  1
  H+  H329  1  0.12882266  0.67025050  0.79285286  1
  H+  H330  1  0.14361883  0.53048200  0.01783288  1
  H+  H331  1  0.93062326  0.84876581  0.89331440  1
  H+  H332  1  0.91076485  0.29516806  0.94158002  1
  H+  H333  1  0.18200845  0.59189638  0.96078819  1
  H+  H334  1  0.33644165  0.91686203  0.72097417  1
  H+  H335  1  0.18000390  0.85709907  0.55382866  1
  H+  H336  1  0.88218895  0.98923410  0.47688405  1
  H+  H337  1  0.33818465  0.67262087  0.76923105  1
  H+  H338  1  0.08607168  0.91784012  0.72273230  1
  H+  H339  1  0.33814383  0.40788023  0.06035970  1
  H+  H340  1  0.84809744  0.43183728  0.74355431  1
  H+  H341  1  0.40151895  0.02031586  0.16072376  1
  H+  H342  1  0.56078261  0.64761894  0.79138805  1
  H+  H343  1  0.48493807  0.59953558  0.33305585  1
  H+  H344  1  0.89282275  0.74286591  0.17616116  1
  H+  H345  1  0.15254052  0.57680378  0.57697503  1
  H+  H346  1  0.52649200  0.56624975  0.71126974  1
  H+  H347  1  0.14410597  0.29829850  0.55965609  1
  H+  H348  1  0.64902496  0.81032311  0.96947196  1
  H+  H349  1  0.32143897  0.17560495  0.42799496  1
  H+  H350  1  0.81450851  0.93173924  0.10487214  1
  H+  H351  1  0.08182495  0.41542209  0.76052280  1
  H+  H352  1  0.68503460  0.09518389  0.94293817  1
  H+  H353  1  0.34488351  0.66737286  0.09981854  1
  H+  H354  1  0.86397305  0.21116201  0.09811262  1
  H+  H355  1  0.64505034  0.38222250  0.85145638  1
  H+  H356  1  0.08625665  0.40633996  0.39897677  1
  H+  H357  1  0.67272303  0.58572855  0.93625334  1
  H+  H358  1  0.37573755  0.03052287  0.34079707  1
  H+  H359  1  0.90640813  0.82648884  0.55814182  1
  H+  H360  1  0.61897340  0.22784637  0.16220562  1
  H+  H361  1  0.18562415  0.84555963  0.28290660  1
  H+  H362  1  0.87219338  0.93842544  0.75112114  1
  H+  H363  1  0.68271951  0.53245932  0.59676519  1
  H+  H364  1  0.19796221  0.49117666  0.70512575  1
  H+  H365  1  0.59730315  0.17191324  0.09730952  1
  H+  H366  1  0.15219235  0.08388736  0.27574660  1
  H+  H367  1  0.56167843  0.41087207  0.78307260  1
  H+  H368  1  0.95877733  0.59467322  0.28051795  1
  H+  H369  1  0.59505296  0.19789166  0.79287218  1
  H+  H370  1  0.66401714  0.32476823  0.23636057  1
  H+  H371  1  0.38271112  0.46286229  0.42192658  1
  H+  H372  1  0.69646196  0.88556396  0.55305516  1
  H+  H373  1  0.56515822  0.91361527  0.11131424  1
  H+  H374  1  0.40001826  0.37181884  0.49668774  1
  H+  H375  1  0.68516122  0.33178839  0.55591900  1
  H+  H376  1  0.68181484  0.07801837  0.55398092  1
  H+  H377  1  0.42944709  0.84990973  0.89728958  1
  H+  H378  1  0.37849789  0.06147704  0.54789436  1
  H+  H379  1  0.90807799  0.07573869  0.25852955  1
  H+  H380  1  0.92973150  0.57432127  0.90729151  1
  H+  H381  1  0.16922817  0.33606763  0.24441290  1
  H+  H382  1  0.83282400  0.91415773  0.39176256  1
  H+  H383  1  0.57458770  0.92741783  0.70989341  1
  O2-  O384  1  0.06903133  0.15312781  0.14955010  1
  O2-  O385  1  -0.00551568  0.12846849  0.53018680  1
  O2-  O386  1  0.07973738  0.16913357  0.81551114  1
  O2-  O387  1  0.09496298  0.41288105  0.15474117  1
  O2-  O388  1  0.08718660  0.40197562  0.47361499  1
  O2-  O389  1  0.06268498  0.40411282  0.80428391  1
  O2-  O390  1  0.08712061  0.67401322  0.15305649  1
  O2-  O391  1  0.05473707  0.69031683  0.50320324  1
  O2-  O392  1  0.11093851  0.66400300  0.83527973  1
  O2-  O393  1  0.09138588  0.91426963  0.15756996  1
  O2-  O394  1  0.06117632  0.90770245  0.47188450  1
  O2-  O395  1  0.08852885  0.92665647  0.81531409  1
  O2-  O396  1  0.33878199  0.15793066  0.18850482  1
  O2-  O397  1  0.31864141  0.17156421  0.47326507  1
  O2-  O398  1  0.34484975  0.18859197  0.81758492  1
  O2-  O399  1  0.32882391  0.41105182  0.14823420  1
  O2-  O400  1  0.37495375  0.44698564  0.46531464  1
  O2-  O401  1  0.32141393  0.41239928  0.79922384  1
  O2-  O402  1  0.33300086  0.65992750  0.14458160  1
  O2-  O403  1  0.32423258  0.67184657  0.46286901  1
  O2-  O404  1  0.35751857  0.69253645  0.81180076  1
  O2-  O405  1  0.33918861  0.91391027  0.14859936  1
  O2-  O406  1  0.32289901  0.91513902  0.44270544  1
  O2-  O407  1  0.34602379  0.93228664  0.80654632  1
  O2-  O408  1  0.59159401  0.16816226  0.14372195  1
  O2-  O409  1  0.57352394  0.14463941  0.48931620  1
  O2-  O410  1  0.59118519  0.19045111  0.83683115  1
  O2-  O411  1  0.58587745  0.41216414  0.14838240  1
  O2-  O412  1  0.58872228  0.41123440  0.48561593  1
  O2-  O413  1  0.57623378  0.41561046  0.82700379  1
  O2-  O414  1  0.58890917  0.67857546  0.15669315  1
  O2-  O415  1  0.58966904  0.66404423  0.48132641  1
  O2-  O416  1  0.58326606  0.65592731  0.83347233  1
  O2-  O417  1  0.55112692  0.90103593  0.15537895  1
  O2-  O418  1  0.59739097  0.92013603  0.45867822  1
  O2-  O419  1  0.57414893  0.95133365  0.79556583  1
  O2-  O420  1  0.86354141  0.20496107  0.14256821  1
  O2-  O421  1  0.84130693  0.16019242  0.47310745  1
  O2-  O422  1  0.82674093  0.16909507  0.80969627  1
  O2-  O423  1  0.84079718  0.41635408  0.15464869  1
  O2-  O424  1  0.83883773  0.40478724  0.47537822  1
  O2-  O425  1  0.83752048  0.42046895  0.83015009  1
  O2-  O426  1  0.83417405  0.64590279  0.15065653  1
  O2-  O427  1  0.82752244  0.65373015  0.47634261  1
  O2-  O428  1  0.83326402  0.66713493  0.80592791  1
  O2-  O429  1  0.80786502  0.93647942  0.14933683  1
  O2-  O430  1  0.84240183  0.92606740  0.47016301  1
  O2-  O431  1  0.87166289  0.94339427  0.79642495  1
  O2-  O432  1  0.15939121  0.08052222  0.19673450  1
  O2-  O433  1  0.14107937  0.07162166  0.50632397  1
  O2-  O434  1  0.16414903  0.08558937  0.84555766  1
  O2-  O435  1  0.17700692  0.34830745  0.19904685  1
  O2-  O436  1  0.12488027  0.28142821  0.51711883  1
  O2-  O437  1  0.16464072  0.33569724  0.85513554  1
  O2-  O438  1  0.16547724  0.58524017  0.18014613  1
  O2-  O439  1  0.15615116  0.57121719  0.49656448  1
  O2-  O440  1  0.21000615  0.60399979  0.88337383  1
  O2-  O441  1  0.18240847  0.83758469  0.19902330  1
  O2-  O442  1  0.18226566  0.88247561  0.51370795  1
  O2-  O443  1  0.12039791  0.81267748  0.87319943  1
  O2-  O444  1  0.43778015  0.08428319  0.16446886  1
  O2-  O445  1  0.38981759  0.06902644  0.50327363  1
  O2-  O446  1  0.41730668  0.09368544  0.86101919  1
  O2-  O447  1  0.41678339  0.33118711  0.18649083  1
  O2-  O448  1  0.41740610  0.33299045  0.51638826  1
  O2-  O449  1  0.42014555  0.34653964  0.88529732  1
  O2-  O450  1  0.41745406  0.57764034  0.18765537  1
  O2-  O451  1  0.44929211  0.65961491  0.52787323  1
  O2-  O452  1  0.41503443  0.58962879  0.87073664  1
  O2-  O453  1  0.40423363  0.81801815  0.18884834  1
  O2-  O454  1  0.41697685  0.84519000  0.49129660  1
  O2-  O455  1  0.42743466  0.85375907  0.85176145  1
  O2-  O456  1  0.70860044  0.04561196  0.17243566  1
  O2-  O457  1  0.67587534  0.07680525  0.50867258  1
  O2-  O458  1  0.66821798  0.10278401  0.85887555  1
  O2-  O459  1  0.66545702  0.32508594  0.19144740  1
  O2-  O460  1  0.67196352  0.31947802  0.51200321  1
  O2-  O461  1  0.68056436  0.35764617  0.86754898  1
  O2-  O462  1  0.66197456  0.58142728  0.18576903  1
  O2-  O463  1  0.66967965  0.56554962  0.52823927  1
  O2-  O464  1  0.67702552  0.58293332  0.85986592  1
  O2-  O465  1  0.64381651  0.83892720  0.20445952  1
  O2-  O466  1  0.68906162  0.86286770  0.50629908  1
  O2-  O467  1  0.64837956  0.81405336  0.88801412  1
  O2-  O468  1  0.91600751  0.09775336  0.19273585  1
  O2-  O469  1  0.94276820  0.09955986  0.47426186  1
  O2-  O470  1  0.92156569  0.09829644  0.86111352  1
  O2-  O471  1  0.94085469  0.35233063  0.19604271  1
  O2-  O472  1  0.92354929  0.32275664  0.51333405  1
  O2-  O473  1  0.90097944  0.32535856  0.85693608  1
  O2-  O474  1  0.92338244  0.58252878  0.19381651  1
  O2-  O475  1  0.89348191  0.56010968  0.52506297  1
  O2-  O476  1  0.93297219  0.56893942  0.86209456  1
  O2-  O477  1  0.92440001  0.80568976  0.18867606  1
  O2-  O478  1  0.90303811  0.82837647  0.51327555  1
  O2-  O479  1  0.93911038  0.85369536  0.84695982  1
  O2-  O480  1  0.15661829  0.08432384  0.32104941  1
  O2-  O481  1  0.15575326  0.07580602  0.63987441  1
  O2-  O482  1  0.19735426  0.15790854  0.95811327  1
  O2-  O483  1  0.14282989  0.30967138  0.31666302  1
  O2-  O484  1  0.16113993  0.31826269  0.63979807  1
  O2-  O485  1  0.17059832  0.33083835  0.98070260  1
  O2-  O486  1  0.16799731  0.54910490  0.30377076  1
  O2-  O487  1  0.15178424  0.57743681  0.62234446  1
  O2-  O488  1  0.17337032  0.59148933  1.00538932  1
  O2-  O489  1  0.18396792  0.85145364  0.32748947  1
  O2-  O490  1  0.17279733  0.83823352  0.63528589  1
  O2-  O491  1  0.17587921  0.83806778  0.98350729  1
  O2-  O492  1  0.39736292  0.08509040  0.31794880  1
  O2-  O493  1  0.38394073  0.06936280  0.62800577  1
  O2-  O494  1  0.42733789  0.08466347  0.98494866  1
  O2-  O495  1  0.42005947  0.34511118  0.30757520  1
  O2-  O496  1  0.40813586  0.33098842  0.63637532  1
  O2-  O497  1  0.42568682  0.34035030  0.95271647  1
  O2-  O498  1  0.42364951  0.56814453  0.31343621  1
  O2-  O499  1  0.38928509  0.57467419  0.63446186  1
  O2-  O500  1  0.42094447  0.58124052  0.99031266  1
  O2-  O501  1  0.43385039  0.84452501  0.35726412  1
  O2-  O502  1  0.43412987  0.85691997  0.61642581  1
  O2-  O503  1  0.42993030  0.84417834  0.97564362  1
  O2-  O504  1  0.70590360  0.08397458  0.28573488  1
  O2-  O505  1  0.68614606  0.08847076  0.63086730  1
  O2-  O506  1  0.69324701  0.10008006  0.98752880  1
  O2-  O507  1  0.67478724  0.32361760  0.32087125  1
  O2-  O508  1  0.71856492  0.37643308  0.62876932  1
  O2-  O509  1  0.67083014  0.33836274  0.99143720  1
  O2-  O510  1  0.66139606  0.59091360  0.30518093  1
  O2-  O511  1  0.69564869  0.51248086  0.63619875  1
  O2-  O512  1  0.67204784  0.58681463  0.98183005  1
  O2-  O513  1  0.64588767  0.81960492  0.32932081  1
  O2-  O514  1  0.71422075  0.92226975  0.61000747  1
  O2-  O515  1  0.65810605  0.81606372  1.01385217  1
  O2-  O516  1  0.90286904  0.06238033  0.30519932  1
  O2-  O517  1  0.92503069  0.08845142  0.64000289  1
  O2-  O518  1  0.91398516  0.08729158  0.97946607  1
  O2-  O519  1  0.92047261  0.34369199  0.31767729  1
  O2-  O520  1  0.93565243  0.32694621  0.63452851  1
  O2-  O521  1  0.92213678  0.27348107  0.98003852  1
  O2-  O522  1  0.96735368  0.58903682  0.32393245  1
  O2-  O523  1  0.91813881  0.58656138  0.64580693  1
  O2-  O524  1  0.91650297  0.57134442  0.98387368  1
  O2-  O525  1  0.91110883  0.83136271  0.31289998  1
  O2-  O526  1  0.91169678  0.82109041  0.64051917  1
  O2-  O527  1  0.91750585  0.84188978  0.96543586  1
  O2-  O528  1  0.06764456  0.16689179  0.01839313  1
  O2-  O529  1  0.04383420  0.14450202  0.36560586  1
  O2-  O530  1  0.08300451  0.16330790  0.69460814  1
  O2-  O531  1  0.08216485  0.40265996  0.03292746  1
  O2-  O532  1  0.08313608  0.40224557  0.35314072  1
  O2-  O533  1  0.13792213  0.45013568  0.69337990  1
  O2-  O534  1  0.08543690  0.67601179  0.02627699  1
  O2-  O535  1  0.10679845  0.63527704  0.40528715  1
  O2-  O536  1  0.07966538  0.66936458  0.66276999  1
  O2-  O537  1  0.04901230  0.85368318  0.03623910  1
  O2-  O538  1  0.07311739  0.91064669  0.35246495  1
  O2-  O539  1  0.08024963  0.91289085  0.67841323  1
  O2-  O540  1  0.34879672  0.18363692  0.00814725  1
  O2-  O541  1  0.32804729  0.18164905  0.34886166  1
  O2-  O542  1  0.32822673  0.16869835  0.68304992  1
  O2-  O543  1  0.33905404  0.41164911  0.01538881  1
  O2-  O544  1  0.38296563  0.47942095  0.33733117  1
  O2-  O545  1  0.32487035  0.40957796  0.67468497  1
  O2-  O546  1  0.35673173  0.68093870  0.02262754  1
  O2-  O547  1  0.33220737  0.65833120  0.34106923  1
  O2-  O548  1  0.29041157  0.61627515  0.70235846  1
  O2-  O549  1  0.33781144  0.91616742  0.02264515  1
  O2-  O550  1  0.33053192  0.92530983  0.37615819  1
  O2-  O551  1  0.33356039  0.91523013  0.67613014  1
  O2-  O552  1  0.59471535  0.17048444  0.02529103  1
  O2-  O553  1  0.57952645  0.13976700  0.30185863  1
  O2-  O554  1  0.55041523  0.11177667  0.66760347  1
  O2-  O555  1  0.58679383  0.42262501  0.01985000  1
  O2-  O556  1  0.59249942  0.42860153  0.33525464  1
  O2-  O557  1  0.54857852  0.39875936  0.70250541  1
  O2-  O558  1  0.58281671  0.64640996  0.02886336  1
  O2-  O559  1  0.57551913  0.65237762  0.35925199  1
  O2-  O560  1  0.49047870  0.58537379  0.73140752  1
  O2-  O561  1  0.58782444  0.92439474  0.03402989  1
  O2-  O562  1  0.61945855  0.94388243  0.39411444  1
  O2-  O563  1  0.58422496  0.92710431  0.66590752  1
  O2-  O564  1  0.84714348  0.25398651  0.01896768  1
  O2-  O565  1  0.84474636  0.18109513  0.35934457  1
  O2-  O566  1  0.84083276  0.16704427  0.68863591  1
  O2-  O567  1  0.83415530  0.40766982  0.02925400  1
  O2-  O568  1  0.83185976  0.41755752  0.35371897  1
  O2-  O569  1  0.86733436  0.44091327  0.70119252  1
  O2-  O570  1  0.82303820  0.68849943  0.02351114  1
  O2-  O571  1  0.81408106  0.66114809  0.34987706  1
  O2-  O572  1  0.83073016  0.66084060  0.68624472  1
  O2-  O573  1  0.82679881  0.92735623  0.02355705  1
  O2-  O574  1  0.82526491  0.90906177  0.34667582  1
  O2-  O575  1  0.82194524  0.88579955  0.68192076  1
