# generated using pymatgen
data_H2O
_symmetry_space_group_name_H-M   'P 1'
_cell_length_a   17.98760383
_cell_length_b   17.98658900
_cell_length_c   22.01206669
_cell_angle_alpha   89.98938308
_cell_angle_beta   90.00315866
_cell_angle_gamma   119.98650358
_symmetry_Int_Tables_number   1
_chemical_formula_structural   H2O
_chemical_formula_sum   'H384 O192'
_cell_volume   6168.40124739
_cell_formula_units_Z   192
loop_
 _symmetry_equiv_pos_site_id
 _symmetry_equiv_pos_as_xyz
  1  'x, y, z'
loop_
 _atom_type_symbol
 _atom_type_oxidation_number
  H+  1.0
  O2-  -2.0
loop_
 _atom_site_type_symbol
 _atom_site_label
 _atom_site_symmetry_multiplicity
 _atom_site_fract_x
 _atom_site_fract_y
 _atom_site_fract_z
 _atom_site_occupancy
  H+  H0  1  0.27682462  0.38815732  0.49548676  1
  H+  H1  1  0.14076533  0.92680755  0.00507010  1
  H+  H2  1  0.16011212  0.60173524  0.98883535  1
  H+  H3  1  0.36614359  0.72634684  0.83122877  1
  H+  H4  1  0.71753609  0.60592410  0.17244125  1
  H+  H5  1  0.86734096  0.13883116  0.33051638  1
  H+  H6  1  0.25201174  0.41807597  0.68037670  1
  H+  H7  1  0.58128741  0.64268200  0.06315402  1
  H+  H8  1  0.05258713  0.59658950  0.13636242  1
  H+  H9  1  0.48469308  0.13492024  0.64550605  1
  H+  H10  1  0.86468621  0.51070200  0.17422764  1
  H+  H11  1  0.86607076  0.85055238  0.47724285  1
  H+  H12  1  0.46075044  0.11797671  0.16449056  1
  H+  H13  1  0.12490349  0.38411894  0.83246601  1
  H+  H14  1  0.98170210  0.38375222  0.16726402  1
  H+  H15  1  0.61453005  0.22770425  0.81463089  1
  H+  H16  1  0.50428187  0.44527644  0.69480994  1
  H+  H17  1  0.38232069  0.70041202  0.00469969  1
  H+  H18  1  0.07371025  0.10598563  0.17921225  1
  H+  H19  1  0.37072777  0.89275503  0.32792413  1
  H+  H20  1  0.54275404  0.39405434  0.66364854  1
  H+  H21  1  0.62625573  0.78911258  0.14867319  1
  H+  H22  1  0.29335923  0.61399683  0.00577798  1
  H+  H23  1  0.77310314  0.64216273  0.32878555  1
  H+  H24  1  0.59831184  0.14488395  0.16142180  1
  H+  H25  1  0.38309513  0.61965889  0.49166043  1
  H+  H26  1  0.11635127  0.89068440  0.68200068  1
  H+  H27  1  0.37633828  0.64486745  0.19848952  1
  H+  H28  1  0.14968934  0.50742665  0.83975813  1
  H+  H29  1  0.46535968  0.85757368  0.51964499  1
  H+  H30  1  0.37244502  0.31359400  0.58004077  1
  H+  H31  1  0.26400550  0.87625053  0.82719388  1
  H+  H32  1  0.39530453  0.78807405  0.18634746  1
  H+  H33  1  0.18621878  0.35623799  0.19783028  1
  H+  H34  1  0.73676614  0.36655988  0.33236738  1
  H+  H35  1  0.02033270  0.12655322  0.68021350  1
  H+  H36  1  0.85374696  0.71244609  0.47912110  1
  H+  H37  1  0.47563462  0.11118906  0.31532078  1
  H+  H38  1  -0.02512737  0.61501391  0.51852848  1
  H+  H39  1  0.76954330  0.89148961  0.83554281  1
  H+  H40  1  0.88990196  0.23888148  0.15106134  1
  H+  H41  1  0.02029364  0.64223687  0.81352034  1
  H+  H42  1  0.61255479  0.22623008  0.34116994  1
  H+  H43  1  0.10900549  0.73028412  0.66043954  1
  H+  H44  1  0.13871815  0.10031802  0.32350843  1
  H+  H45  1  0.87048305  0.89441687  0.68743736  1
  H+  H46  1  0.78531114  0.38789447  0.67013737  1
  H+  H47  1  0.10968008  0.00499276  0.18250473  1
  H+  H48  1  0.17465817  0.06287686  1.00440355  1
  H+  H49  1  0.36536075  0.27898120  0.29977464  1
  H+  H50  1  0.88516024  0.90797556  0.15679399  1
  H+  H51  1  0.08232790  0.79456828  0.97612826  1
  H+  H52  1  0.72314500  0.60603483  0.84253575  1
  H+  H53  1  0.88165976  0.90826823  1.00471421  1
  H+  H54  1  0.15304360  0.02142683  0.50090975  1
  H+  H55  1  0.58921114  -0.01052664  1.00043667  1
  H+  H56  1  0.85722443  0.22801135  0.68524538  1
  H+  H57  1  0.12688002  0.98943104  0.83877429  1
  H+  H58  1  0.10901902  0.72583470  0.33412563  1
  H+  H59  1  0.05492835  0.12716984  0.47518376  1
  H+  H60  1  0.36701699  0.80863766  0.99554114  1
  H+  H61  1  0.14842718  0.81797789  0.92069890  1
  H+  H62  1  0.27944868  0.64355932  0.47476505  1
  H+  H63  1  0.37572881  0.02437988  0.16582797  1
  H+  H64  1  0.64025397  0.40428799  -0.00025661  1
  H+  H65  1  0.61597711  0.14678542  0.66413895  1
  H+  H66  1  0.71656144  0.10046269  0.49879763  1
  H+  H67  1  0.64801263  0.88756667  0.66044249  1
  H+  H68  1  0.64424468  0.54237734  0.66323945  1
  H+  H69  1  0.41178325  0.35894147  0.98687486  1
  H+  H70  1  0.25151066  0.40596801  0.34679473  1
  H+  H71  1  0.64662540  0.77920218  0.29614985  1
  H+  H72  1  0.83241951  0.92201317  0.74252732  1
  H+  H73  1  -0.09982580  0.03262019  0.32151011  1
  H+  H74  1  0.48890634  0.61685955  0.83622667  1
  H+  H75  1  0.02700815  0.89383904  0.47472805  1
  H+  H76  1  0.63143593  0.48241797  0.34780092  1
  H+  H77  1  0.37694753  0.64293176  0.83333330  1
  H+  H78  1  0.36296642  0.68881863  0.25708726  1
  H+  H79  1  0.05685660  0.16712618  0.08134100  1
  H+  H80  1  0.61282518  0.90595017  0.14725777  1
  H+  H81  1  0.39507163  0.62475171  0.32785606  1
  H+  H82  1  0.57724065  0.78683637  0.87412624  1
  H+  H83  1  0.39006629  0.37133388  0.49482020  1
  H+  H84  1  0.88814469  0.52745268  0.83968490  1
  H+  H85  1  0.28109765  0.27363764  0.61170943  1
  H+  H86  1  0.42404693  0.86009332  0.23372164  1
  H+  H87  1  0.61360405  0.47196770  0.82622047  1
  H+  H88  1  0.63306274  0.76555715  0.52731881  1
  H+  H89  1  0.87562159  0.39117442  0.67240696  1
  H+  H90  1  0.86776122  0.63792059  0.85644752  1
  H+  H91  1  0.51135022  0.37048395  -0.01391460  1
  H+  H92  1  0.67331374  0.84639749  0.20546245  1
  H+  H93  1  0.66755474  0.08722944  0.59881322  1
  H+  H94  1  0.48365302  0.36134264  0.83682803  1
  H+  H95  1  0.97263746  0.85558152  0.17083162  1
  H+  H96  1  0.79030931  0.39129360  0.00404694  1
  H+  H97  1  0.58447494  0.65185303  0.25365075  1
  H+  H98  1  0.89600164  0.12114194  0.83650926  1
  H+  H99  1  0.62473489  0.89499722  0.82655894  1
  H+  H100  1  0.13532929  0.86373172  0.83823789  1
  H+  H101  1  0.85799488  -0.01901420  0.83384320  1
  H+  H102  1  0.87680757  0.12041775  0.99108328  1
  H+  H103  1  0.35736059  0.88459086  0.82783217  1
  H+  H104  1  0.04015002  0.89270291  0.33343277  1
  H+  H105  1  0.65250575  0.26252900  0.98370675  1
  H+  H106  1  0.60697253  0.87091186  0.50835589  1
  H+  H107  1  0.12960077  0.85856425  0.50426064  1
  H+  H108  1  0.21655320  0.85768829  0.66257326  1
  H+  H109  1  0.24100684  0.60766025  0.84455176  1
  H+  H110  1  0.98178147  0.36624904  0.66836273  1
  H+  H111  1  0.38101983  0.52806337  0.33352510  1
  H+  H112  1  0.08965291  0.16363982  0.77319470  1
  H+  H113  1  0.82988786  0.17399993  0.41753820  1
  H+  H114  1  0.07906662  0.67137579  0.75386097  1
  H+  H115  1  0.14967777  0.26880379  0.50205495  1
  H+  H116  1  0.34282102  0.42100607  0.90667967  1
  H+  H117  1  0.86174323  0.39049320  0.16124775  1
  H+  H118  1  0.23798228  0.11824370  0.84236906  1
  H+  H119  1  0.63716884  0.11741590  0.32436697  1
  H+  H120  1  0.63839922  0.50872738  0.17468919  1
  H+  H121  1  0.72830528  0.11983244  0.31837939  1
  H+  H122  1  0.32614906  0.46357756  0.17876840  1
  H+  H123  1  0.73947486  0.87001876  -0.00445580  1
  H+  H124  1  0.11097188  0.29236529  0.34255654  1
  H+  H125  1  0.61514438  0.63059928  0.52423961  1
  H+  H126  1  0.98444973  0.36718947  0.99976589  1
  H+  H127  1  0.45502860  0.57708815  0.17323910  1
  H+  H128  1  0.34354315  0.86472998  0.67180996  1
  H+  H129  1  0.26334496  0.43109784  0.64770041  1
  H+  H130  1  0.34252454  0.21827256  0.67034768  1
  H+  H131  1  0.75629840  0.87486989  0.48779497  1
  H+  H132  1  0.88369060  0.02643895  0.67302890  1
  H+  H133  1  0.64575787  0.51821227  0.51187304  1
  H+  H134  1  0.38345385  0.01807687  0.82564240  1
  H+  H135  1  0.15586742  0.84054278  0.60368988  1
  H+  H136  1  0.91102750  0.28016477  0.50648048  1
  H+  H137  1  0.89321359  0.36484824  0.32417955  1
  H+  H138  1  0.38846678  0.46393785  0.00052919  1
  H+  H139  1  0.35802792  0.36066759  0.30528975  1
  H+  H140  1  0.62097470  0.71827625  0.83299169  1
  H+  H141  1  0.78011992  0.39315952  0.82090930  1
  H+  H142  1  0.36112838  0.48105017  0.48944442  1
  H+  H143  1  0.90358902  0.52836229  -0.00210458  1
  H+  H144  1  0.94872898  0.60431005  0.17692522  1
  H+  H145  1  0.03405882  0.15769605  0.34062627  1
  H+  H146  1  0.62842153  0.04238249  0.16440606  1
  H+  H147  1  0.34490982  0.92285968  -0.01012498  1
  H+  H148  1  0.86053529  0.23245975  0.00415677  1
  H+  H149  1  0.88866679  0.86349589  0.32301488  1
  H+  H150  1  0.21883048  0.85100623  0.16802603  1
  H+  H151  1  0.78198254  0.89147151  0.32168011  1
  H+  H152  1  0.72289218  0.11920966  0.66103971  1
  H+  H153  1  0.12078904  0.47889824  0.67562662  1
  H+  H154  1  0.62935821  0.27418041  0.18070173  1
  H+  H155  1  0.73539223  0.88167593  0.66594944  1
  H+  H156  1  0.39998459  0.59331689  0.99598401  1
  H+  H157  1  0.24931251  0.62462515  0.20569937  1
  H+  H158  1  0.82279581  0.66989246  0.90281323  1
  H+  H159  1  0.14963850  0.50700113  0.99353501  1
  H+  H160  1  0.14250208  0.60772970  0.51144172  1
  H+  H161  1  0.67910593  0.09357909  0.92931094  1
  H+  H162  1  0.55244813  0.63548348  0.57294939  1
  H+  H163  1  0.60930739  -0.01484118  0.67029583  1
  H+  H164  1  0.22080371  0.86270522  0.51214913  1
  H+  H165  1  0.32838396  0.65780969  0.73411980  1
  H+  H166  1  0.22409069  0.10990174  0.66142681  1
  H+  H167  1  0.14426653  0.60829294  0.65239835  1
  H+  H168  1  0.47504686  0.10400976  0.82336282  1
  H+  H169  1  0.88952698  0.87322262  0.84399408  1
  H+  H170  1  0.10339853  0.38185842  0.67412755  1
  H+  H171  1  0.24716362  0.88985709  0.00047151  1
  H+  H172  1  0.86475640  0.62552626  0.49592806  1
  H+  H173  1  0.63906612  0.36144098  0.83170163  1
  H+  H174  1  0.35041770  -0.02951342  0.49615316  1
  H+  H175  1  0.92206553  0.66248807  0.01571549  1
  H+  H176  1  0.12851256  0.38547647  0.49186831  1
  H+  H177  1  0.47162076  0.94815275  0.88438852  1
  H+  H178  1  0.13860055  0.26742854  0.84735011  1
  H+  H179  1  0.51943150  0.67353133  0.68207018  1
  H+  H180  1  0.85182365  0.13770059  0.69024742  1
  H+  H181  1  0.90229519  0.38207048  0.84478573  1
  H+  H182  1  0.63586376  0.38955838  0.34946726  1
  H+  H183  1  0.65293833  0.77888747  1.00062443  1
  H+  H184  1  0.47101905  0.85852155  0.66255377  1
  H+  H185  1  0.22745222  0.34264225  1.00090603  1
  H+  H186  1  -0.00735906  0.87320759  0.68765892  1
  H+  H187  1  0.09408794  0.63067758  0.33938073  1
  H+  H188  1  0.09863892  0.24716155  0.65522118  1
  H+  H189  1  0.51582252  0.12637346  0.48865404  1
  H+  H190  1  0.52385669  0.90464113  0.15741888  1
  H+  H191  1  0.52482405  0.39394015  0.49266712  1
  H+  H192  1  0.76299148  0.61751382  0.49887373  1
  H+  H193  1  0.12999388  0.26401371  1.00828852  1
  H+  H194  1  0.47062166  0.85922006  -0.00276129  1
  H+  H195  1  0.60082853  0.13924458  0.00465426  1
  H+  H196  1  0.64926402  0.86956152  0.30108207  1
  H+  H197  1  0.59968773  0.42204124  0.41447476  1
  H+  H198  1  0.39040017  0.38541192  0.15388125  1
  H+  H199  1  0.49548126  0.51036935  0.12300885  1
  H+  H200  1  0.86361483  0.22644622  0.32791308  1
  H+  H201  1  0.48341788  0.87876100  0.32506646  1
  H+  H202  1  0.18109881  0.57696745  0.36276673  1
  H+  H203  1  0.35648153  0.13963564  0.32406895  1
  H+  H204  1  0.76541711  0.15397084  0.77675207  1
  H+  H205  1  0.10224631  0.39397631  0.17022775  1
  H+  H206  1  0.39266953  0.35822006  0.85164645  1
  H+  H207  1  0.92985357  0.80617606  0.99699611  1
  H+  H208  1  0.79752369  0.21888272  0.46341487  1
  H+  H209  1  0.39183807  0.12549726  0.64897986  1
  H+  H210  1  0.87612804  0.73423294  0.69552606  1
  H+  H211  1  1.02046561  0.63720366  0.65985853  1
  H+  H212  1  0.13576961  0.71685627  -0.00319300  1
  H+  H213  1  0.92676167  0.03893550  0.16574659  1
  H+  H214  1  0.62691098  0.98958033  0.31899223  1
  H+  H215  1  0.37480869  0.05039242  1.00850225  1
  H+  H216  1  0.12024080  0.37978814  0.01484593  1
  H+  H217  1  0.86715242  0.64327483  0.33095367  1
  H+  H218  1  0.13513270  0.75787216  0.16944503  1
  H+  H219  1  0.60698465  0.37840376  0.49865377  1
  H+  H220  1  0.74071288  0.62069615  0.66462301  1
  H+  H221  1  0.45393893  0.23234991  0.43171603  1
  H+  H222  1  0.72235746  0.12119909  -0.00660066  1
  H+  H223  1  0.29572512  0.66752479  0.33120964  1
  H+  H224  1  0.32371604  0.11665575  0.14484805  1
  H+  H225  1  0.63481688  0.60604200  0.82928557  1
  H+  H226  1  0.53777230  0.63480768  0.00110161  1
  H+  H227  1  0.13491699  0.02319114  0.66101505  1
  H+  H228  1  0.93745680  0.10972579  0.51412305  1
  H+  H229  1  0.87999987  0.39773370  0.01246434  1
  H+  H230  1  0.44227670  0.53881211  0.64812371  1
  H+  H231  1  0.67883134  0.03200651  0.83391397  1
  H+  H232  1  0.84181888  0.96470760  0.48641685  1
  H+  H233  1  0.41297528  0.56974542  0.24041252  1
  H+  H234  1  0.64631307  0.27566873  0.65897147  1
  H+  H235  1  0.88461076  0.61123927  0.66661949  1
  H+  H236  1  0.73453725  0.28199583  0.94650265  1
  H+  H237  1  0.84607140  0.63103998  0.16256681  1
  H+  H238  1  0.96662570  0.73566250  0.06490826  1
  H+  H239  1  0.12229643  0.49059482  0.16334534  1
  H+  H240  1  0.14385320  0.63271797  0.16346338  1
  H+  H241  1  0.88555218  0.52186042  0.66141648  1
  H+  H242  1  0.14635746  0.87085859  0.32300468  1
  H+  H243  1  1.11974736  0.13653607  0.83417569  1
  H+  H244  1  0.08732162  0.65919562  0.57533163  1
  H+  H245  1  0.65778833  0.09799102  0.22464357  1
  H+  H246  1  0.62971307  1.01166963  0.50910536  1
  H+  H247  1  0.60677346  0.12955232  0.49134307  1
  H+  H248  1  0.27209991  0.88951527  0.32353535  1
  H+  H249  1  0.63173335  0.48964172  -0.00139862  1
  H+  H250  1  1.00085588  0.36687935  0.50856739  1
  H+  H251  1  0.87781125  0.77350103  0.17320222  1
  H+  H252  1  0.12716993  0.76939073  0.82889929  1
  H+  H253  1  0.47903399  0.38942284  0.13347958  1
  H+  H254  1  0.88957713  0.39410925  0.49331666  1
  H+  H255  1  0.39476209  0.78351867  0.32572359  1
  H+  H256  1  0.61698432  0.26228904  0.50582607  1
  H+  H257  1  0.61152704  0.37897724  0.16087571  1
  H+  H258  1  0.37620283  0.13583963  0.99534643  1
  H+  H259  1  0.67484221  0.84311709  0.57392930  1
  H+  H260  1  0.36057041  0.71812418  0.67644615  1
  H+  H261  1  0.12988995  0.98941382  0.33016763  1
  H+  H262  1  0.05222926  0.92557114  0.00500836  1
  H+  H263  1  0.84972974  0.10423963  0.51042692  1
  H+  H264  1  0.36908430  0.21859950  0.82542477  1
  H+  H265  1  0.46744331  0.61269779  0.50453033  1
  H+  H266  1  0.12849384  0.47594835  0.48816260  1
  H+  H267  1  0.94217172  0.85868537  0.93513255  1
  H+  H268  1  0.11217381  0.13076550  0.67316265  1
  H+  H269  1  0.87038319  0.47802223  0.34200729  1
  H+  H270  1  0.37670320  0.38868174  0.66526343  1
  H+  H271  1  0.90719072  0.16037804  0.15018879  1
  H+  H272  1  0.23147550  0.10885990  0.15154475  1
  H+  H273  1  0.64581207  0.61396106  0.99060296  1
  H+  H274  1  0.03616542  0.26521736  0.61644170  1
  H+  H275  1  0.35746447  0.88745933  0.15671831  1
  H+  H276  1  0.86912259  0.99038553  0.00327568  1
  H+  H277  1  0.63864468  0.60413585  0.31766983  1
  H+  H278  1  0.41399663  0.08464257  0.25494390  1
  H+  H279  1  0.39678997  0.11895629  0.49075612  1
  H+  H280  1  0.39635885  0.53075362  0.84589648  1
  H+  H281  1  0.27368748  0.38113476  0.85649290  1
  H+  H282  1  0.52553519  0.63411219  0.31038858  1
  H+  H283  1  0.65862202  0.37015140  0.66138495  1
  H+  H284  1  0.36694829  0.12825125  0.82002931  1
  H+  H285  1  1.00903139  0.14608964  1.01711855  1
  H+  H286  1  0.58018766  0.68165253  0.76796569  1
  H+  H287  1  0.41879376  0.09259270  0.55573114  1
  H+  H288  1  0.82705347  0.91529185  0.38692861  1
  H+  H289  1  0.43703142  0.85473333  0.90841504  1
  H+  H290  1  0.11943607  0.66196649  0.05799840  1
  H+  H291  1  0.35931379  0.18810125  0.40679815  1
  H+  H292  1  0.18075135  0.56558285  0.90772705  1
  H+  H293  1  0.31878099  0.41969323  0.39857299  1
  H+  H294  1  0.11345380  0.49018655  0.33513320  1
  H+  H295  1  0.26190907  0.12841131  0.32890113  1
  H+  H296  1  0.84553733  0.42677528  0.76532397  1
  H+  H297  1  0.40662556  0.82024214  0.60606066  1
  H+  H298  1  0.23353308  0.60887006  0.66054481  1
  H+  H299  1  0.37922628  0.77159514  0.50507288  1
  H+  H300  1  0.84971524  0.41681203  0.40008997  1
  H+  H301  1  0.57797504  0.69373619  0.41450409  1
  H+  H302  1  0.15085961  0.06851432  0.24103411  1
  H+  H303  1  0.09534326  0.92016252  0.42153688  1
  H+  H304  1  0.33102744  0.16410288  0.73203965  1
  H+  H305  1  0.38099657  0.43748454  0.72730606  1
  H+  H306  1  0.09979006  0.41911505  0.77095686  1
  H+  H307  1  0.15237103  0.31841804  0.56302441  1
  H+  H308  1  0.43463124  0.57752665  0.93325978  1
  H+  H309  1  0.66003546  0.57654608  0.92837586  1
  H+  H310  1  0.67488963  0.32706310  0.88608412  1
  H+  H311  1  0.90369030  0.82640866  0.53200596  1
  H+  H312  1  0.03437915  0.90356596  0.83381289  1
  H+  H313  1  0.14422075  0.13226954  0.48747120  1
  H+  H314  1  0.83932712  0.17275670  0.06239814  1
  H+  H315  1  0.37927230  0.40061744  0.05464987  1
  H+  H316  1  0.99017273  0.38103542  0.84683357  1
  H+  H317  1  0.28254867  0.15014375  0.05522197  1
  H+  H318  1  0.58765832  0.92624727  0.72929012  1
  H+  H319  1  0.86941351  0.74417333  0.32536540  1
  H+  H320  1  0.90081482  0.08300045  0.61386018  1
  H+  H321  1  0.27137943  0.40682365  0.12418047  1
  H+  H322  1  0.08738581  0.91763112  0.10136798  1
  H+  H323  1  0.09802426  0.93023722  0.74373010  1
  H+  H324  1  0.57691884  0.41622166  0.76646266  1
  H+  H325  1  0.40023572  0.28672903  0.48696690  1
  H+  H326  1  0.60158790  0.41718867  0.09680573  1
  H+  H327  1  0.17572734  0.07744590  0.56144913  1
  H+  H328  1  0.98176778  0.11537129  0.83894574  1
  H+  H329  1  0.60373643  0.76368087  0.69020982  1
  H+  H330  1  0.12572095  0.34813942  0.25274220  1
  H+  H331  1  0.87420376  0.47359105  0.49201973  1
  H+  H332  1  0.83816640  0.66323655  0.74714414  1
  H+  H333  1  0.82920997  0.41904408  0.10271729  1
  H+  H334  1  0.90231499  0.58008227  0.27070228  1
  H+  H335  1  0.57819349  0.16107186  0.39707513  1
  H+  H336  1  0.67114073  0.33935403  0.27503277  1
  H+  H337  1  0.16666153  0.58032788  0.24891112  1
  H+  H338  1  0.66041605  0.82936869  0.91547024  1
  H+  H339  1  0.57467543  0.18192907  0.10298406  1
  H+  H340  1  0.86221350  0.94436187  0.09715316  1
  H+  H341  1  0.09316530  0.42086342  0.07047824  1
  H+  H342  1  0.93183176  0.83601466  0.63126951  1
  H+  H343  1  0.92006116  0.34312116  0.22501456  1
  H+  H344  1  0.31562528  0.89745486  0.72952970  1
  H+  H345  1  0.89475091  0.78686329  0.85025765  1
  H+  H346  1  0.94307175  0.09739215  0.26582123  1
  H+  H347  1  0.60295556  0.67043552  0.41398063  1
  H+  H348  1  1.00092882  0.60621559  0.99238885  1
  H+  H349  1  0.34862421  0.88207023  0.50425006  1
  H+  H350  1  0.58587520  0.17569453  0.72378160  1
  H+  H351  1  0.67015169  0.56607062  0.26700922  1
  H+  H352  1  0.44348811  0.32984851  0.92334031  1
  H+  H353  1  0.34577757  0.68404111  0.41727253  1
  H+  H354  1  0.92869696  0.33312969  0.60630297  1
  H+  H355  1  0.72161685  0.36090935  0.17938291  1
  H+  H356  1  0.58190668  0.57928332  0.15342906  1
  H+  H357  1  0.42722127  0.59043193  0.59528737  1
  H+  H358  1  0.08827472  0.39232698  0.40200409  1
  H+  H359  1  0.56337529  0.93811929  0.06432401  1
  H+  H360  1  0.91529520  0.09387795  0.93428115  1
  H+  H361  1  0.36854477  0.98788092  0.32011709  1
  H+  H362  1  0.68630863  0.58223531  0.57182358  1
  H+  H363  1  0.32003039  0.91336539  0.09835253  1
  H+  H364  1  0.10916932  0.18925435  0.39101298  1
  H+  H365  1  0.18340196  0.57605591  0.55980713  1
  H+  H366  1  0.63383288  0.15262413  0.80531665  1
  H+  H367  1  0.91773147  0.83329926  0.26257545  1
  H+  H368  1  0.55684644  0.88294547  0.45318715  1
  H+  H369  1  0.10351743  0.86805379  0.15665151  1
  H+  H370  1  0.83576002  0.67277832  0.10242118  1
  H+  H371  1  0.90279169  0.57881519  0.56843590  1
  H+  H372  1  -0.02831153  0.62154513  0.32592403  1
  H+  H373  1  0.54687437  0.91261198  0.83033539  1
  H+  H374  1  0.16116314  0.32099142  0.91007303  1
  H+  H375  1  0.19128347  0.10380720  0.90669936  1
  H+  H376  1  0.92878551  0.34962465  0.93893902  1
  H+  H377  1  0.65527176  0.32494265  0.56392357  1
  H+  H378  1  0.93068773  0.58374509  0.90022191  1
  H+  H379  1  0.16732049  0.83077086  0.26388492  1
  H+  H380  1  0.51939665  0.15406551  0.00751331  1
  H+  H381  1  0.11334234  0.72643211  0.52306929  1
  H+  H382  1  0.62499382  0.93268053  0.37323948  1
  H+  H383  1  0.97494203  0.35104761  0.32140939  1
  O2-  O384  1  0.04761335  0.14181864  0.16433132  1
  O2-  O385  1  0.11610751  0.16660914  0.47044584  1
  O2-  O386  1  0.08687573  0.16419078  0.81840947  1
  O2-  O387  1  0.08568792  0.43290123  0.14569012  1
  O2-  O388  1  0.09729889  0.41405075  0.47488282  1
  O2-  O389  1  0.10316182  0.42223352  0.81666525  1
  O2-  O390  1  0.10787852  0.64957305  0.13686011  1
  O2-  O391  1  0.08390161  0.66210734  0.53066734  1
  O2-  O392  1  0.07986245  0.67720412  0.79841054  1
  O2-  O393  1  0.07164278  0.89767899  0.14397010  1
  O2-  O394  1  0.08858036  0.91750083  0.46755272  1
  O2-  O395  1  0.09540923  0.92995282  0.82084853  1
  O2-  O396  1  0.28285824  0.13012823  0.12481149  1
  O2-  O397  1  0.39507259  0.20641015  0.44651861  1
  O2-  O398  1  0.33517456  0.16024551  0.80822273  1
  O2-  O399  1  0.28842748  0.40252107  0.16539014  1
  O2-  O400  1  0.33454358  0.41937002  0.47611459  1
  O2-  O401  1  0.33825469  0.41514611  0.86246889  1
  O2-  O402  1  0.35322919  0.68276601  0.21202705  1
  O2-  O403  1  0.34087086  0.67814398  0.46297732  1
  O2-  O404  1  0.33778600  0.66557088  0.82090614  1
  O2-  O405  1  0.32058810  0.91186025  0.14331261  1
  O2-  O406  1  0.31554237  0.90798319  0.48786061  1
  O2-  O407  1  0.32294328  0.90723267  0.80925064  1
  O2-  O408  1  0.56855918  0.17842010  0.14784890  1
  O2-  O409  1  0.57800015  0.15964161  0.47414719  1
  O2-  O410  1  0.58840201  0.16793620  0.79834238  1
  O2-  O411  1  0.58798631  0.41318487  0.14075441  1
  O2-  O412  1  0.58705415  0.41967252  0.48090569  1
  O2-  O413  1  0.58187155  0.41070665  0.81104685  1
  O2-  O414  1  0.53216423  0.57407460  0.12992528  1
  O2-  O415  1  0.57972852  0.65741807  0.53260433  1
  O2-  O416  1  0.58946583  0.66320136  0.81074857  1
  O2-  O417  1  0.58130836  0.93752467  0.13800660  1
  O2-  O418  1  0.57521500  0.90188887  0.49471585  1
  O2-  O419  1  0.60311687  0.93212393  0.80987522  1
  O2-  O420  1  0.87096524  0.18198620  0.13299193  1
  O2-  O421  1  0.82253664  0.18147801  0.46305482  1
  O2-  O422  1  0.73095816  0.15367491  0.81230022  1
  O2-  O423  1  0.82644425  0.41784401  0.14818081  1
  O2-  O424  1  0.85602441  0.41706640  0.47343685  1
  O2-  O425  1  0.84236869  0.42863330  0.81064387  1
  O2-  O426  1  0.82073132  0.66537649  0.14603264  1
  O2-  O427  1  0.82586298  0.64793296  0.47719492  1
  O2-  O428  1  0.83504158  0.67088604  0.85940487  1
  O2-  O429  1  0.87333848  0.95286574  0.14174922  1
  O2-  O430  1  0.81473517  0.90693127  0.46798079  1
  O2-  O431  1  0.82854020  0.91939571  0.82015771  1
  O2-  O432  1  0.13577120  0.06569921  0.19457647  1
  O2-  O433  1  0.18236678  0.08133135  0.51665435  1
  O2-  O434  1  0.17979804  0.09300809  0.86208565  1
  O2-  O435  1  0.12612150  0.33930695  0.20835313  1
  O2-  O436  1  0.17137292  0.32727379  0.51967836  1
  O2-  O437  1  0.16718479  0.32712784  0.86453610  1
  O2-  O438  1  0.18423732  0.59139382  0.20571134  1
  O2-  O439  1  0.17698606  0.57835898  0.51471286  1
  O2-  O440  1  0.18012643  0.56963664  0.86008218  1
  O2-  O441  1  0.15814943  0.81742424  0.18372721  1
  O2-  O442  1  0.15813011  0.83156108  0.52668549  1
  O2-  O443  1  0.15919978  0.82655379  0.85170421  1
  O2-  O444  1  0.40064837  0.08428453  0.18072475  1
  O2-  O445  1  0.41747991  0.08288796  0.50992536  1
  O2-  O446  1  0.41592653  0.07882663  0.83906391  1
  O2-  O447  1  0.43386154  0.40298749  0.12142936  1
  O2-  O448  1  0.41835379  0.33984314  0.51243088  1
  O2-  O449  1  0.42554283  0.32738464  0.85711189  1
  O2-  O450  1  0.40203472  0.56661455  0.19544220  1
  O2-  O451  1  0.40464415  0.58346619  0.51098589  1
  O2-  O452  1  0.42954366  0.59322486  0.85432607  1
  O2-  O453  1  0.41959951  0.85148165  0.18868979  1
  O2-  O454  1  0.40337595  0.82590045  0.52917731  1
  O2-  O455  1  0.45256063  0.89001007  0.86981370  1
  O2-  O456  1  0.65052511  0.10149362  0.18046008  1
  O2-  O457  1  0.66080842  0.07385548  0.51995253  1
  O2-  O458  1  0.72619661  0.08617409  0.85258530  1
  O2-  O459  1  0.66305471  0.33454122  0.19765670  1
  O2-  O460  1  0.63973461  0.32221631  0.52048072  1
  O2-  O461  1  0.67188141  0.33156277  0.84119804  1
  O2-  O462  1  0.66110577  0.56792478  0.19256304  1
  O2-  O463  1  0.68256011  0.57971914  0.52513498  1
  O2-  O464  1  0.65984581  0.57189229  0.84747954  1
  O2-  O465  1  0.66114669  0.84840621  0.16168648  1
  O2-  O466  1  0.66499452  0.83018411  0.52880147  1
  O2-  O467  1  0.63963837  0.81914385  0.86970489  1
  O2-  O468  1  0.95893865  0.10014712  0.18706958  1
  O2-  O469  1  0.87795956  0.07353952  0.52681114  1
  O2-  O470  1  0.91973757  0.08658274  0.85210516  1
  O2-  O471  1  0.91988853  0.34878860  0.18005276  1
  O2-  O472  1  0.94152263  0.33643060  0.52670415  1
  O2-  O473  1  0.93248847  0.35535673  0.86490850  1
  O2-  O474  1  0.88963507  0.57220684  0.19129176  1
  O2-  O475  1  0.91048447  0.58357104  0.52294783  1
  O2-  O476  1  0.91971581  0.58794475  0.85634805  1
  O2-  O477  1  0.91371305  0.83298942  0.18875137  1
  O2-  O478  1  0.89809577  0.81951334  0.48806648  1
  O2-  O479  1  0.92661089  0.84967762  0.85773444  1
  O2-  O480  1  0.16840418  0.07135649  0.30790475  1
  O2-  O481  1  0.16410603  0.08277763  0.64426252  1
  O2-  O482  1  0.20446421  0.12029081  0.98428073  1
  O2-  O483  1  0.13565932  0.35771706  0.33192739  1
  O2-  O484  1  0.09574103  0.29307604  0.63015175  1
  O2-  O485  1  0.16822475  0.32276703  0.98774490  1
  O2-  O486  1  0.13958435  0.55392755  0.32964860  1
  O2-  O487  1  0.17352294  0.57579464  0.64158759  1
  O2-  O488  1  0.18536723  0.56635911  0.97427276  1
  O2-  O489  1  0.17556477  0.83744821  0.30874596  1
  O2-  O490  1  0.15385460  0.83491280  0.64919059  1
  O2-  O491  1  0.14289059  0.81529267  0.96778320  1
  O2-  O492  1  0.41508427  0.07971319  0.30082776  1
  O2-  O493  1  0.42703268  0.10648080  0.62671200  1
  O2-  O494  1  0.41297220  0.10945768  0.99505555  1
  O2-  O495  1  0.38781551  0.33668863  0.28216319  1
  O2-  O496  1  0.34226869  0.30217880  0.62100097  1
  O2-  O497  1  0.44921765  0.33425044  0.97076639  1
  O2-  O498  1  0.41983989  0.58711691  0.31636030  1
  O2-  O499  1  0.46776828  0.59512071  0.62742254  1
  O2-  O500  1  0.43297503  0.56589488  0.97757325  1
  O2-  O501  1  0.42226061  0.84962506  0.31306190  1
  O2-  O502  1  0.40968885  0.82133195  0.65146249  1
  O2-  O503  1  0.41586394  0.80844849  0.97654365  1
  O2-  O504  1  0.66694073  0.08867415  0.30531418  1
  O2-  O505  1  0.66350978  0.08940946  0.64385521  1
  O2-  O506  1  0.66501603  0.09504828  0.97254685  1
  O2-  O507  1  0.67447317  0.34060403  0.32083248  1
  O2-  O508  1  0.68285168  0.33779148  0.64305247  1
  O2-  O509  1  0.70265829  0.30998483  0.95989355  1
  O2-  O510  1  0.67289521  0.57431717  0.31282313  1
  O2-  O511  1  0.68592858  0.59519922  0.64182703  1
  O2-  O512  1  0.67097354  0.57996160  0.97282031  1
  O2-  O513  1  0.68167646  0.84137407  0.28659619  1
  O2-  O514  1  0.67726370  0.85488926  0.64723506  1
  O2-  O515  1  0.67850835  0.83637297  0.98162911  1
  O2-  O516  1  0.93041443  0.09453930  0.31046078  1
  O2-  O517  1  0.91175185  0.08748677  0.65798657  1
  O2-  O518  1  0.91041430  0.09160535  0.97907357  1
  O2-  O519  1  0.91648121  0.32989049  0.30506486  1
  O2-  O520  1  0.92236878  0.33202775  0.65136792  1
  O2-  O521  1  0.92461112  0.34453574  0.98491304  1
  O2-  O522  1  0.90740122  0.58891097  0.31551898  1
  O2-  O523  1  0.91113194  0.58202745  0.64470317  1
  O2-  O524  1  0.94046704  0.58853069  0.98176614  1
  O2-  O525  1  0.91601110  0.82939864  0.30873188  1
  O2-  O526  1  0.92833448  0.83919696  0.67522185  1
  O2-  O527  1  0.95043052  0.86437701  0.98027651  1
  O2-  O528  1  0.06617125  0.17699587  0.03713213  1
  O2-  O529  1  0.09494528  0.20101184  0.34998316  1
  O2-  O530  1  0.08221377  0.16034442  0.69163061  1
  O2-  O531  1  0.09324426  0.41529789  0.02493067  1
  O2-  O532  1  0.07728018  0.38534162  0.35628308  1
  O2-  O533  1  0.08684760  0.42024355  0.69511930  1
  O2-  O534  1  0.11274132  0.65775377  0.01286095  1
  O2-  O535  1  0.06792197  0.66632951  0.34741205  1
  O2-  O536  1  0.08412569  0.66598272  0.66507073  1
  O2-  O537  1  0.11085357  0.95343607  0.02435915  1
  O2-  O538  1  0.10006018  0.92223412  0.34756608  1
  O2-  O539  1  0.08929342  0.92449013  0.69854578  1
  O2-  O540  1  0.29177541  0.16319462  0.00938888  1
  O2-  O541  1  0.32595286  0.16768245  0.34096613  1
  O2-  O542  1  0.32465857  0.16061848  0.68646122  1
  O2-  O543  1  0.36154760  0.40107565  0.01168155  1
  O2-  O544  1  0.31289836  0.42675889  0.35416973  1
  O2-  O545  1  0.41165364  0.44281901  0.68959719  1
  O2-  O546  1  0.35322461  0.64107447  0.02075264  1
  O2-  O547  1  0.35682637  0.69227136  0.33857790  1
  O2-  O548  1  0.32719950  0.65664120  0.68953285  1
  O2-  O549  1  0.30493117  0.92561731  0.01840716  1
  O2-  O550  1  0.33648071  0.92434974  0.33572717  1
  O2-  O551  1  0.30943598  0.89147445  0.68484616  1
  O2-  O552  1  0.58143550  0.17906906  0.01932725  1
  O2-  O553  1  0.58049949  0.16413940  0.35133779  1
  O2-  O554  1  0.58991954  0.18175925  0.67813425  1
  O2-  O555  1  0.60358873  0.42625985  0.01409411  1
  O2-  O556  1  0.60677853  0.42304221  0.36675582  1
  O2-  O557  1  0.55749093  0.43997470  0.69298849  1
  O2-  O558  1  0.59556373  0.66469925  0.02090146  1
  O2-  O559  1  0.58785543  0.66148015  0.29741842  1
  O2-  O560  1  0.55621801  0.71613598  0.71309133  1
  O2-  O561  1  0.54590566  0.93603265  0.02074437  1
  O2-  O562  1  0.60228403  0.92698332  0.33230693  1
  O2-  O563  1  0.58346613  0.92421957  0.68423171  1
  O2-  O564  1  0.82667976  0.17144324  0.01738334  1
  O2-  O565  1  0.83387163  0.16644555  0.34500774  1
  O2-  O566  1  0.82033715  0.16827453  0.70051998  1
  O2-  O567  1  0.84627207  0.42690318  0.02482887  1
  O2-  O568  1  0.84360874  0.41675479  0.35405922  1
  O2-  O569  1  0.84507633  0.42179545  0.68650815  1
  O2-  O570  1  0.91821130  0.71045027  0.03675716  1
  O2-  O571  1  0.83591284  0.67744736  0.34104939  1
  O2-  O572  1  0.84273745  0.67063893  0.70315889  1
  O2-  O573  1  0.84450945  0.93037263  0.01969841  1
  O2-  O574  1  0.83912139  0.91924066  0.34262191  1
  O2-  O575  1  0.83843322  0.92473836  0.69725425  1
