# generated using pymatgen
data_H2O
_symmetry_space_group_name_H-M   'P 1'
_cell_length_a   17.98839932
_cell_length_b   17.99712481
_cell_length_c   22.00407502
_cell_angle_alpha   89.98715360
_cell_angle_beta   90.02082136
_cell_angle_gamma   119.99386016
_symmetry_Int_Tables_number   1
_chemical_formula_structural   H2O
_chemical_formula_sum   'H384 O192'
_cell_volume   6169.58900225
_cell_formula_units_Z   192
loop_
 _symmetry_equiv_pos_site_id
 _symmetry_equiv_pos_as_xyz
  1  'x, y, z'
loop_
 _atom_type_symbol
 _atom_type_oxidation_number
  H+  1.0
  O2-  -2.0
loop_
 _atom_site_type_symbol
 _atom_site_label
 _atom_site_symmetry_multiplicity
 _atom_site_fract_x
 _atom_site_fract_y
 _atom_site_fract_z
 _atom_site_occupancy
  H+  H0  1  0.15435953  0.28540102  0.50403228  1
  H+  H1  1  0.72422767  0.61551521  0.17662613  1
  H+  H2  1  0.37738167  0.11465506  0.67057052  1
  H+  H3  1  0.88705557  0.25873407  0.50166612  1
  H+  H4  1  0.12301147  0.72914024  0.34698326  1
  H+  H5  1  0.44499859  0.09961597  0.52034084  1
  H+  H6  1  0.51609435  0.88364249  1.05552557  1
  H+  H7  1  0.21736623  0.85632347  0.51000958  1
  H+  H8  1  0.52547296  0.13710685  0.00765634  1
  H+  H9  1  0.73452589  0.37139595  0.17145840  1
  H+  H10  1  0.14347458  0.31999584  0.12460338  1
  H+  H11  1  0.29321477  0.38515320  0.33328607  1
  H+  H12  1  0.77761796  0.38968149  0.34665722  1
  H+  H13  1  0.61571925  0.73342211  0.15524902  1
  H+  H14  1  0.63117773  0.76977709  0.50644717  1
  H+  H15  1  0.72872833  0.85561701  0.83374437  1
  H+  H16  1  0.12653968  0.96736519  -0.00929342  1
  H+  H17  1  0.41949045  0.84058247  0.23160621  1
  H+  H18  1  0.98256103  0.86068695  0.50825206  1
  H+  H19  1  0.34202702  0.54604704  0.51052944  1
  H+  H20  1  0.14769762  0.86602638  0.32846499  1
  H+  H21  1  0.39255823  0.26537695  0.16069708  1
  H+  H22  1  0.60546803  0.00115598  0.97579968  1
  H+  H23  1  0.13889345  0.36437766  0.83971273  1
  H+  H24  1  0.31722845  0.15114828  0.44201551  1
  H+  H25  1  0.82308083  0.18830229  0.10717179  1
  H+  H26  1  0.61921872  0.89729326  0.66273200  1
  H+  H27  1  0.11043876  0.21233290  0.16588632  1
  H+  H28  1  0.13355767  0.62331834  0.17422888  1
  H+  H29  1  0.12430823  0.98255758  0.34117995  1
  H+  H30  1  0.51469447  0.39322413  0.50084781  1
  H+  H31  1  0.87890257  0.02401202  0.16438851  1
  H+  H32  1  0.23794393  0.86803768  0.17459823  1
  H+  H33  1  0.03501123  0.13816316  0.33289083  1
  H+  H34  1  0.73401198  0.61261478  0.51249519  1
  H+  H35  1  0.88698345  0.11264476  0.84230384  1
  H+  H36  1  0.50496691  0.63707476  0.33517305  1
  H+  H37  1  0.14579733  0.36871846  0.50690668  1
  H+  H38  1  0.39357492  0.02701531  0.84178374  1
  H+  H39  1  0.23188306  0.35376526  0.16159899  1
  H+  H40  1  0.86793130  0.89604724  0.33050699  1
  H+  H41  1  0.92466570  0.58089237  0.94232190  1
  H+  H42  1  0.86873188  0.72368071  0.50032679  1
  H+  H43  1  0.13980568  0.10823921  0.18243362  1
  H+  H44  1  0.56277251  0.66712170  0.76049292  1
  H+  H45  1  0.49254313  0.35743049  0.31385086  1
  H+  H46  1  0.61212087  0.88665244  0.49143988  1
  H+  H47  1  0.37451182  0.89256580  0.83418701  1
  H+  H48  1  0.26478661  0.62866527  0.68560300  1
  H+  H49  1  0.38940191  0.13116001  0.34562511  1
  H+  H50  1  0.82316229  0.91045661  0.09319072  1
  H+  H51  1  0.60100321  0.88468833  0.14308549  1
  H+  H52  1  0.00373359  0.07952238  0.01796644  1
  H+  H53  1  0.11913438  0.63291928  0.49878142  1
  H+  H54  1  0.39555299  0.37203318  0.67003153  1
  H+  H55  1  0.38065545  0.59832879  0.31469905  1
  H+  H56  1  0.60228668  0.64258459  0.66719645  1
  H+  H57  1  0.10552665  0.63317306  0.67597894  1
  H+  H58  1  0.88078561  0.11456757  0.16875869  1
  H+  H59  1  0.72887907  0.44713465  0.54350638  1
  H+  H60  1  0.63623621  0.05508776  0.84621732  1
  H+  H61  1  0.98431572  0.61436922  0.32507619  1
  H+  H62  1  0.77426157  0.88739537  0.66871314  1
  H+  H63  1  0.11119792  0.88599053  0.67811141  1
  H+  H64  1  0.27788801  0.14167158  0.83300272  1
  H+  H65  1  0.62295190  0.48443207  0.83785235  1
  H+  H66  1  0.35578362  0.36625236  0.16302778  1
  H+  H67  1  0.13530992  0.53483654  0.17393210  1
  H+  H68  1  0.27583079  0.38470867  0.82615465  1
  H+  H69  1  0.39016135  0.87479700  0.51269287  1
  H+  H70  1  0.89926909  0.27645669  0.33063127  1
  H+  H71  1  0.14095262  0.02070767  0.19010568  1
  H+  H72  1  0.92501632  0.86218475  0.90034725  1
  H+  H73  1  0.89177913  0.61477198  0.84494388  1
  H+  H74  1  0.02467474  0.37586728  0.49151468  1
  H+  H75  1  0.50031174  0.12185701  0.32751100  1
  H+  H76  1  0.61693734  0.22820583  0.15720589  1
  H+  H77  1  0.36785871  0.38575379  0.00880589  1
  H+  H78  1  0.11127461  0.88153598  0.49458501  1
  H+  H79  1  0.13938048  0.27558837  0.66344120  1
  H+  H80  1  1.02759665  0.38541275  0.34087193  1
  H+  H81  1  0.47872567  0.86174569  0.32184105  1
  H+  H82  1  0.97650552  0.11302620  0.84204208  1
  H+  H83  1  0.62779542  0.63088883  0.32032640  1
  H+  H84  1  0.82783935  0.67227078  0.10507381  1
  H+  H85  1  0.37957265  0.43689944  0.48933335  1
  H+  H86  1  0.01599255  0.88160745  0.18417386  1
  H+  H87  1  0.64787390  0.52691319  0.66678538  1
  H+  H88  1  0.09528275  0.26967224  0.99527377  1
  H+  H89  1  0.36110309  0.22971820  0.68342813  1
  H+  H90  1  0.37188677  0.74034404  0.01447180  1
  H+  H91  1  0.55837883  0.43013775  0.43751696  1
  H+  H92  1  0.13598177  0.51079402  0.51227012  1
  H+  H93  1  0.62887388  0.27235278  0.66327889  1
  H+  H94  1  0.86277192  0.72842605  0.67096225  1
  H+  H95  1  0.86296320  0.64139538  0.16216315  1
  H+  H96  1  0.72063107  0.85493076  0.49957611  1
  H+  H97  1  0.88325157  0.11158403  0.66642461  1
  H+  H98  1  0.36209643  0.64686707  0.15758414  1
  H+  H99  1  0.10894004  0.97439498  0.67801351  1
  H+  H100  1  0.78720529  0.38866861  0.49132793  1
  H+  H101  1  0.61764604  0.63861454  0.49895961  1
  H+  H102  1  0.39764720  0.02858784  0.99561772  1
  H+  H103  1  0.33261521  0.40540719  0.10622570  1
  H+  H104  1  0.86967155  -0.01123724  0.98655539  1
  H+  H105  1  0.86985577  0.13003271  0.49385886  1
  H+  H106  1  0.60197647  0.39273421  -0.00291137  1
  H+  H107  1  0.27708377  0.13062410  0.15953711  1
  H+  H108  1  0.89028703  0.36800972  0.84013479  1
  H+  H109  1  0.37504173  0.98283994  0.34669383  1
  H+  H110  1  0.52897264  0.90147848  0.66676223  1
  H+  H111  1  0.78108341  0.12986571  0.49100461  1
  H+  H112  1  0.63415871  0.53412223  0.99491631  1
  H+  H113  1  0.39587380  0.87221939  0.32536888  1
  H+  H114  1  0.87089951  0.37880177  0.49124943  1
  H+  H115  1  0.11449199  0.39866715  0.16581368  1
  H+  H116  1  0.49531440  0.04233577  0.45132805  1
  H+  H117  1  0.24570802  0.85807308  0.99614657  1
  H+  H118  1  0.63528275  0.84393564  0.82491920  1
  H+  H119  1  0.36829047  0.88979204  0.16193465  1
  H+  H120  1  0.02318140  0.14191117  0.67972343  1
  H+  H121  1  0.61775269  0.27174693  0.98965383  1
  H+  H122  1  0.13697717  0.08798604  0.00104343  1
  H+  H123  1  0.51708575  0.13763371  0.67353385  1
  H+  H124  1  0.02292074  0.39328424  0.16612863  1
  H+  H125  1  0.42323791  0.08735311  0.93525072  1
  H+  H126  1  -0.02182642  0.37254688  -0.00296556  1
  H+  H127  1  0.36309481  0.47269501  0.01257442  1
  H+  H128  1  0.22718675  0.61149278  0.84785606  1
  H+  H129  1  0.86558494  0.48461448  0.16782425  1
  H+  H130  1  0.51646563  0.08654152  0.46512614  1
  H+  H131  1  0.63988663  0.28324240  0.83381780  1
  H+  H132  1  0.89794783  0.52505440  0.32202003  1
  H+  H133  1  0.47826838  0.85090656  0.83265052  1
  H+  H134  1  0.88638326  0.02364257  0.66606567  1
  H+  H135  1  0.16295298  0.83168101  0.60706165  1
  H+  H136  1  0.61340591  0.94275197  0.81381370  1
  H+  H137  1  0.91973999  0.59021596  0.23190635  1
  H+  H138  1  0.27369811  0.89064891  0.68154402  1
  H+  H139  1  0.60373082  0.72750249  0.00069584  1
  H+  H140  1  0.98138631  0.61080488  0.50976621  1
  H+  H141  1  0.34174623  0.12832048  0.50600368  1
  H+  H142  1  0.02618533  0.38474536  0.68005752  1
  H+  H143  1  0.13038541  0.52046562  0.32504580  1
  H+  H144  1  0.62869568  0.10668717  0.16768118  1
  H+  H145  1  0.61111953  0.13204880  1.00792699  1
  H+  H146  1  -0.05373263  0.04845554  0.51760663  1
  H+  H147  1  0.66791519  0.09826525  0.90971493  1
  H+  H148  1  0.89509898  0.52072766  0.50658635  1
  H+  H149  1  0.86713028  0.39554796  0.17225621  1
  H+  H150  1  0.22089527  0.11457589  0.66749222  1
  H+  H151  1  0.88721689  0.14987213  0.33711104  1
  H+  H152  1  0.56942981  0.49645461  0.34421970  1
  H+  H153  1  0.41952033  0.33624998  0.89953854  1
  H+  H154  1  0.58396710  0.67307608  0.06191522  1
  H+  H155  1  0.35188948  0.66933860  0.48200699  1
  H+  H156  1  0.01830665  0.63660272  0.67685571  1
  H+  H157  1  0.11528486  0.38385458  0.67810196  1
  H+  H158  1  0.66730126  0.12625381  0.49160984  1
  H+  H159  1  0.27028654  0.64511087  0.16038832  1
  H+  H160  1  0.84005825  0.08849617  1.00613901  1
  H+  H161  1  0.36061351  0.72407908  0.84195209  1
  H+  H162  1  0.87244935  0.73829210  0.83317105  1
  H+  H163  1  0.40355795  0.88624216  0.66525242  1
  H+  H164  1  0.02663922  0.64098647  0.01695906  1
  H+  H165  1  0.85912895  0.22394766  0.67552229  1
  H+  H166  1  0.81470765  0.83937106  0.00703043  1
  H+  H167  1  0.86696762  0.47953986  0.82811818  1
  H+  H168  1  0.62642850  0.01669476  0.16043718  1
  H+  H169  1  0.40199343  0.90849331  0.01799436  1
  H+  H170  1  0.14232649  0.53377164  1.00031178  1
  H+  H171  1  0.11539564  0.72899766  0.16605579  1
  H+  H172  1  0.03191628  0.16812881  0.48443974  1
  H+  H173  1  0.47722838  0.36991910  0.99223227  1
  H+  H174  1  0.47519658  0.62913569  0.16330505  1
  H+  H175  1  0.61967534  0.09002220  0.32471566  1
  H+  H176  1  0.64054558  0.03108934  0.65683683  1
  H+  H177  1  0.51362781  0.64366646  0.66309939  1
  H+  H178  1  0.39137552  0.27660857  -0.00577497  1
  H+  H179  1  0.14697108  0.86423589  0.18413910  1
  H+  H180  1  0.14512043  0.27424159  0.32183907  1
  H+  H181  1  0.58435786  0.90598474  0.39612740  1
  H+  H182  1  0.32788860  0.91729007  0.43915867  1
  H+  H183  1  0.44014507  0.32388308  0.21741394  1
  H+  H184  1  0.76752955  0.38561203  0.67968742  1
  H+  H185  1  0.23698212  0.63017879  0.99495234  1
  H+  H186  1  0.12188905  0.10769145  0.51014971  1
  H+  H187  1  0.18678486  0.09228314  0.27269093  1
  H+  H188  1  0.17229433  0.33667296  0.60414303  1
  H+  H189  1  0.38534014  0.53100128  0.65947661  1
  H+  H190  1  0.63611885  0.11801959  0.65703414  1
  H+  H191  1  0.54649573  0.72236591  0.37419268  1
  H+  H192  1  0.03113023  0.89703776  0.83266364  1
  H+  H193  1  0.97834411  0.61117216  0.84271584  1
  H+  H194  1  0.37018497  0.98017839  0.16384766  1
  H+  H195  1  0.86021602  0.63531669  0.67135461  1
  H+  H196  1  0.88739393  0.28088391  0.18182928  1
  H+  H197  1  0.76782338  0.13882547  0.67269233  1
  H+  H198  1  0.37774980  0.61509512  0.66989922  1
  H+  H199  1  0.24525241  0.12122494  0.33266390  1
  H+  H200  1  0.63510694  0.52725792  0.17199954  1
  H+  H201  1  0.37046084  0.26532638  0.51050947  1
  H+  H202  1  0.89753048  0.03022599  0.32135346  1
  H+  H203  1  0.61772279  0.15626989  0.82962811  1
  H+  H204  1  0.83617865  0.41979204  0.07201590  1
  H+  H205  1  0.77801673  0.14653866  0.83484550  1
  H+  H206  1  0.86316829  0.38830200  0.01323137  1
  H+  H207  1  0.87715018  0.52262727  0.66316954  1
  H+  H208  1  0.86371774  0.97889124  0.82345423  1
  H+  H209  1  0.24034234  0.39032982  0.99323898  1
  H+  H210  1  0.09024408  0.22607891  0.00073385  1
  H+  H211  1  0.13031393  0.51941779  0.66930554  1
  H+  H212  1  0.35971886  0.60789225  0.99007398  1
  H+  H213  1  0.13020773  0.76658931  0.51208387  1
  H+  H214  1  0.72298606  0.87092331  0.16202647  1
  H+  H215  1  0.28422066  0.89413425  0.34463692  1
  H+  H216  1  0.75048740  0.64349782  1.00800794  1
  H+  H217  1  0.48257253  0.36862598  0.84209137  1
  H+  H218  1  0.13440819  0.77418520  0.66703139  1
  H+  H219  1  0.35851093  0.63354120  0.83728628  1
  H+  H220  1  0.37249756  0.14140767  1.00658983  1
  H+  H221  1  0.73604724  0.61253791  0.84793677  1
  H+  H222  1  0.63180877  0.27919783  0.35174830  1
  H+  H223  1  0.14492771  0.77722277  0.82568581  1
  H+  H224  1  0.11840067  0.38785093  0.33895651  1
  H+  H225  1  0.92477138  0.08736150  0.26117111  1
  H+  H226  1  0.75958095  0.65119621  0.34332244  1
  H+  H227  1  0.64152019  0.86798544  0.32095044  1
  H+  H228  1  0.86302705  0.88550310  0.67108934  1
  H+  H229  1  0.10819617  -0.03017974  0.49506898  1
  H+  H230  1  0.47010140  0.44211241  0.36310138  1
  H+  H231  1  0.07512324  0.90309489  0.24079931  1
  H+  H232  1  0.11419992  0.22852551  0.83524234  1
  H+  H233  1  0.85858760  0.88889860  0.15370452  1
  H+  H234  1  0.27937918  0.40660988  0.49154979  1
  H+  H235  1  0.62221651  0.19172805  0.30056771  1
  H+  H236  1  0.53478596  0.40248738  0.68147565  1
  H+  H237  1  0.60719060  -0.03768244  0.33486675  1
  H+  H238  1  0.86657485  0.63396240  0.49523179  1
  H+  H239  1  0.38236218  0.52294080  0.83837181  1
  H+  H240  1  0.11072350  0.13951360  0.67965121  1
  H+  H241  1  0.51288696  0.88441079  0.15345082  1
  H+  H242  1  0.38384998  0.77794371  0.17205133  1
  H+  H243  1  0.89086392  0.27915135  0.84177133  1
  H+  H244  1  0.20925492  0.10716371  0.51150336  1
  H+  H245  1  0.60247299  0.71516026  0.82254790  1
  H+  H246  1  0.34197326  -0.03056142  0.50169430  1
  H+  H247  1  0.61366302  0.64298998  0.15855262  1
  H+  H248  1  0.61788990  0.39487898  0.15066263  1
  H+  H249  1  0.08736595  0.41256037  0.43358070  1
  H+  H250  1  0.31647887  0.72897812  0.46119863  1
  H+  H251  1  -0.02297029  0.86845479  0.32494504  1
  H+  H252  1  0.42698073  0.25891444  0.30198337  1
  H+  H253  1  0.27936637  0.38834089  0.67500551  1
  H+  H254  1  0.63623483  0.78143909  0.65487375  1
  H+  H255  1  0.52615205  0.38848305  0.14933962  1
  H+  H256  1  0.64468404  0.37400563  0.83931818  1
  H+  H257  1  0.97602477  0.85922167  0.66608567  1
  H+  H258  1  0.74334241  0.86753471  1.00116160  1
  H+  H259  1  -0.02407044  0.62012819  0.17126671  1
  H+  H260  1  0.39118825  0.11152219  0.17580808  1
  H+  H261  1  0.64446371  0.39059782  0.50829249  1
  H+  H262  1  0.33543475  0.15853465  0.09835357  1
  H+  H263  1  0.63894940  0.52671823  0.51255783  1
  H+  H264  1  0.78708822  0.80468715  0.44565341  1
  H+  H265  1  0.64816301  0.23574290  0.46567276  1
  H+  H266  1  0.76051448  0.13630324  0.16180347  1
  H+  H267  1  0.64557773  0.78247228  0.31319829  1
  H+  H268  1  0.60612466  0.85826530  0.97200007  1
  H+  H269  1  0.96652045  0.42564008  0.61792806  1
  H+  H270  1  0.88022742  0.77384852  0.17111436  1
  H+  H271  1  0.41652045  0.59212211  0.22142528  1
  H+  H272  1  0.38989399  0.11499954  0.84174893  1
  H+  H273  1  0.88785357  0.38258235  0.66097206  1
  H+  H274  1  0.14122039  0.11806543  0.84369652  1
  H+  H275  1  0.26621387  0.61481023  0.32488399  1
  H+  H276  1  0.62071308  0.39639028  0.67909808  1
  H+  H277  1  0.46935759  0.61451853  0.83669659  1
  H+  H278  1  0.77875577  0.89675125  0.32885947  1
  H+  H279  1  0.48165084  0.11477240  0.17544517  1
  H+  H280  1  0.52363391  0.14458994  0.82665628  1
  H+  H281  1  0.02456606  0.38801397  0.83329635  1
  H+  H282  1  0.11783018  0.63788270  0.34441258  1
  H+  H283  1  0.65442344  0.83004565  0.92421137  1
  H+  H284  1  0.82219742  0.67524006  0.40068705  1
  H+  H285  1  0.39669415  0.51782674  0.31566215  1
  H+  H286  1  0.63154677  0.62430453  -0.00554021  1
  H+  H287  1  0.42736806  0.08406409  0.27298717  1
  H+  H288  1  0.08288616  0.67174688  0.10371932  1
  H+  H289  1  0.89409133  0.52450284  0.00203689  1
  H+  H290  1  0.90932033  0.06007577  0.93354686  1
  H+  H291  1  0.61797509  -0.02199110  0.48779421  1
  H+  H292  1  0.15846517  0.57492823  0.60813878  1
  H+  H293  1  0.88993206  0.87646631  0.83798676  1
  H+  H294  1  0.06384805  0.11408277  0.07740006  1
  H+  H295  1  0.18190443  0.35480528  0.89873113  1
  H+  H296  1  0.79175082  0.07729987  0.06726982  1
  H+  H297  1  0.36571634  0.59498708  0.57349379  1
  H+  H298  1  0.91100886  0.58028203  0.60201317  1
  H+  H299  1  0.13719159  0.51961366  0.84754831  1
  H+  H300  1  0.32293406  0.65717570  0.74542615  1
  H+  H301  1  0.09144862  0.43577672  0.07066408  1
  H+  H302  1  0.58386950  0.16642320  0.09907629  1
  H+  H303  1  0.43106115  0.85754494  0.60409725  1
  H+  H304  1  0.65279492  0.58762377  0.26683188  1
  H+  H305  1  0.42900200  0.33801793  0.61516484  1
  H+  H306  1  0.08992890  0.66341356  0.43908216  1
  H+  H307  1  0.91892603  0.08156359  0.57607687  1
  H+  H308  1  0.83102889  0.16719689  0.77290826  1
  H+  H309  1  0.11219625  0.63379111  0.83179717  1
  H+  H310  1  0.33802594  0.92254607  0.73918761  1
  H+  H311  1  0.39190540  0.07724004  0.58193792  1
  H+  H312  1  0.33563841  0.66085655  0.37692182  1
  H+  H313  1  0.15744604  0.58320017  0.26611889  1
  H+  H314  1  0.84206702  0.67860326  0.77447011  1
  H+  H315  1  0.75053299  0.62572656  0.66596548  1
  H+  H316  1  0.14768603  0.86763012  0.82611218  1
  H+  H317  1  0.67249793  0.08983600  0.55835730  1
  H+  H318  1  0.67292426  0.58733752  0.90457360  1
  H+  H319  1  0.83172465  0.41926501  0.73807360  1
  H+  H320  1  0.64557728  0.06030072  0.26383485  1
  H+  H321  1  0.35260619  0.92746680  0.06982651  1
  H+  H322  1  0.63181202  0.36438272  0.33248908  1
  H+  H323  1  0.57820878  0.65981344  0.44115124  1
  H+  H324  1  0.15774397  0.85579891  0.98423555  1
  H+  H325  1  0.46080405  0.85383731  0.90177147  1
  H+  H326  1  0.67827239  0.58572514  0.60252556  1
  H+  H327  1  0.58421612  0.42881938  0.05908117  1
  H+  H328  1  0.33910033  0.42966538  0.39485820  1
  H+  H329  1  0.83614289  0.91866354  0.76347167  1
  H+  H330  1  0.89351409  0.36433982  0.32978818  1
  H+  H331  1  0.12616567  0.14110224  0.33932065  1
  H+  H332  1  0.14327776  0.02988060  0.84192778  1
  H+  H333  1  0.89129483  0.75353429  0.96955133  1
  H+  H334  1  0.91348955  0.32156826  0.56005911  1
  H+  H335  1  0.36667371  0.38710339  0.82751925  1
  H+  H336  1  0.58218901  0.90257663  0.74839066  1
  H+  H337  1  0.37783628  0.02445500  0.67031318  1
  H+  H338  1  0.89076860  0.85480044  0.50553810  1
  H+  H339  1  0.15859480  0.08213009  0.60882367  1
  H+  H340  1  0.08558454  0.92267819  0.77177189  1
  H+  H341  1  0.01804216  0.12706747  0.16881899  1
  H+  H342  1  0.88261844  0.78385389  0.32774789  1
  H+  H343  1  0.64495772  0.18872868  0.40516079  1
  H+  H344  1  0.22975618  0.58227943  0.52909896  1
  H+  H345  1  0.13191512  0.42044811  0.00869812  1
  H+  H346  1  0.06869891  0.89189237  0.03493297  1
  H+  H347  1  0.08561826  0.41735891  0.77451505  1
  H+  H348  1  0.17255725  0.58548515  0.93002032  1
  H+  H349  1  0.47876569  0.87445049  0.50844071  1
  H+  H350  1  0.25670774  0.47126045  0.96163614  1
  H+  H351  1  0.28199143  0.13801179  0.00666605  1
  H+  H352  1  0.36872573  0.23033251  0.83117579  1
  H+  H353  1  0.70286657  0.07561906  0.99581870  1
  H+  H354  1  0.09003941  0.17689268  0.42695471  1
  H+  H355  1  0.64721477  0.32897856  0.92911635  1
  H+  H356  1  0.66577299  0.33950105  0.22477367  1
  H+  H357  1  0.85336639  0.17277810  0.39730494  1
  H+  H358  1  0.92063272  0.83133224  0.60422799  1
  H+  H359  1  0.34696264  0.32717756  0.54361723  1
  H+  H360  1  0.40928421  0.21385580  0.38515710  1
  H+  H361  1  0.66494182  0.84416276  0.22124254  1
  H+  H362  1  0.28372613  0.88981309  0.82418489  1
  H+  H363  1  0.38673299  0.57503959  0.92964634  1
  H+  H364  1  0.59274456  0.42938223  0.77627352  1
  H+  H365  1  0.67116681  0.83973110  0.59553600  1
  H+  H366  1  0.91856406  0.33874935  0.93989624  1
  H+  H367  1  0.17778671  0.08536013  0.93621789  1
  H+  H368  1  0.08094763  0.66037161  0.77131904  1
  H+  H369  1  0.90517390  0.83457509  0.22965382  1
  H+  H370  1  0.82746220  0.89699845  0.42003071  1
  H+  H371  1  0.57990727  0.16904105  0.73108416  1
  H+  H372  1  0.17074310  0.33417029  0.26391321  1
  H+  H373  1  0.77712146  0.39030464  0.82778784  1
  H+  H374  1  0.12120089  0.72662473  0.01625744  1
  H+  H375  1  0.66455750  0.34071357  0.60765292  1
  H+  H376  1  0.32852764  0.67744978  0.07125253  1
  H+  H377  1  0.84698161  0.42023952  0.39787978  1
  H+  H378  1  0.92427181  0.33952007  0.24132281  1
  H+  H379  1  0.08487446  0.17187899  0.77467163  1
  H+  H380  1  0.18151629  0.83536267  0.27167797  1
  H+  H381  1  0.33865995  0.41994522  0.73436040  1
  H+  H382  1  0.08642979  0.91632893  0.39627169  1
  H+  H383  1  0.32863125  0.16825100  0.74136300  1
  O2-  O384  1  0.07944928  0.14968374  0.15728826  1
  O2-  O385  1  0.09024133  0.18197364  0.47275159  1
  O2-  O386  1  0.08302740  0.16796615  0.81996010  1
  O2-  O387  1  0.08324999  0.42658842  0.14966703  1
  O2-  O388  1  0.08631875  0.40931075  0.47935950  1
  O2-  O389  1  0.08660592  0.41848916  0.81986812  1
  O2-  O390  1  0.08146372  0.66889499  0.15147959  1
  O2-  O391  1  0.08689529  0.66118435  0.48503778  1
  O2-  O392  1  0.08085508  0.66238880  0.81665393  1
  O2-  O393  1  0.07850482  0.91011534  0.19668801  1
  O2-  O394  1  0.08123100  0.91128186  0.47694649  1
  O2-  O395  1  0.09084706  0.92698085  0.81699202  1
  O2-  O396  1  0.33715215  0.15845982  0.14417337  1
  O2-  O397  1  0.31465268  0.15976825  0.48629707  1
  O2-  O398  1  0.33787661  0.16940204  0.81627106  1
  O2-  O399  1  0.32147913  0.39340810  0.15059368  1
  O2-  O400  1  0.33644246  0.44914285  0.47295503  1
  O2-  O401  1  0.33614138  0.41650933  0.81073509  1
  O2-  O402  1  0.32924441  0.67640097  0.14240268  1
  O2-  O403  1  0.34807653  0.70169570  0.44681748  1
  O2-  O404  1  0.32599452  0.66430156  0.82647493  1
  O2-  O405  1  0.33817187  0.92093778  0.14636640  1
  O2-  O406  1  0.31894473  0.91114180  0.48457557  1
  O2-  O407  1  0.34822615  0.92484873  0.81669449  1
  O2-  O408  1  0.58436161  0.16677350  0.14505675  1
  O2-  O409  1  0.67235032  0.20370574  0.44681496  1
  O2-  O410  1  0.58292936  0.17724526  0.80837588  1
  O2-  O411  1  0.58804651  0.42611436  0.13761597  1
  O2-  O412  1  0.57124051  0.42446472  0.48105968  1
  O2-  O413  1  0.58907205  0.42293583  0.82089577  1
  O2-  O414  1  0.58465491  0.67274150  0.14080026  1
  O2-  O415  1  0.58581880  0.66718805  0.48554565  1
  O2-  O416  1  0.55905691  0.65945700  0.80502880  1
  O2-  O417  1  0.56815259  0.91275678  0.12928554  1
  O2-  O418  1  0.58367805  0.91720922  0.47394172  1
  O2-  O419  1  0.57716690  0.88780813  0.79433685  1
  O2-  O420  1  0.82327705  0.17284697  0.14983537  1
  O2-  O421  1  0.84277342  0.16215138  0.47748943  1
  O2-  O422  1  0.83699247  0.17002617  0.81788903  1
  O2-  O423  1  0.83385312  0.42200019  0.15636070  1
  O2-  O424  1  0.84761214  0.41677896  0.47831144  1
  O2-  O425  1  0.83759497  0.41924138  0.81132412  1
  O2-  O426  1  0.83025646  0.67133717  0.15048854  1
  O2-  O427  1  0.83394062  0.66366080  0.48466643  1
  O2-  O428  1  0.84569852  0.67791015  0.81903649  1
  O2-  O429  1  0.82946998  0.92013915  0.13807273  1
  O2-  O430  1  0.81438214  0.86407395  0.45972487  1
  O2-  O431  1  0.83590220  0.91777843  0.80903512  1
  O2-  O432  1  0.17626411  0.08390305  0.19681001  1
  O2-  O433  1  0.14896852  0.07571326  0.52698548  1
  O2-  O434  1  0.17463104  0.09052059  0.85746457  1
  O2-  O435  1  0.16335846  0.32634218  0.16658560  1
  O2-  O436  1  0.18213766  0.34418156  0.52199161  1
  O2-  O437  1  0.17101034  0.33600954  0.85531772  1
  O2-  O438  1  0.16645047  0.59448963  0.18975126  1
  O2-  O439  1  0.16914612  0.56916370  0.53083562  1
  O2-  O440  1  0.16592805  0.58003216  0.86383614  1
  O2-  O441  1  0.17967996  0.83512936  0.19431538  1
  O2-  O442  1  0.15694698  0.82745834  0.52617918  1
  O2-  O443  1  0.18269419  0.83986650  0.82072516  1
  O2-  O444  1  0.42240609  0.08321184  0.19300781  1
  O2-  O445  1  0.38636687  0.07533964  0.53545691  1
  O2-  O446  1  0.42386090  0.08831842  0.85626268  1
  O2-  O447  1  0.42378943  0.32680003  0.17431797  1
  O2-  O448  1  0.39669872  0.32432219  0.52888664  1
  O2-  O449  1  0.42030929  0.33617981  0.85389759  1
  O2-  O450  1  0.41510526  0.60405483  0.17760301  1
  O2-  O451  1  0.33632596  0.58971934  0.53386493  1
  O2-  O452  1  0.40877509  0.58240081  0.85471713  1
  O2-  O453  1  0.41750000  0.83947262  0.18507311  1
  O2-  O454  1  0.42357798  0.85033906  0.53071271  1
  O2-  O455  1  0.43048130  0.83543992  0.86179711  1
  O2-  O456  1  0.65838569  0.07448267  0.18026593  1
  O2-  O457  1  0.67832869  0.08386306  0.51400578  1
  O2-  O458  1  0.67480004  0.11108043  0.86362771  1
  O2-  O459  1  0.66999582  0.33858663  0.18064869  1
  O2-  O460  1  0.69068973  0.38772992  0.53131576  1
  O2-  O461  1  0.67539287  0.34211769  0.85071358  1
  O2-  O462  1  0.66297918  0.58593861  0.19048503  1
  O2-  O463  1  0.67488016  0.58435844  0.53153648  1
  O2-  O464  1  0.67531309  0.57845002  0.86009834  1
  O2-  O465  1  0.66194788  0.84104438  0.17598148  1
  O2-  O466  1  0.66336349  0.83235555  0.51847282  1
  O2-  O467  1  0.66813996  0.82209778  0.84799360  1
  O2-  O468  1  0.91027536  0.08324716  0.18220944  1
  O2-  O469  1  0.92221214  0.08403465  0.53039984  1
  O2-  O470  1  0.91468852  0.07868265  0.85450454  1
  O2-  O471  1  0.92238918  0.34138073  0.19521265  1
  O2-  O472  1  0.91692283  0.32123716  0.51536914  1
  O2-  O473  1  0.92246518  0.33985537  0.85579232  1
  O2-  O474  1  0.91482497  0.59017627  0.18602124  1
  O2-  O475  1  0.91979524  0.58013932  0.52337633  1
  O2-  O476  1  0.91711698  0.57893900  0.85664167  1
  O2-  O477  1  0.90918776  0.83598405  0.18436190  1
  O2-  O478  1  0.92293353  0.83029220  0.52612960  1
  O2-  O479  1  0.92190977  0.84905443  0.85715519  1
  O2-  O480  1  0.18527613  0.09137391  0.31862039  1
  O2-  O481  1  0.15947798  0.08269025  0.65407700  1
  O2-  O482  1  0.18129362  0.07774672  0.98084803  1
  O2-  O483  1  0.17612249  0.33559098  0.30822716  1
  O2-  O484  1  0.17076879  0.33682580  0.64938007  1
  O2-  O485  1  0.20799485  0.41101442  0.96790103  1
  O2-  O486  1  0.15850659  0.58146890  0.31174965  1
  O2-  O487  1  0.15493670  0.57892621  0.65336884  1
  O2-  O488  1  0.17665295  0.59178411  0.97772574  1
  O2-  O489  1  0.18003397  0.83662821  0.31735248  1
  O2-  O490  1  0.16442008  0.83485232  0.65239782  1
  O2-  O491  1  0.18693148  0.82155567  0.98081558  1
  O2-  O492  1  0.43280616  0.08627160  0.31825541  1
  O2-  O493  1  0.40709753  0.08495954  0.65299770  1
  O2-  O494  1  0.42405869  0.08938091  0.98067858  1
  O2-  O495  1  0.47633451  0.30974321  0.28438723  1
  O2-  O496  1  0.42916944  0.34199871  0.65981060  1
  O2-  O497  1  0.41604172  0.33593838  0.97739694  1
  O2-  O498  1  0.42303036  0.57818153  0.30117272  1
  O2-  O499  1  0.40941872  0.59104192  0.64532082  1
  O2-  O500  1  0.35867219  0.55779802  0.97054573  1
  O2-  O501  1  0.42229157  0.84385698  0.30272392  1
  O2-  O502  1  0.43871823  0.86228655  0.64960450  1
  O2-  O503  1  0.47698943  0.86488477  1.01932530  1
  O2-  O504  1  0.64351793  0.05470517  0.30860999  1
  O2-  O505  1  0.67086297  0.09251521  0.64212472  1
  O2-  O506  1  0.64838431  0.06560183  0.97613234  1
  O2-  O507  1  0.66555406  0.34403031  0.35395945  1
  O2-  O508  1  0.66187607  0.33536192  0.65252384  1
  O2-  O509  1  0.61990053  0.32166208  0.96941793  1
  O2-  O510  1  0.64741204  0.58982305  0.31244328  1
  O2-  O511  1  0.68076045  0.58883462  0.64938210  1
  O2-  O512  1  0.66669290  0.59594562  0.98160787  1
  O2-  O513  1  0.67604998  0.84331999  0.30090757  1
  O2-  O514  1  0.67271002  0.84228165  0.64110601  1
  O2-  O515  1  0.64683063  0.83495939  0.96878748  1
  O2-  O516  1  0.93380326  0.09021808  0.30604610  1
  O2-  O517  1  0.91728557  0.08504401  0.65215170  1
  O2-  O518  1  0.90366808  0.05170617  0.97849747  1
  O2-  O519  1  0.92816259  0.33842918  0.31497186  1
  O2-  O520  1  0.93060176  0.37103980  0.63858823  1
  O2-  O521  1  0.91779508  0.33662980  0.98483104  1
  O2-  O522  1  0.92693198  0.58431719  0.30582934  1
  O2-  O523  1  0.90696605  0.58306071  0.64739642  1
  O2-  O524  1  0.92796031  0.58520577  0.98696903  1
  O2-  O525  1  0.91773748  0.84257931  0.30863935  1
  O2-  O526  1  0.91547601  0.82772920  0.64964474  1
  O2-  O527  1  0.85619275  0.76160914  0.99992593  1
  O2-  O528  1  0.05634918  0.08630609  0.03746835  1
  O2-  O529  1  0.09416674  0.17091373  0.35126932  1
  O2-  O530  1  0.08402493  0.17363020  0.69404558  1
  O2-  O531  1  0.09469576  0.44248973  0.02545455  1
  O2-  O532  1  0.08860251  0.41670306  0.35665138  1
  O2-  O533  1  0.08549813  0.41334801  0.69603993  1
  O2-  O534  1  0.08444052  0.67055891  0.03718034  1
  O2-  O535  1  0.09052105  0.66950711  0.36305872  1
  O2-  O536  1  0.07821697  0.66616552  0.69199862  1
  O2-  O537  1  0.09119074  0.90344711  -0.00630709  1
  O2-  O538  1  0.08901343  0.92010155  0.35086030  1
  O2-  O539  1  0.07787181  0.91376551  0.69267662  1
  O2-  O540  1  0.34235900  0.17143246  0.02273473  1
  O2-  O541  1  0.36203341  0.16622763  0.36362740  1
  O2-  O542  1  0.32638593  0.16842029  0.69535921  1
  O2-  O543  1  0.33746732  0.41349104  0.02875009  1
  O2-  O544  1  0.35060101  0.41884235  0.35250985  1
  O2-  O545  1  0.34047212  0.41949891  0.68852419  1
  O2-  O546  1  0.33004443  0.68035078  0.02447662  1
  O2-  O547  1  0.32689509  0.63486554  0.33571857  1
  O2-  O548  1  0.32401219  0.65174183  0.70067696  1
  O2-  O549  1  0.36103468  0.92928291  0.02462346  1
  O2-  O550  1  0.34260707  0.92321422  0.36350136  1
  O2-  O551  1  0.33497959  0.92611228  0.69378293  1
  O2-  O552  1  0.58570390  0.16606725  0.02403973  1
  O2-  O553  1  0.59222561  0.17369756  0.33934118  1
  O2-  O554  1  0.57906115  0.16878602  0.68539621  1
  O2-  O555  1  0.57962413  0.43050336  0.01393594  1
  O2-  O556  1  0.52494600  0.44216140  0.36480214  1
  O2-  O557  1  0.59748804  0.43440996  0.69216436  1
  O2-  O558  1  0.58255055  0.66890059  0.01672489  1
  O2-  O559  1  0.56103042  0.68062563  0.35805759  1
  O2-  O560  1  0.57514740  0.67622098  0.67800740  1
  O2-  O561  1  0.53709228  0.89702894  -0.03332833  1
  O2-  O562  1  0.58414747  0.90124027  0.35077429  1
  O2-  O563  1  0.59317596  0.92940586  0.68159006  1
  O2-  O564  1  0.80015149  0.10406197  0.02750219  1
  O2-  O565  1  0.85976997  0.18194968  0.35279179  1
  O2-  O566  1  0.82781491  0.16515905  0.69069963  1
  O2-  O567  1  0.83594996  0.42173368  0.02723870  1
  O2-  O568  1  0.84072260  0.41643090  0.35292044  1
  O2-  O569  1  0.82933172  0.41903099  0.69166634  1
  O2-  O570  1  0.81288864  0.67618499  0.02848201  1
  O2-  O571  1  0.81713951  0.69246225  0.35906244  1
  O2-  O572  1  0.82871776  0.66615393  0.68559349  1
  O2-  O573  1  0.80325050  0.88638784  0.01588509  1
  O2-  O574  1  0.83782790  0.92606783  0.34730309  1
  O2-  O575  1  0.83439353  0.91747502  0.68558913  1
