# generated using pymatgen
data_H2O
_symmetry_space_group_name_H-M   'P 1'
_cell_length_a   17.99451904
_cell_length_b   17.99409799
_cell_length_c   22.00801582
_cell_angle_alpha   89.97920662
_cell_angle_beta   90.02311793
_cell_angle_gamma   120.01344798
_symmetry_Int_Tables_number   1
_chemical_formula_structural   H2O
_chemical_formula_sum   'H384 O192'
_cell_volume   6170.53663853
_cell_formula_units_Z   192
loop_
 _symmetry_equiv_pos_site_id
 _symmetry_equiv_pos_as_xyz
  1  'x, y, z'
loop_
 _atom_type_symbol
 _atom_type_oxidation_number
  H+  1.0
  O2-  -2.0
loop_
 _atom_site_type_symbol
 _atom_site_label
 _atom_site_symmetry_multiplicity
 _atom_site_fract_x
 _atom_site_fract_y
 _atom_site_fract_z
 _atom_site_occupancy
  H+  H0  1  0.27030902  0.63795337  0.80708462  1
  H+  H1  1  0.91034648  0.37788499  0.48626914  1
  H+  H2  1  0.52856243  0.88523292  0.70656882  1
  H+  H3  1  0.41589321  0.56962591  0.82341578  1
  H+  H4  1  0.78898948  0.90369322  0.49854991  1
  H+  H5  1  0.16727194  0.12802050  0.31698867  1
  H+  H6  1  0.87952230  0.61448780  0.99522078  1
  H+  H7  1  0.61166675  0.38614448  0.34334523  1
  H+  H8  1  0.67446982  0.58098488  0.26769289  1
  H+  H9  1  0.83041555  0.67060535  0.73385782  1
  H+  H10  1  0.23829393  0.11673409  0.83739637  1
  H+  H11  1  0.15602492  0.31487571  0.55864064  1
  H+  H12  1  0.52571546  0.12930110  0.68020150  1
  H+  H13  1  0.14798410  0.02898579  0.31575836  1
  H+  H14  1  0.27384894  0.88158555  -0.00220200  1
  H+  H15  1  0.12834607  0.86059051  -0.00742488  1
  H+  H16  1  0.77559403  0.88618427  0.34468474  1
  H+  H17  1  0.14614748  0.21459091  0.68261739  1
  H+  H18  1  0.27547504  0.64273066  0.15986178  1
  H+  H19  1  0.89345503  0.86994543  0.50660368  1
  H+  H20  1  0.76759796  0.38136052  0.31683778  1
  H+  H21  1  0.02133418  0.35705689  0.68665244  1
  H+  H22  1  0.36492854  0.30537393  0.87213923  1
  H+  H23  1  0.86962472  0.64501774  0.15778442  1
  H+  H24  1  0.76843010  0.64004343  0.00345118  1
  H+  H25  1  0.10447166  0.26482589  0.84653956  1
  H+  H26  1  0.36663874  0.64417631  0.15990721  1
  H+  H27  1  0.73081523  0.10778888  1.00020009  1
  H+  H28  1  0.51867874  0.13280184  0.25943654  1
  H+  H29  1  0.62393005  0.89881917  0.49281567  1
  H+  H30  1  0.37566911  0.76809572  0.69498086  1
  H+  H31  1  0.35753113  0.21752208  0.50259717  1
  H+  H32  1  0.39005902  0.78119750  -0.00970017  1
  H+  H33  1  0.21686176  0.33903554  0.64305877  1
  H+  H34  1  0.61587897  0.64439469  0.82323223  1
  H+  H35  1  0.10506693  0.72768953  0.82702920  1
  H+  H36  1  0.63366885  0.85881990  0.99694551  1
  H+  H37  1  0.58232359  0.70261254  0.47552968  1
  H+  H38  1  0.10620434  -0.03219411  1.00996617  1
  H+  H39  1  0.13039787  0.09774333  0.51801385  1
  H+  H40  1  0.62807282  0.61369879  0.50281330  1
  H+  H41  1  0.61117059  0.22344903  0.68214735  1
  H+  H42  1  0.38951435  0.86902717  0.98680392  1
  H+  H43  1  0.27312582  0.37449202  0.33928177  1
  H+  H44  1  0.21701621  0.62227517  1.00038077  1
  H+  H45  1  0.85528232  0.40859071  0.28451025  1
  H+  H46  1  0.35789566  0.68696699  0.63717083  1
  H+  H47  1  0.10546615  0.13959523  0.16226161  1
  H+  H48  1  0.88508899  0.02085570  1.00275256  1
  H+  H49  1  0.14041089  0.53544925  0.17179511  1
  H+  H50  1  0.62890437  0.27569900  0.51769922  1
  H+  H51  1  0.35505544  0.88930738  0.69899230  1
  H+  H52  1  0.11563860  0.63758089  0.48446085  1
  H+  H53  1  0.13949568  0.52942146  0.82794727  1
  H+  H54  1  0.13527463  0.10840594  0.99984263  1
  H+  H55  1  0.53017441  0.38650411  0.16582926  1
  H+  H56  1  0.01628380  0.39559338  0.01181600  1
  H+  H57  1  0.86307759  0.38945491  0.00480285  1
  H+  H58  1  0.13374024  0.55015600  0.65057698  1
  H+  H59  1  0.47392314  0.35988289  0.50855050  1
  H+  H60  1  0.86450092  0.48084107  0.00576553  1
  H+  H61  1  0.14399594  0.62724339  0.17140237  1
  H+  H62  1  0.11352807  0.89048712  0.81973655  1
  H+  H63  1  0.58183084  0.82698961  0.34435530  1
  H+  H64  1  0.21494632  0.86253905  0.84428611  1
  H+  H65  1  0.51925957  0.63587920  0.66949944  1
  H+  H66  1  0.84149392  0.92556546  0.43564662  1
  H+  H67  1  0.92198156  0.84077229  0.25970392  1
  H+  H68  1  0.12336925  0.43114948  0.68388437  1
  H+  H69  1  0.37477302  0.99470841  0.83736404  1
  H+  H70  1  0.13526140  0.78258591  0.32020944  1
  H+  H71  1  0.41987511  0.40227118  0.89071599  1
  H+  H72  1  0.61485258  -0.02788329  1.00592071  1
  H+  H73  1  0.60952041  0.48274497  0.49904526  1
  H+  H74  1  0.59489781  0.42862581  0.07200522  1
  H+  H75  1  0.91585108  0.07881849  0.94344130  1
  H+  H76  1  0.97531161  0.86178788  0.99504852  1
  H+  H77  1  0.12480183  0.74579482  0.15811467  1
  H+  H78  1  0.02996627  0.90656708  0.32472375  1
  H+  H79  1  0.61991453  0.47872699  0.34144963  1
  H+  H80  1  0.51048759  0.12949920  0.33115908  1
  H+  H81  1  0.10714638  0.38519574  0.84303861  1
  H+  H82  1  0.10008266  -0.03132997  0.15046012  1
  H+  H83  1  0.14084587  0.78755752  0.66699528  1
  H+  H84  1  0.10956632  0.64153180  0.00945291  1
  H+  H85  1  0.37066793  0.77434655  0.83328052  1
  H+  H86  1  0.64299096  0.60721543  0.16948144  1
  H+  H87  1  0.37388122  0.25788094  0.66055315  1
  H+  H88  1  0.51598756  0.63694047  0.99941905  1
  H+  H89  1  0.97456658  0.62119079  0.83841036  1
  H+  H90  1  0.37252502  0.71500063  0.48597913  1
  H+  H91  1  1.01851995  0.87804157  0.50143856  1
  H+  H92  1  0.88701626  0.61624326  0.66184156  1
  H+  H93  1  0.86594918  0.13968854  0.01182654  1
  H+  H94  1  -0.02362907  0.12074295  0.51424364  1
  H+  H95  1  0.88458590  0.77580209  0.50781307  1
  H+  H96  1  0.64244470  0.60852804  0.32756506  1
  H+  H97  1  0.38536799  0.10707981  1.00810345  1
  H+  H98  1  0.29237589  0.45330954  0.79675565  1
  H+  H99  1  0.30340671  0.08179573  0.16692714  1
  H+  H100  1  0.52765160  0.39053406  0.83580042  1
  H+  H101  1  0.63773435  0.02946583  0.45181040  1
  H+  H102  1  0.60436643  0.21926136  0.83426003  1
  H+  H103  1  0.07704480  0.67232563  0.76586536  1
  H+  H104  1  0.13002559  0.26446110  0.17319471  1
  H+  H105  1  0.26831307  0.13103216  0.01897046  1
  H+  H106  1  0.11545087  0.21597651  0.01249544  1
  H+  H107  1  0.87910558  0.27078908  -0.00481242  1
  H+  H108  1  0.02600442  0.64905423  0.67074826  1
  H+  H109  1  0.86138262  0.64558366  0.82861031  1
  H+  H110  1  0.63597899  0.21618199  0.14905506  1
  H+  H111  1  0.39867403  1.03117407  0.37340316  1
  H+  H112  1  -0.03340622  0.10640363  0.84560054  1
  H+  H113  1  0.36872481  0.62372394  0.49129880  1
  H+  H114  1  0.59991073  0.47134563  0.67837126  1
  H+  H115  1  0.17698450  0.58925266  0.26516334  1
  H+  H116  1  0.35673094  0.87632203  0.49636488  1
  H+  H117  1  0.48407738  0.87402771  0.32073266  1
  H+  H118  1  0.60721398  0.13930728  0.46540403  1
  H+  H119  1  0.28918424  0.13890171  0.33969475  1
  H+  H120  1  0.27738471  0.91024379  0.17524308  1
  H+  H121  1  0.11325474  0.21666307  0.49554018  1
  H+  H122  1  0.38165775  0.10271734  0.51321703  1
  H+  H123  1  0.85290514  0.41756866  0.87839604  1
  H+  H124  1  -0.01214250  0.63558498  0.17015454  1
  H+  H125  1  0.51316734  0.88296838  0.15174675  1
  H+  H126  1  0.54864179  0.75787923  0.21185486  1
  H+  H127  1  0.77013715  0.64476985  0.49613217  1
  H+  H128  1  1.03576252  0.37676947  0.33121786  1
  H+  H129  1  0.33988195  0.40085901  0.80405295  1
  H+  H130  1  0.87705561  0.09908307  0.85075663  1
  H+  H131  1  0.65064616  0.12759219  0.84832457  1
  H+  H132  1  0.86762224  -0.02316389  0.83065200  1
  H+  H133  1  0.35966201  0.64785728  1.00534049  1
  H+  H134  1  0.36442840  0.89887953  0.34241775  1
  H+  H135  1  0.89332219  0.27067290  0.67854368  1
  H+  H136  1  0.11671618  0.90350387  0.32772562  1
  H+  H137  1  0.48335804  0.36739176  0.33158529  1
  H+  H138  1  0.26016535  0.10330277  0.67439569  1
  H+  H139  1  0.35164162  0.35779949  0.17541384  1
  H+  H140  1  0.90078509  0.28527906  0.48875850  1
  H+  H141  1  0.79291386  0.15807429  0.32586517  1
  H+  H142  1  0.51054218  0.38106334  0.68020474  1
  H+  H143  1  0.65129587  0.78278119  0.83914222  1
  H+  H144  1  0.35446430  0.46588285  0.65315724  1
  H+  H145  1  0.63926889  0.52917421  0.83750621  1
  H+  H146  1  0.34556056  0.65501774  0.39556358  1
  H+  H147  1  0.72496411  0.11929355  0.45000169  1
  H+  H148  1  0.67106939  0.83236308  0.94001944  1
  H+  H149  1  0.98153844  0.86868994  0.83786222  1
  H+  H150  1  0.66529345  0.80028059  0.52224391  1
  H+  H151  1  0.11899083  0.65671778  0.66915886  1
  H+  H152  1  0.76461650  0.38277144  0.84436341  1
  H+  H153  1  0.73292045  0.36893088  0.99924673  1
  H+  H154  1  0.07967389  0.17620197  0.76361908  1
  H+  H155  1  0.62826210  0.36268772  0.52127199  1
  H+  H156  1  0.91356088  0.36868501  0.68059943  1
  H+  H157  1  0.63652084  0.77788905  0.66189108  1
  H+  H158  1  0.47801809  0.59939158  0.49882613  1
  H+  H159  1  0.61968127  0.34671313  0.67547679  1
  H+  H160  1  0.13647452  0.35552183  0.49890587  1
  H+  H161  1  0.88637560  0.53191166  0.33881283  1
  H+  H162  1  0.29710499  0.64125203  0.33321059  1
  H+  H163  1  0.47919662  0.10125101  0.83719979  1
  H+  H164  1  0.72640142  0.62044478  0.83859950  1
  H+  H165  1  0.97906861  0.35934891  0.83827960  1
  H+  H166  1  0.62071969  0.47727738  0.16608243  1
  H+  H167  1  0.86182960  0.88892893  0.67415849  1
  H+  H168  1  0.23762484  0.35079017  1.00195117  1
  H+  H169  1  0.42952949  0.12940827  0.18189217  1
  H+  H170  1  0.62845425  0.61017338  -0.01074238  1
  H+  H171  1  0.63631900  0.01630596  0.69947099  1
  H+  H172  1  0.91630874  0.36040055  0.33435310  1
  H+  H173  1  0.00623814  0.19984419  0.77217437  1
  H+  H174  1  0.86219520  0.73455147  0.82775991  1
  H+  H175  1  0.19922258  0.34017870  0.84289754  1
  H+  H176  1  0.77101431  0.88300131  1.01139360  1
  H+  H177  1  0.21949989  0.09883903  0.51881526  1
  H+  H178  1  0.12912851  0.77247031  -0.00916340  1
  H+  H179  1  0.62536890  0.11644388  0.30419922  1
  H+  H180  1  0.17261164  0.08536699  0.94095744  1
  H+  H181  1  0.65034231  0.32136426  0.61534293  1
  H+  H182  1  0.02128544  0.12939644  0.01221653  1
  H+  H183  1  0.11965943  -0.01817313  0.82284857  1
  H+  H184  1  0.02931733  0.39299567  0.17073128  1
  H+  H185  1  0.12441931  0.47308170  0.48460445  1
  H+  H186  1  0.13093870  0.87575225  0.16310561  1
  H+  H187  1  0.01969490  0.64155712  0.01064895  1
  H+  H188  1  0.36069982  0.89910225  0.17091695  1
  H+  H189  1  0.89036238  0.24590238  0.32785556  1
  H+  H190  1  0.87707494  0.48621769  0.48282905  1
  H+  H191  1  0.15266456  0.12060934  0.83812852  1
  H+  H192  1  0.26908942  0.37538356  0.49208648  1
  H+  H193  1  0.13656942  0.34927979  0.32658319  1
  H+  H194  1  0.39022180  0.36047958  0.33032788  1
  H+  H195  1  0.06282604  0.07884311  0.35998822  1
  H+  H196  1  0.13333649  0.25710465  0.32867458  1
  H+  H197  1  0.38941289  0.64252440  0.82470874  1
  H+  H198  1  0.48842514  0.36150971  1.01802877  1
  H+  H199  1  0.73414485  0.61175684  0.17129670  1
  H+  H200  1  0.88686838  0.61973674  0.50676314  1
  H+  H201  1  0.36089410  -0.02932871  1.00380505  1
  H+  H202  1  0.37977991  0.38372171  1.02971757  1
  H+  H203  1  0.87918792  0.88459309  0.16152156  1
  H+  H204  1  0.66051306  0.07511361  0.35064410  1
  H+  H205  1  0.77862686  0.13654067  0.83582825  1
  H+  H206  1  0.88693426  0.11914001  0.32390709  1
  H+  H207  1  0.53057567  0.62453615  0.33676333  1
  H+  H208  1  0.86102109  0.14254982  0.48474828  1
  H+  H209  1  0.88984797  1.03364925  0.50953241  1
  H+  H210  1  0.12504757  0.76501857  0.49076572  1
  H+  H211  1  0.60411185  0.84308273  0.17592669  1
  H+  H212  1  0.39048128  0.26154442  0.18530743  1
  H+  H213  1  0.87845003  0.02444450  0.66329160  1
  H+  H214  1  0.85369597  0.12554076  0.68005904  1
  H+  H215  1  0.39203080  0.51330677  0.32185426  1
  H+  H216  1  0.90259937  0.37169772  0.18196716  1
  H+  H217  1  0.63243273  0.35946872  0.84667245  1
  H+  H218  1  0.87311211  0.21617248  0.83064997  1
  H+  H219  1  0.35974726  0.21862396  0.02839843  1
  H+  H220  1  0.39715970  0.60443310  0.32309423  1
  H+  H221  1  0.12290477  0.31942357  0.65954787  1
  H+  H222  1  0.00399601  0.11647241  0.34141732  1
  H+  H223  1  0.64107531  0.10587899  -0.00450055  1
  H+  H224  1  0.41697791  0.07514778  0.60490440  1
  H+  H225  1  0.85981659  0.72690784  0.67363823  1
  H+  H226  1  0.78080253  0.64618967  0.34029686  1
  H+  H227  1  0.88733253  0.02025952  0.17424244  1
  H+  H228  1  0.97229150  0.11248202  0.17480394  1
  H+  H229  1  0.47047205  0.10286911  0.51079741  1
  H+  H230  1  0.87557261  0.23558405  0.16257924  1
  H+  H231  1  0.24478686  0.35333808  0.17617676  1
  H+  H232  1  0.60671685  0.72551363  0.00149487  1
  H+  H233  1  0.47850491  0.61111468  0.16565879  1
  H+  H234  1  0.61713730  0.22054789  0.00728055  1
  H+  H235  1  0.61563134  0.48149862  0.00813373  1
  H+  H236  1  0.38746280  0.10012340  0.83053652  1
  H+  H237  1  0.85873791  0.72888173  0.00271777  1
  H+  H238  1  0.12834775  0.53300292  0.00209937  1
  H+  H239  1  0.38356191  0.47427196  0.03358302  1
  H+  H240  1  0.13853403  0.61777566  0.82516802  1
  H+  H241  1  0.89416450  0.77987654  0.16907293  1
  H+  H242  1  0.64002519  0.75452334  0.33447501  1
  H+  H243  1  0.74200767  0.86988406  0.84397076  1
  H+  H244  1  0.23565956  0.62431583  0.65294220  1
  H+  H245  1  0.86861220  0.73741029  0.33886511  1
  H+  H246  1  0.40166222  0.12139469  0.37284305  1
  H+  H247  1  0.35876645  0.37621363  0.49405122  1
  H+  H248  1  0.02829883  0.64030635  0.34291496  1
  H+  H249  1  0.32688097  0.15945436  0.44389102  1
  H+  H250  1  0.37522947  0.59475649  0.65440850  1
  H+  H251  1  0.12936857  0.12056446  0.69766093  1
  H+  H252  1  0.48693391  0.95397701  0.28875135  1
  H+  H253  1  0.88409430  0.34492984  0.83104587  1
  H+  H254  1  0.21443201  0.11805202  0.16477025  1
  H+  H255  1  0.97816790  0.87390866  0.65817091  1
  H+  H256  1  0.35503902  0.87921054  0.83646601  1
  H+  H257  1  0.35705449  0.12009672  0.66896582  1
  H+  H258  1  0.65786719  0.81611661  0.27706170  1
  H+  H259  1  0.61621947  0.88729767  0.68938972  1
  H+  H260  1  0.89268163  0.48990966  0.68435006  1
  H+  H261  1  0.47328934  0.10738742  0.99987890  1
  H+  H262  1  0.08430344  0.66553983  0.42483645  1
  H+  H263  1  0.89292908  0.62150987  0.35507347  1
  H+  H264  1  0.63703704  0.11207390  0.69207841  1
  H+  H265  1  0.61643615  0.25984992  0.30184026  1
  H+  H266  1  0.79221821  0.39846813  0.15497185  1
  H+  H267  1  0.11979055  0.39715238  0.16563112  1
  H+  H268  1  0.22267043  0.87089847  0.32411320  1
  H+  H269  1  0.38366413  0.21421553  0.80704218  1
  H+  H270  1  0.97517044  0.61917239  0.50350035  1
  H+  H271  1  0.37392214  0.23013952  0.34854671  1
  H+  H272  1  0.53689119  0.66297191  0.82466414  1
  H+  H273  1  0.89175675  0.87051713  0.31992834  1
  H+  H274  1  0.87046686  0.88945402  0.82659355  1
  H+  H275  1  0.15159296  0.52451600  0.32067221  1
  H+  H276  1  0.48761290  0.86462200  0.49427741  1
  H+  H277  1  0.38623865  1.02118843  0.66788076  1
  H+  H278  1  0.34240415  0.53029965  0.96564902  1
  H+  H279  1  0.62084337  -0.00847463  0.16863851  1
  H+  H280  1  0.63100562  0.61072960  0.66185752  1
  H+  H281  1  0.11568803  0.86672919  0.49741261  1
  H+  H282  1  0.23183373  0.61295562  0.49756747  1
  H+  H283  1  0.74099840  0.11467668  0.69386648  1
  H+  H284  1  0.64208092  0.36815674  1.00178690  1
  H+  H285  1  0.67970813  0.33118093  0.09200782  1
  H+  H286  1  0.37316053  0.34686196  0.65538450  1
  H+  H287  1  0.90284036  0.54484892  0.17116914  1
  H+  H288  1  0.83205076  0.66998126  0.09937922  1
  H+  H289  1  0.58006605  0.64668865  0.40254621  1
  H+  H290  1  0.66169391  0.58198691  0.93114869  1
  H+  H291  1  0.58493529  0.65861856  0.09172536  1
  H+  H292  1  0.83191846  0.67726814  0.43742781  1
  H+  H293  1  0.09682271  0.94489840  0.72518357  1
  H+  H294  1  0.32656047  0.39741783  0.11654061  1
  H+  H295  1  0.42276455  0.32548098  0.96389706  1
  H+  H296  1  0.68211573  0.10264257  0.55202719  1
  H+  H297  1  0.58100134  0.67131082  0.72832594  1
  H+  H298  1  0.54630587  0.12969402  0.15986063  1
  H+  H299  1  0.52201446  0.88582308  0.00257174  1
  H+  H300  1  0.41557087  0.57403147  0.59508058  1
  H+  H301  1  0.86542451  0.14275960  0.16111833  1
  H+  H302  1  0.42413735  0.58558917  0.22746111  1
  H+  H303  1  0.09864390  0.41050391  0.39008723  1
  H+  H304  1  0.11181934  -0.03252646  0.50421575  1
  H+  H305  1  0.86067033  0.97921780  0.34094258  1
  H+  H306  1  0.15020765  0.83121806  0.90004011  1
  H+  H307  1  0.68898841  0.09620628  0.58484683  1
  H+  H308  1  0.65866276  0.05686984  0.23565005  1
  H+  H309  1  0.48265534  0.77284907  0.36454209  1
  H+  H310  1  0.54337586  0.16496713  0.43751117  1
  H+  H311  1  0.40463732  0.82976260  0.89607478  1
  H+  H312  1  0.33539663  0.67721279  0.06712225  1
  H+  H313  1  0.68078243  0.85809368  0.57895087  1
  H+  H314  1  0.57436365  0.88610776  0.42961793  1
  H+  H315  1  0.65002758  0.33888329  0.25818934  1
  H+  H316  1  0.16383849  0.31871266  0.23794494  1
  H+  H317  1  0.14739476  0.87930838  0.66063688  1
  H+  H318  1  0.86663779  0.44537961  0.41851526  1
  H+  H319  1  0.83554344  0.91916983  0.73502335  1
  H+  H320  1  0.26794465  0.89316801  0.68625115  1
  H+  H321  1  0.85827180  0.43080816  0.10292281  1
  H+  H322  1  0.42087930  0.32711251  0.24116192  1
  H+  H323  1  0.91365553  0.59007476  0.93582563  1
  H+  H324  1  0.92380425  0.83913112  0.89923197  1
  H+  H325  1  0.32977194  0.14708251  0.75617333  1
  H+  H326  1  0.07666316  0.16772234  0.10201153  1
  H+  H327  1  0.03332397  0.38564495  0.48153914  1
  H+  H328  1  0.91335316  0.07991146  0.26701115  1
  H+  H329  1  0.78747138  0.88038676  0.16536027  1
  H+  H330  1  0.38447100  0.77419005  0.16744742  1
  H+  H331  1  0.43396231  0.82125278  0.55238320  1
  H+  H332  1  0.64295066  0.09817246  0.17186512  1
  H+  H333  1  0.86495548  0.43675871  0.74580390  1
  H+  H334  1  0.58071004  0.16252871  0.77321165  1
  H+  H335  1  0.32885789  0.14477294  0.10954992  1
  H+  H336  1  0.41368619  0.32460241  0.56729852  1
  H+  H337  1  0.42262227  0.84392222  0.22295631  1
  H+  H338  1  0.40799041  0.83788661  0.64512068  1
  H+  H339  1  0.07289816  0.90719234  0.07081724  1
  H+  H340  1  0.90677651  0.08850113  0.60655574  1
  H+  H341  1  0.17223273  0.32168318  0.94536551  1
  H+  H342  1  0.60882254  0.71261671  0.15347886  1
  H+  H343  1  0.17236547  0.59273919  0.55589721  1
  H+  H344  1  0.07405304  0.14768040  0.44258626  1
  H+  H345  1  0.72767361  0.86632172  0.66869339  1
  H+  H346  1  0.40920918  0.59890230  0.92108971  1
  H+  H347  1  0.21510287  0.85629637  0.50037839  1
  H+  H348  1  0.16335819  0.84957221  0.22472345  1
  H+  H349  1  0.09114597  0.68161248  0.10119941  1
  H+  H350  1  0.84723176  0.17566504  0.41986317  1
  H+  H351  1  0.58334141  0.42094372  0.44157415  1
  H+  H352  1  0.64149325  0.35995773  0.14461085  1
  H+  H353  1  0.32405864  0.91901491  0.77781887  1
  H+  H354  1  0.30790003  0.40115233  0.70813232  1
  H+  H355  1  0.65884473  0.32760919  0.90731085  1
  H+  H356  1  0.91803464  0.58841797  0.60223544  1
  H+  H357  1  0.57789268  0.41373432  0.77233060  1
  H+  H358  1  0.66068857  0.58750350  0.56448393  1
  H+  H359  1  0.68289892  0.09758679  0.90729354  1
  H+  H360  1  0.35672616  0.96521090  0.50008926  1
  H+  H361  1  -0.00878471  0.86943197  0.16327972  1
  H+  H362  1  0.83474456  0.91190926  0.06880657  1
  H+  H363  1  0.33297639  0.66372785  0.74849085  1
  H+  H364  1  0.90937786  0.32616225  0.93396156  1
  H+  H365  1  0.83331563  0.15506392  0.74685584  1
  H+  H366  1  0.59249235  0.15575160  0.06299517  1
  H+  H367  1  0.88643920  0.86317511  0.99267379  1
  H+  H368  1  0.32356027  0.90567025  0.40576639  1
  H+  H369  1  0.33146216  0.40785991  0.39913275  1
  H+  H370  1  0.07612829  0.42533550  0.07023072  1
  H+  H371  1  0.13980889  0.03497625  0.61525672  1
  H+  H372  1  0.38437645  0.51268549  0.50470529  1
  H+  H373  1  0.08351468  0.40006234  0.77629171  1
  H+  H374  1  0.61674119  0.90673448  0.80615635  1
  H+  H375  1  0.71854933  0.60882365  0.66451649  1
  H+  H376  1  0.88255171  0.53519346  0.84183326  1
  H+  H377  1  0.57952761  0.91381315  0.09303226  1
  H+  H378  1  0.16543825  0.08720711  0.22654408  1
  H+  H379  1  0.93234266  0.33786798  0.24280518  1
  H+  H380  1  0.41024530  0.03217023  0.18846624  1
  H+  H381  1  0.83883259  0.17390433  0.07052551  1
  H+  H382  1  0.91650739  0.83688608  0.60114028  1
  H+  H383  1  0.11906123  0.64259137  0.33371989  1
  O2-  O384  1  0.07646096  0.17209321  0.14795682  1
  O2-  O385  1  0.08076126  0.15302459  0.48733537  1
  O2-  O386  1  0.04331281  0.18532244  0.79560776  1
  O2-  O387  1  0.08924656  0.42702927  0.15295831  1
  O2-  O388  1  0.09725119  0.41324701  0.46943359  1
  O2-  O389  1  0.08024253  0.41352338  0.82010193  1
  O2-  O390  1  0.09543915  0.68341411  0.14673927  1
  O2-  O391  1  0.08329349  0.66632836  0.47052981  1
  O2-  O392  1  0.07440120  0.66739222  0.81127172  1
  O2-  O393  1  0.07282644  0.90817680  0.13833904  1
  O2-  O394  1  0.08069934  0.90705271  0.48753730  1
  O2-  O395  1  0.08852134  0.92526037  0.80231973  1
  O2-  O396  1  0.33215101  0.14260285  0.15600716  1
  O2-  O397  1  0.32558816  0.15592677  0.48918530  1
  O2-  O398  1  0.33868665  0.15454547  0.80246220  1
  O2-  O399  1  0.31703126  0.38515635  0.16139779  1
  O2-  O400  1  0.32994444  0.40709080  0.47726509  1
  O2-  O401  1  0.28693623  0.39720245  0.78959432  1
  O2-  O402  1  0.33629003  0.67455965  0.14442169  1
  O2-  O403  1  0.33901359  0.65417345  0.47358891  1
  O2-  O404  1  0.33353088  0.67055805  0.79383980  1
  O2-  O405  1  0.34185513  0.94124616  0.17806714  1
  O2-  O406  1  0.32398754  0.90477843  0.48438083  1
  O2-  O407  1  0.32690227  0.91830275  0.82394959  1
  O2-  O408  1  0.60639987  0.15307221  0.14270573  1
  O2-  O409  1  0.57079098  0.16497761  0.47601189  1
  O2-  O410  1  0.57658409  0.15919933  0.81896817  1
  O2-  O411  1  0.58918816  0.41668336  0.14895064  1
  O2-  O412  1  0.57825100  0.42068990  0.48644902  1
  O2-  O413  1  0.58542968  0.41671314  0.81819719  1
  O2-  O414  1  0.58767409  0.65431827  0.13693283  1
  O2-  O415  1  0.56736610  0.64325489  0.46972110  1
  O2-  O416  1  0.59321428  0.68048686  0.80562718  1
  O2-  O417  1  0.57677999  0.91200660  0.14006370  1
  O2-  O418  1  0.58664368  0.91540703  0.46995729  1
  O2-  O419  1  0.61698478  0.91525268  0.85069507  1
  O2-  O420  1  0.84217631  0.17769275  0.14380143  1
  O2-  O421  1  0.83340902  0.17189569  0.46431723  1
  O2-  O422  1  0.83883924  0.15469762  0.81800363  1
  O2-  O423  1  0.85481722  0.43029722  0.14814353  1
  O2-  O424  1  0.86024972  0.43147763  0.46171953  1
  O2-  O425  1  0.82905990  0.41626668  0.83830220  1
  O2-  O426  1  0.83258271  0.67041519  0.14465022  1
  O2-  O427  1  0.83186956  0.67609704  0.48296310  1
  O2-  O428  1  0.82909853  0.67368285  0.81304313  1
  O2-  O429  1  0.84442413  0.91449269  0.14778176  1
  O2-  O430  1  0.84754007  0.92895126  0.48111788  1
  O2-  O431  1  0.83921396  0.91860794  0.81102280  1
  O2-  O432  1  0.15601085  0.08894183  0.18167031  1
  O2-  O433  1  0.15882063  0.06579529  0.53372303  1
  O2-  O434  1  0.17926592  0.08929267  0.85484976  1
  O2-  O435  1  0.16844799  0.32463580  0.19175273  1
  O2-  O436  1  0.16348189  0.32108948  0.51369458  1
  O2-  O437  1  0.14671070  0.31937049  0.86734483  1
  O2-  O438  1  0.17403881  0.59622030  0.18622254  1
  O2-  O439  1  0.17079070  0.58610271  0.51089862  1
  O2-  O440  1  0.17624728  0.59249028  0.82938186  1
  O2-  O441  1  0.16970420  0.85231727  0.17983020  1
  O2-  O442  1  0.15196302  0.82567843  0.50804966  1
  O2-  O443  1  0.15264953  0.83282475  0.85361091  1
  O2-  O444  1  0.45715875  0.09637059  0.19412442  1
  O2-  O445  1  0.41055650  0.07049058  0.52723839  1
  O2-  O446  1  0.41531195  0.06894129  0.84796507  1
  O2-  O447  1  0.41667290  0.32301839  0.19502190  1
  O2-  O448  1  0.41232394  0.32498811  0.52202685  1
  O2-  O449  1  0.42315433  0.35077896  0.88166415  1
  O2-  O450  1  0.42350092  0.59959803  0.18376132  1
  O2-  O451  1  0.41725343  0.57352713  0.51883943  1
  O2-  O452  1  0.42701638  0.62050444  0.84615411  1
  O2-  O453  1  0.41870856  0.83745878  0.17812244  1
  O2-  O454  1  0.42642724  0.82891536  0.50957446  1
  O2-  O455  1  0.39437264  0.83209802  0.85131119  1
  O2-  O456  1  0.65786558  0.05432755  0.18972752  1
  O2-  O457  1  0.66366467  0.08853674  0.43535025  1
  O2-  O458  1  0.69888923  0.12346042  0.86592484  1
  O2-  O459  1  0.67423256  0.32923784  0.13643842  1
  O2-  O460  1  0.65332136  0.33021122  0.54005384  1
  O2-  O461  1  0.66082847  0.32743407  0.86205461  1
  O2-  O462  1  0.67304904  0.57834219  0.18724395  1
  O2-  O463  1  0.66427496  0.58883530  0.51947649  1
  O2-  O464  1  0.66488872  0.58906570  0.85277867  1
  O2-  O465  1  0.60801121  0.79754414  0.19976594  1
  O2-  O466  1  0.68527842  0.86003126  0.53269179  1
  O2-  O467  1  0.68471714  0.83514336  0.86422482  1
  O2-  O468  1  0.91243338  0.07958491  0.19090467  1
  O2-  O469  1  0.91436705  0.09330733  0.52537771  1
  O2-  O470  1  0.91049805  0.07138487  0.86603626  1
  O2-  O471  1  0.93091648  0.33937770  0.19545229  1
  O2-  O472  1  0.93889471  0.34569104  0.50089147  1
  O2-  O473  1  0.91702692  0.32162995  0.85091442  1
  O2-  O474  1  0.92627598  0.60551593  0.18268080  1
  O2-  O475  1  0.91722577  0.59007105  0.52236812  1
  O2-  O476  1  0.91453944  0.59546131  0.85568488  1
  O2-  O477  1  0.92628805  0.84073040  0.18298609  1
  O2-  O478  1  0.91956554  0.83665075  0.52372856  1
  O2-  O479  1  0.92170208  0.83808789  0.85350031  1
  O2-  O480  1  0.18962491  0.09236139  0.30098894  1
  O2-  O481  1  0.14344311  0.03534444  0.66085319  1
  O2-  O482  1  0.17069984  0.08261470  0.98576754  1
  O2-  O483  1  0.16534523  0.31511450  0.31132788  1
  O2-  O484  1  0.15469819  0.29614549  0.63658909  1
  O2-  O485  1  0.17777317  0.31401975  0.98933354  1
  O2-  O486  1  0.17976476  0.58658476  0.31048396  1
  O2-  O487  1  0.17360725  0.60771663  0.63626915  1
  O2-  O488  1  0.15643301  0.59384336  0.98742275  1
  O2-  O489  1  0.16401378  0.84376978  0.30675391  1
  O2-  O490  1  0.17950177  0.84879672  0.65515769  1
  O2-  O491  1  0.15762428  0.83183479  0.97289019  1
  O2-  O492  1  0.43755053  0.09402964  0.38008680  1
  O2-  O493  1  0.41789098  0.08057404  0.65038389  1
  O2-  O494  1  0.41214136  0.07737902  0.98810312  1
  O2-  O495  1  0.42306302  0.33219137  0.31553116  1
  O2-  O496  1  0.40790245  0.31852885  0.64728959  1
  O2-  O497  1  0.42450221  0.32769217  1.00860864  1
  O2-  O498  1  0.42584272  0.57312882  0.30625384  1
  O2-  O499  1  0.41114674  0.56900297  0.64091405  1
  O2-  O500  1  0.39904181  0.58171102  0.96517941  1
  O2-  O501  1  0.44888237  0.89313164  0.29701049  1
  O2-  O502  1  0.40909259  0.83188207  0.68906764  1
  O2-  O503  1  0.42250128  0.83968017  0.97199426  1
  O2-  O504  1  0.66126148  0.08821716  0.30661527  1
  O2-  O505  1  0.66947982  0.07937194  0.68668099  1
  O2-  O506  1  0.67100604  0.07407898  0.98348288  1
  O2-  O507  1  0.65314083  0.32443042  0.30048621  1
  O2-  O508  1  0.64756970  0.31484214  0.66091994  1
  O2-  O509  1  0.66934685  0.33356632  0.99013513  1
  O2-  O510  1  0.67530970  0.57996786  0.31303237  1
  O2-  O511  1  0.65847533  0.57705524  0.64876101  1
  O2-  O512  1  0.65952191  0.57955633  0.97668968  1
  O2-  O513  1  0.66385601  0.81709671  0.32173739  1
  O2-  O514  1  0.66752639  0.84061807  0.65174749  1
  O2-  O515  1  0.66442561  0.82737909  0.98533088  1
  O2-  O516  1  0.91246990  0.08122227  0.31276451  1
  O2-  O517  1  0.90364697  0.08596006  0.65180478  1
  O2-  O518  1  0.91759690  0.08207700  0.98886331  1
  O2-  O519  1  0.94017017  0.33125156  0.31093643  1
  O2-  O520  1  0.93627774  0.33026825  0.66764622  1
  O2-  O521  1  0.90531640  0.33083874  0.97853300  1
  O2-  O522  1  0.92358608  0.58847755  0.35734868  1
  O2-  O523  1  0.92204385  0.59077132  0.64765150  1
  O2-  O524  1  0.90986327  0.58373814  0.98088683  1
  O2-  O525  1  0.92266838  0.84105338  0.30558832  1
  O2-  O526  1  0.91717215  0.83826861  0.64674401  1
  O2-  O527  1  0.91572447  0.83265301  0.97629334  1
  O2-  O528  1  0.08139642  0.15541114  0.02858417  1
  O2-  O529  1  0.06304899  0.13326298  0.35986460  1
  O2-  O530  1  0.14283128  0.17565856  0.71636593  1
  O2-  O531  1  0.07641206  0.42976074  0.02541812  1
  O2-  O532  1  0.09957216  0.40752378  0.34467558  1
  O2-  O533  1  0.08520693  0.37536278  0.70185988  1
  O2-  O534  1  0.08026000  0.67481440  0.02419649  1
  O2-  O535  1  0.09252513  0.67642856  0.34777655  1
  O2-  O536  1  0.08587539  0.68174989  0.68774157  1
  O2-  O537  1  0.07305006  0.90703878  0.02268119  1
  O2-  O538  1  0.09147599  0.94053427  0.33736081  1
  O2-  O539  1  0.09504423  0.94407356  0.67889380  1
  O2-  O540  1  0.32610709  0.15693533  0.03939017  1
  O2-  O541  1  0.34242266  0.17004564  0.36455440  1
  O2-  O542  1  0.32056131  0.14411850  0.68545326  1
  O2-  O543  1  0.34698648  0.41334314  0.04254650  1
  O2-  O544  1  0.33374998  0.40721093  0.35348485  1
  O2-  O545  1  0.32006559  0.40258097  0.66443730  1
  O2-  O546  1  0.33240662  0.67928868  0.02168372  1
  O2-  O547  1  0.35545484  0.66320112  0.35076665  1
  O2-  O548  1  0.32518078  0.65297780  0.67193678  1
  O2-  O549  1  0.33365805  0.90780358  0.01241416  1
  O2-  O550  1  0.32894293  0.92025165  0.36154627  1
  O2-  O551  1  0.32854297  0.92560214  0.70519492  1
  O2-  O552  1  0.58775099  0.15879258  0.01819528  1
  O2-  O553  1  0.55481859  0.15260153  0.29689006  1
  O2-  O554  1  0.58423627  0.16051625  0.69826196  1
  O2-  O555  1  0.59064283  0.42237167  0.02664567  1
  O2-  O556  1  0.58480055  0.41893762  0.35846509  1
  O2-  O557  1  0.56916885  0.41350111  0.69817372  1
  O2-  O558  1  0.57533652  0.66248412  0.01401874  1
  O2-  O559  1  0.58939882  0.65476000  0.35486629  1
  O2-  O560  1  0.58026621  0.66997089  0.68281677  1
  O2-  O561  1  0.58074569  0.91162606  0.02207279  1
  O2-  O562  1  0.53210263  0.83145121  0.36214937  1
  O2-  O563  1  0.59111364  0.91672442  0.71334317  1
  O2-  O564  1  0.83476004  0.17000487  0.02433449  1
  O2-  O565  1  0.85054766  0.17891431  0.34256212  1
  O2-  O566  1  0.82425980  0.15580937  0.70098407  1
  O2-  O567  1  0.83441925  0.42055003  0.02218468  1
  O2-  O568  1  0.83071292  0.41734878  0.32136031  1
  O2-  O569  1  0.88047960  0.43507022  0.70366513  1
  O2-  O570  1  0.82839262  0.66858729  0.01891958  1
  O2-  O571  1  0.83864243  0.68016963  0.35929436  1
  O2-  O572  1  0.82872718  0.66668872  0.68848161  1
  O2-  O573  1  0.83290595  0.91378797  0.02353719  1
  O2-  O574  1  0.83649544  0.91965972  0.35784007  1
  O2-  O575  1  0.83011933  0.91748135  0.68943341  1
