# generated using pymatgen
data_H2O
_symmetry_space_group_name_H-M   'P 1'
_cell_length_a   17.98979620
_cell_length_b   17.98680079
_cell_length_c   21.99686751
_cell_angle_alpha   89.98708066
_cell_angle_beta   90.02058392
_cell_angle_gamma   119.99735005
_symmetry_Int_Tables_number   1
_chemical_formula_structural   H2O
_chemical_formula_sum   'H384 O192'
_cell_volume   6164.29205080
_cell_formula_units_Z   192
loop_
 _symmetry_equiv_pos_site_id
 _symmetry_equiv_pos_as_xyz
  1  'x, y, z'
loop_
 _atom_type_symbol
 _atom_type_oxidation_number
  H+  1.0
  O2-  -2.0
loop_
 _atom_site_type_symbol
 _atom_site_label
 _atom_site_symmetry_multiplicity
 _atom_site_fract_x
 _atom_site_fract_y
 _atom_site_fract_z
 _atom_site_occupancy
  H+  H0  1  0.47741270  0.86814842  -0.01501421  1
  H+  H1  1  0.36714016  0.63815653  0.50405515  1
  H+  H2  1  0.88819050  0.01537781  0.17304982  1
  H+  H3  1  0.40900884  0.33696022  0.23501958  1
  H+  H4  1  0.59126126  0.35117762  1.00614623  1
  H+  H5  1  0.88590895  0.10453532  0.17920509  1
  H+  H6  1  0.12956790  0.63952392  0.15783919  1
  H+  H7  1  0.52467737  0.88477604  0.19447480  1
  H+  H8  1  0.74569022  0.87020876  0.32620255  1
  H+  H9  1  0.15662728  0.57597478  0.88781796  1
  H+  H10  1  0.47194862  0.01235258  0.20347937  1
  H+  H11  1  0.62773094  0.88465379  0.32715273  1
  H+  H12  1  0.86655871  0.38714128  0.34245321  1
  H+  H13  1  1.01209641  0.12334345  0.15696824  1
  H+  H14  1  0.98108962  0.36186081  0.61853859  1
  H+  H15  1  0.77341323  0.88043914  0.49319194  1
  H+  H16  1  0.87047441  0.73201537  0.49911333  1
  H+  H17  1  0.86932397  0.40244683  0.00674176  1
  H+  H18  1  0.88668432  0.01938318  0.50626947  1
  H+  H19  1  0.37178876  0.72848816  0.49583010  1
  H+  H20  1  0.28313897  0.20260774  0.38335394  1
  H+  H21  1  0.09612352  0.46842801  0.81118632  1
  H+  H22  1  0.14543958  0.53433262  0.17338209  1
  H+  H23  1  0.53089558  0.63800307  0.00080558  1
  H+  H24  1  0.86677568  0.64053657  1.00159928  1
  H+  H25  1  0.64421656  0.38206086  0.51080669  1
  H+  H26  1  0.73537227  0.37320142  -0.00904190  1
  H+  H27  1  0.54749658  0.62595477  0.66604933  1
  H+  H28  1  0.10978778  0.88814942  0.67126702  1
  H+  H29  1  0.78956049  0.62991129  0.67377104  1
  H+  H30  1  0.13093259  0.26763247  0.32791065  1
  H+  H31  1  0.16946506  0.00839297  0.51748970  1
  H+  H32  1  0.64094798  0.53484691  0.33799408  1
  H+  H33  1  0.22757883  0.85541280  0.51281701  1
  H+  H34  1  0.44440406  0.62469382  0.67440270  1
  H+  H35  1  0.96695487  0.60137691  0.97979330  1
  H+  H36  1  0.73898423  0.86500246  0.98719531  1
  H+  H37  1  0.61671114  0.96077363  0.82058414  1
  H+  H38  1  0.02852093  0.13231127  0.34051705  1
  H+  H39  1  0.64376066  0.86403821  0.66557641  1
  H+  H40  1  0.49983686  0.07815130  0.14993463  1
  H+  H41  1  0.11207474  0.98914955  0.15690431  1
  H+  H42  1  0.37719737  0.76864951  0.65356471  1
  H+  H43  1  0.11350426  0.85165759  0.16552201  1
  H+  H44  1  0.11776771  0.13233410  0.33714658  1
  H+  H45  1  0.71350620  0.10504118  0.98326319  1
  H+  H46  1  0.34632955  0.18542961  0.44368054  1
  H+  H47  1  0.64733607  0.62682917  0.34346913  1
  H+  H48  1  1.03000081  0.88864055  0.49224624  1
  H+  H49  1  0.61445368  -0.00862513  0.51356475  1
  H+  H50  1  0.39432390  0.38215397  0.66238896  1
  H+  H51  1  0.92054627  0.08395884  0.27074922  1
  H+  H52  1  0.61289541  -0.01660153  0.97116337  1
  H+  H53  1  0.01394284  0.62952077  0.34041912  1
  H+  H54  1  0.22915167  0.61788228  0.50789552  1
  H+  H55  1  0.22286938  0.61791153  0.65563836  1
  H+  H56  1  0.86012907  0.22451105  0.65382941  1
  H+  H57  1  0.63664172  0.12179832  0.97523941  1
  H+  H58  1  0.35300126  0.46754607  0.82508425  1
  H+  H59  1  0.63953237  0.01856787  0.66612709  1
  H+  H60  1  0.38169231  0.86043121  0.65225710  1
  H+  H61  1  0.98196155  0.12831205  0.65815293  1
  H+  H62  1  0.86164783  0.65185466  0.72722938  1
  H+  H63  1  0.54965674  0.16339086  0.00240852  1
  H+  H64  1  0.93157822  0.08498884  0.92335341  1
  H+  H65  1  0.64809689  0.61371673  0.99142615  1
  H+  H66  1  0.23470492  0.38252188  0.65067732  1
  H+  H67  1  0.46735354  0.67967706  0.95343007  1
  H+  H68  1  0.23432394  0.37052455  0.98592679  1
  H+  H69  1  0.22928276  0.37139059  0.50594886  1
  H+  H70  1  0.33341536  1.01554843  -0.01415030  1
  H+  H71  1  0.36093427  0.49326861  0.66851182  1
  H+  H72  1  0.52165116  0.88314551  0.67072983  1
  H+  H73  1  0.53417507  0.15898137  0.82682065  1
  H+  H74  1  0.87580408  0.35849479  0.17065953  1
  H+  H75  1  0.61744432  0.48885828  0.49533393  1
  H+  H76  1  0.11695247  0.89012240  0.82240185  1
  H+  H77  1  0.11734437  0.38837425  0.00632445  1
  H+  H78  1  0.35427260  0.71505437  1.00367269  1
  H+  H79  1  0.39058726  0.27645928  0.82650268  1
  H+  H80  1  0.85684232  0.71875239  0.15658555  1
  H+  H81  1  0.38655851  0.11792893  0.82503935  1
  H+  H82  1  0.72883769  0.37937685  0.32783235  1
  H+  H83  1  0.08159306  0.90494850  0.40062284  1
  H+  H84  1  0.14567865  0.26081571  0.67069418  1
  H+  H85  1  0.21462069  0.84470854  0.97880154  1
  H+  H86  1  0.92427678  0.58399584  0.56219496  1
  H+  H87  1  0.53130960  0.62899141  0.82518202  1
  H+  H88  1  0.86986823  0.61100207  0.17373637  1
  H+  H89  1  0.41370380  0.09862200  0.47656536  1
  H+  H90  1  0.67863722  0.34461960  0.92759125  1
  H+  H91  1  0.22498616  0.60725759  0.98257824  1
  H+  H92  1  0.97744484  0.11020011  0.83543317  1
  H+  H93  1  0.89704622  0.22811204  -0.03815769  1
  H+  H94  1  0.02761821  0.13381573  0.00562473  1
  H+  H95  1  0.40352332  0.11226948  0.99046197  1
  H+  H96  1  0.52271127  0.87480391  0.82387629  1
  H+  H97  1  0.37440093  0.13432778  0.37809349  1
  H+  H98  1  0.78799177  0.89033559  0.66964372  1
  H+  H99  1  0.37246029  0.83997319  0.17987720  1
  H+  H100  1  0.47063971  0.36550753  0.32856663  1
  H+  H101  1  0.34839909  0.62532159  0.66070236  1
  H+  H102  1  0.13703524  0.76765467  0.50534012  1
  H+  H103  1  0.36447697  0.39794405  0.50416170  1
  H+  H104  1  0.83041560  0.42055892  0.10064373  1
  H+  H105  1  0.67325414  0.82324619  0.89096237  1
  H+  H106  1  0.78084590  0.87631179  0.82895994  1
  H+  H107  1  0.97207342  0.85375486  0.18237461  1
  H+  H108  1  0.36236788  0.63157994  -0.00205216  1
  H+  H109  1  0.26473417  0.89686518  0.35251801  1
  H+  H110  1  0.27960831  0.15680472  0.66832206  1
  H+  H111  1  0.35265279  0.89492585  -0.00343545  1
  H+  H112  1  0.96646282  0.36319231  0.16682052  1
  H+  H113  1  0.80666148  0.07822162  0.03874566  1
  H+  H114  1  0.15750976  0.33484747  0.89403790  1
  H+  H115  1  0.89328961  0.86781794  0.50589266  1
  H+  H116  1  0.12421918  0.64033352  0.66772085  1
  H+  H117  1  0.63166237  1.02688716  0.19990483  1
  H+  H118  1  0.89093492  0.12275840  0.65673153  1
  H+  H119  1  0.89269963  0.60743090  0.65241002  1
  H+  H120  1  0.14214054  0.12040217  0.66140452  1
  H+  H121  1  0.85667327  0.47582543  0.16254079  1
  H+  H122  1  0.12712944  0.28057267  0.17149538  1
  H+  H123  1  -0.01282772  0.86619652  0.84257654  1
  H+  H124  1  0.48407064  0.37933981  0.66618002  1
  H+  H125  1  0.88356901  0.51907258  0.33568924  1
  H+  H126  1  0.98018824  0.60676253  0.65262405  1
  H+  H127  1  0.86300116  0.22512837  0.34287435  1
  H+  H128  1  0.88878474  0.11085039  0.83652674  1
  H+  H129  1  0.39647753  0.29082358  0.51408965  1
  H+  H130  1  0.63982336  0.24853940  -0.00386627  1
  H+  H131  1  0.99064359  0.39339809  0.98189811  1
  H+  H132  1  0.34889439  0.16972549  0.14328496  1
  H+  H133  1  0.30886233  0.04826957  0.19842813  1
  H+  H134  1  0.38068860  0.36037683  0.82564851  1
  H+  H135  1  0.61647459  0.22750188  0.67393239  1
  H+  H136  1  0.53076982  0.64910297  0.50237913  1
  H+  H137  1  0.36826517  0.49319664  -0.00416363  1
  H+  H138  1  0.02776349  0.87717853  -0.00352742  1
  H+  H139  1  0.73070607  0.37808210  0.51162655  1
  H+  H140  1  0.62690913  0.15027075  0.15912054  1
  H+  H141  1  0.43805988  0.59482397  0.26979849  1
  H+  H142  1  0.43107390  0.58276713  0.90816138  1
  H+  H143  1  0.65118937  0.86601056  -0.02341330  1
  H+  H144  1  0.02632640  0.14592952  0.49283781  1
  H+  H145  1  0.34697770  0.48363327  0.15480589  1
  H+  H146  1  0.26341658  0.37640624  0.35088539  1
  H+  H147  1  0.38948419  0.53326906  0.51423070  1
  H+  H148  1  0.37082091  0.88173064  0.49741468  1
  H+  H149  1  0.73388594  0.62139151  0.51190692  1
  H+  H150  1  0.10281411  0.47631679  0.65766605  1
  H+  H151  1  0.12459125  0.60682839  0.83024085  1
  H+  H152  1  0.78039716  0.88095371  0.15668917  1
  H+  H153  1  0.73192946  0.09491491  0.82156063  1
  H+  H154  1  0.71677331  0.60211048  0.15952985  1
  H+  H155  1  0.41740521  0.83965341  1.04082303  1
  H+  H156  1  0.25538734  0.87156109  0.15381929  1
  H+  H157  1  0.92225637  0.13769839  -0.02389316  1
  H+  H158  1  0.65065031  0.77918009  0.66482072  1
  H+  H159  1  0.35836506  0.04045537  0.38553955  1
  H+  H160  1  0.89331854  0.85761058  0.84522476  1
  H+  H161  1  0.10869052  0.75436863  0.32535894  1
  H+  H162  1  0.85798790  0.48314568  0.01089328  1
  H+  H163  1  0.65207319  0.61793578  0.83315251  1
  H+  H164  1  0.21088254  0.37378997  0.16920569  1
  H+  H165  1  0.64485297  0.62259724  0.51421235  1
  H+  H166  1  0.35114171  0.62613768  0.81921099  1
  H+  H167  1  0.37610014  0.76553913  0.82892995  1
  H+  H168  1  0.15217762  0.03293005  0.83001392  1
  H+  H169  1  0.89114577  0.77509545  0.99451936  1
  H+  H170  1  0.87281542  0.88938987  0.34323408  1
  H+  H171  1  0.26969784  0.61941292  0.34920428  1
  H+  H172  1  0.59609288  0.12426101  0.36102374  1
  H+  H173  1  0.10713925  0.38158661  0.34444097  1
  H+  H174  1  0.12442669  0.73992256  0.66694950  1
  H+  H175  1  0.61168968  0.40001853  0.34019603  1
  H+  H176  1  0.32910835  0.92564154  0.71882256  1
  H+  H177  1  0.48499586  0.61087847  0.17077460  1
  H+  H178  1  0.10221751  0.39528648  0.16132175  1
  H+  H179  1  0.07623577  0.15549662  0.08479944  1
  H+  H180  1  0.63964187  0.36354144  0.66544830  1
  H+  H181  1  0.88515385  0.85488259  0.17694872  1
  H+  H182  1  0.36173070  0.98315082  0.81525955  1
  H+  H183  1  0.88080285  0.76339558  0.33742007  1
  H+  H184  1  0.58715675  0.91177074  0.25036097  1
  H+  H185  1  0.61605804  0.13958722  0.67747284  1
  H+  H186  1  0.87522368  0.98084140  0.34173611  1
  H+  H187  1  0.44100882  0.84348637  0.56583709  1
  H+  H188  1  0.36269989  0.28380161  -0.02006105  1
  H+  H189  1  0.50179458  0.35070889  0.00193464  1
  H+  H190  1  0.11349267  0.87801357  0.49070321  1
  H+  H191  1  0.10994467  0.47198157  0.34297017  1
  H+  H192  1  0.03890600  0.93462143  0.10972280  1
  H+  H193  1  0.86816253  0.46352702  0.67963030  1
  H+  H194  1  0.62165599  0.47944734  0.67349554  1
  H+  H195  1  0.10783115  0.12871832  0.15869289  1
  H+  H196  1  0.36986144  0.40512959  -0.00766884  1
  H+  H197  1  0.87482777  0.47979210  0.49624909  1
  H+  H198  1  0.13753338  0.28033920  0.50347694  1
  H+  H199  1  0.87722576  0.97712848  0.66350021  1
  H+  H200  1  0.11417308  0.76281623  0.16669430  1
  H+  H201  1  0.72073309  0.11502552  0.34237495  1
  H+  H202  1  0.52513802  0.39285353  0.82427757  1
  H+  H203  1  0.64407709  0.76734579  0.16833538  1
  H+  H204  1  0.14969755  0.11957236  0.83169200  1
  H+  H205  1  0.65203380  0.29241556  0.83814406  1
  H+  H206  1  0.02395399  0.63832226  0.49057746  1
  H+  H207  1  0.35532751  0.11072097  0.63879956  1
  H+  H208  1  0.67232973  0.34213494  0.60466314  1
  H+  H209  1  0.12580280  0.84255912  0.97519976  1
  H+  H210  1  0.01160163  0.87214092  0.34286035  1
  H+  H211  1  0.95493647  0.36531099  0.82230663  1
  H+  H212  1  0.85944226  0.22065985  0.17453244  1
  H+  H213  1  0.10344577  0.73044789  0.81386660  1
  H+  H214  1  0.22095521  0.13008531  0.16932235  1
  H+  H215  1  0.45893837  0.51997101  0.87432289  1
  H+  H216  1  0.35653883  0.94154898  0.14488147  1
  H+  H217  1  0.88988933  0.11489698  0.32963136  1
  H+  H218  1  0.46656524  0.36605032  0.17370548  1
  H+  H219  1  0.33807367  0.97346488  0.65444052  1
  H+  H220  1  0.96163379  0.62559785  0.18873009  1
  H+  H221  1  0.62251930  0.82274070  0.49741558  1
  H+  H222  1  0.13886103  0.52826113  0.50699635  1
  H+  H223  1  0.12123463  0.47868548  0.00076115  1
  H+  H224  1  0.35354967  0.25987998  0.16044806  1
  H+  H225  1  0.71251729  0.07489764  0.50605217  1
  H+  H226  1  0.78066434  0.38069813  0.68557551  1
  H+  H227  1  0.93400561  0.24248203  0.98438367  1
  H+  H228  1  0.62175694  0.72359027  0.00195690  1
  H+  H229  1  0.87581390  0.97812710  0.00223221  1
  H+  H230  1  0.10503963  0.22499395  0.82871750  1
  H+  H231  1  0.85982575  0.12452618  0.49554075  1
  H+  H232  1  0.64617073  0.85711056  0.18264324  1
  H+  H233  1  0.52743388  0.40166637  0.49765007  1
  H+  H234  1  0.50997884  0.13133246  0.37932284  1
  H+  H235  1  0.63702014  0.85039248  0.83312851  1
  H+  H236  1  0.65962613  0.61488871  0.66415703  1
  H+  H237  1  0.10766279  0.71321582  -0.00933930  1
  H+  H238  1  0.76766418  0.63762669  0.35128032  1
  H+  H239  1  0.89071064  0.72902421  0.84136591  1
  H+  H240  1  0.39813424  0.61372595  0.17348289  1
  H+  H241  1  0.29895798  0.14286220  0.50513935  1
  H+  H242  1  0.22352946  0.85884411  0.65684129  1
  H+  H243  1  0.22610284  0.86208771  0.82599794  1
  H+  H244  1  0.60031106  0.38527006  0.15919299  1
  H+  H245  1  0.37147308  0.24608656  0.66629029  1
  H+  H246  1  0.72241085  0.11377781  0.19613553  1
  H+  H247  1  0.07938592  0.66661069  0.39752769  1
  H+  H248  1  0.72157223  0.37106618  0.17033505  1
  H+  H249  1  0.30775568  0.90350404  0.05575165  1
  H+  H250  1  0.89214608  0.61684350  0.50522790  1
  H+  H251  1  0.61507545  -0.03211389  0.33642569  1
  H+  H252  1  0.18029704  0.13870731  0.01251975  1
  H+  H253  1  0.34377540  0.06558553  0.17474140  1
  H+  H254  1  0.26212827  0.62551323  0.81994378  1
  H+  H255  1  0.35373004  0.37996462  0.34884857  1
  H+  H256  1  0.59422303  0.92571848  0.02905863  1
  H+  H257  1  0.46996141  0.83329384  0.32232434  1
  H+  H258  1  0.14661878  1.02432330  0.32064165  1
  H+  H259  1  0.30185857  0.14142333  1.00147939  1
  H+  H260  1  0.13453103  0.02672841  0.66694790  1
  H+  H261  1  0.61706456  0.48118452  0.82644760  1
  H+  H262  1  0.40193306  0.61353704  0.33063131  1
  H+  H263  1  0.43028670  0.93022599  0.35084887  1
  H+  H264  1  0.42621815  0.35155773  0.57290060  1
  H+  H265  1  0.38169767  0.74441434  0.33038920  1
  H+  H266  1  0.26018456  0.38259824  0.82048722  1
  H+  H267  1  0.77363600  0.13511029  0.66640555  1
  H+  H268  1  0.37940495  0.27532228  0.32757095  1
  H+  H269  1  0.63450696  0.28225456  0.17270514  1
  H+  H270  1  0.61800572  0.72217154  0.82165609  1
  H+  H271  1  0.58714774  0.42190626  0.73416588  1
  H+  H272  1  0.13426631  0.60516213  -0.01791681  1
  H+  H273  1  0.10332580  0.85679480  0.33203231  1
  H+  H274  1  0.15071047  0.27723793  0.99200848  1
  H+  H275  1  0.61716418  0.63303144  0.15547881  1
  H+  H276  1  0.79157076  0.44776039  0.86016937  1
  H+  H277  1  0.44747726  0.97730161  0.35612791  1
  H+  H278  1  0.12118123  0.35834774  0.83367317  1
  H+  H279  1  0.87412601  0.88821448  0.00291700  1
  H+  H280  1  -0.01485929  0.36021884  0.52183485  1
  H+  H281  1  0.53138142  0.12077095  0.50771679  1
  H+  H282  1  0.62455099  0.51688979  0.15792826  1
  H+  H283  1  -0.02396144  0.36112736  0.32656322  1
  H+  H284  1  0.28302943  0.14522841  0.81345265  1
  H+  H285  1  0.85807076  0.22431691  0.81823910  1
  H+  H286  1  0.13585106  0.61101355  0.32827734  1
  H+  H287  1  0.06588878  0.40819422  0.75248295  1
  H+  H288  1  0.68808952  0.83118235  0.26549762  1
  H+  H289  1  0.15761960  0.33154573  0.27075429  1
  H+  H290  1  0.16086490  0.59267387  0.59623595  1
  H+  H291  1  0.68164968  0.58364553  0.60266424  1
  H+  H292  1  0.18855694  0.06841453  0.57639774  1
  H+  H293  1  0.84014703  0.17582206  0.02902504  1
  H+  H294  1  0.66902766  0.07631335  0.87695307  1
  H+  H295  1  0.29668158  0.91438675  0.42117340  1
  H+  H296  1  0.19380993  0.23219877  0.71573943  1
  H+  H297  1  0.03383833  0.60170854  0.13924174  1
  H+  H298  1  0.08368999  0.65875133  0.05210359  1
  H+  H299  1  0.58829521  0.15329459  0.44224482  1
  H+  H300  1  0.59089002  0.67719901  0.44250845  1
  H+  H301  1  0.08253173  0.91949119  0.76596053  1
  H+  H302  1  0.40944674  0.33784802  0.91997257  1
  H+  H303  1  0.33637308  0.66089787  0.09981084  1
  H+  H304  1  0.37015005  0.96957520  0.50157715  1
  H+  H305  1  0.83568033  0.67006890  0.44121057  1
  H+  H306  1  0.91499831  0.33156798  0.26725016  1
  H+  H307  1  0.11167986  0.39213109  0.65573817  1
  H+  H308  1  0.59189195  0.65851650  0.73152412  1
  H+  H309  1  0.33070672  0.41935756  0.44293629  1
  H+  H310  1  0.84393796  0.91438288  0.09898659  1
  H+  H311  1  0.53851765  0.65167260  0.34554970  1
  H+  H312  1  0.90253435  0.57783557  0.27619348  1
  H+  H313  1  0.65830442  0.09138178  0.28590502  1
  H+  H314  1  0.16558480  0.08825611  0.23126963  1
  H+  H315  1  0.16032319  0.82331736  0.59802859  1
  H+  H316  1  0.88875728  0.55034349  0.93149018  1
  H+  H317  1  0.89224791  0.86418147  0.65669179  1
  H+  H318  1  0.86655641  0.36361220  0.82872782  1
  H+  H319  1  0.92418879  0.83457650  0.93466862  1
  H+  H320  1  0.36848836  0.72199144  0.16006931  1
  H+  H321  1  0.86754876  0.96642018  0.83407192  1
  H+  H322  1  0.13184919  0.81613976  0.26275492  1
  H+  H323  1  0.08923203  0.17431414  0.43633812  1
  H+  H324  1  0.81177631  0.14604075  0.12573354  1
  H+  H325  1  0.66551742  0.07063785  0.60479899  1
  H+  H326  1  0.83819228  0.91789076  0.43700169  1
  H+  H327  1  0.84304754  0.17085838  0.75748931  1
  H+  H328  1  0.90993886  0.82011988  0.27524668  1
  H+  H329  1  0.92532097  0.83862516  0.56468625  1
  H+  H330  1  0.68008478  0.58710451  0.93243871  1
  H+  H331  1  0.67020703  0.35348680  0.26864863  1
  H+  H332  1  0.08449294  0.67287865  0.73187301  1
  H+  H333  1  0.17192364  0.58590148  0.27057675  1
  H+  H334  1  0.58827128  0.66729504  0.09796124  1
  H+  H335  1  0.52589227  0.84148435  0.09328989  1
  H+  H336  1  0.23582837  0.12186623  0.32655854  1
  H+  H337  1  0.30165948  0.19290696  0.06115094  1
  H+  H338  1  0.46220064  0.12815203  0.26544946  1
  H+  H339  1  0.59232119  0.18365345  0.76838429  1
  H+  H340  1  0.32777908  0.42448840  0.72492995  1
  H+  H341  1  0.86324989  0.53736290  0.83402176  1
  H+  H342  1  0.11566660  0.39095017  0.49768339  1
  H+  H343  1  0.40548992  0.08330665  0.55026325  1
  H+  H344  1  0.83472494  0.16462632  0.40249873  1
  H+  H345  1  0.08459201  0.17222617  0.76814510  1
  H+  H346  1  0.86956039  0.38896692  0.50500770  1
  H+  H347  1  0.33066509  0.65173166  0.40827340  1
  H+  H348  1  0.43467777  0.08267256  0.27633964  1
  H+  H349  1  0.89510644  0.77414251  0.65824231  1
  H+  H350  1  0.31360850  0.43100631  0.09285388  1
  H+  H351  1  0.64414664  0.37634821  0.84085169  1
  H+  H352  1  0.36224985  0.89407463  0.81136467  1
  H+  H353  1  0.40243847  0.80773864  0.24014444  1
  H+  H354  1  0.51959468  0.87985426  0.09661884  1
  H+  H355  1  0.10441420  0.91017087  0.04473905  1
  H+  H356  1  0.08366466  0.42890319  0.09943230  1
  H+  H357  1  0.85222430  0.20835412  0.50242153  1
  H+  H358  1  0.73904392  0.61265145  0.83969426  1
  H+  H359  1  0.29217088  0.04739809  0.58961237  1
  H+  H360  1  0.41474536  0.59159215  0.57470573  1
  H+  H361  1  0.83518723  0.66453831  0.09385736  1
  H+  H362  1  0.55813288  0.39039956  0.09743096  1
  H+  H363  1  0.85801017  0.63543193  0.35018530  1
  H+  H364  1  0.77878776  0.64182087  0.00238396  1
  H+  H365  1  0.17124910  0.34290488  0.59164155  1
  H+  H366  1  0.02019154  0.88638652  0.67067750  1
  H+  H367  1  0.57806442  0.90557428  0.73136803  1
  H+  H368  1  0.31931416  0.66112499  0.71996529  1
  H+  H369  1  0.00504444  0.65697450  0.80185249  1
  H+  H370  1  0.11372471  0.63807294  0.48914994  1
  H+  H371  1  0.07677438  0.41559313  0.44082814  1
  H+  H372  1  0.23897121  0.61926936  0.17345953  1
  H+  H373  1  0.92703985  0.36887443  0.92370871  1
  H+  H374  1  0.62905527  0.73905885  0.34762294  1
  H+  H375  1  0.39883591  0.82426915  0.88681243  1
  H+  H376  1  0.60734107  0.18151282  0.09498348  1
  H+  H377  1  0.16551155  0.82400003  0.88566700  1
  H+  H378  1  0.84063823  0.41587694  0.40425731  1
  H+  H379  1  0.61817659  0.11078390  0.50498414  1
  H+  H380  1  0.39246796  0.08030215  0.88790555  1
  H+  H381  1  0.57917196  0.42520804  0.40028742  1
  H+  H382  1  0.91890022  0.08392123  0.56335956  1
  H+  H383  1  0.34633858  0.17892404  0.75489691  1
  O2-  O384  1  0.07325054  0.15466924  0.13921714  1
  O2-  O385  1  0.08756990  0.18103008  0.48093064  1
  O2-  O386  1  0.07798749  0.16475735  0.81285345  1
  O2-  O387  1  0.07725860  0.42984242  0.14466847  1
  O2-  O388  1  0.08050792  0.41869499  0.48624017  1
  O2-  O389  1  0.06413051  0.40747262  0.79772888  1
  O2-  O390  1  0.08775835  0.65632859  0.13913728  1
  O2-  O391  1  0.08458928  0.66936793  0.47362758  1
  O2-  O392  1  0.06638032  0.67055190  0.79706813  1
  O2-  O393  1  0.07635931  0.92930638  0.13941062  1
  O2-  O394  1  0.08926107  0.91320028  0.47411342  1
  O2-  O395  1  0.08722561  0.92245708  0.81129233  1
  O2-  O396  1  0.31516347  0.19796820  0.13736343  1
  O2-  O397  1  0.35394619  0.18896443  0.48813383  1
  O2-  O398  1  0.34574414  0.17708709  0.80051144  1
  O2-  O399  1  0.29587837  0.43649180  0.13411481  1
  O2-  O400  1  0.33197264  0.42600840  0.48894225  1
  O2-  O401  1  0.32005966  0.41064879  0.80448411  1
  O2-  O402  1  0.33734727  0.66087025  0.14493167  1
  O2-  O403  1  0.33482144  0.66671135  0.48695614  1
  O2-  O404  1  0.32342540  0.65816926  0.80589099  1
  O2-  O405  1  0.30826366  0.88426551  0.13166854  1
  O2-  O406  1  0.33309505  0.90684847  0.49167633  1
  O2-  O407  1  0.33082532  0.92315635  0.79762639  1
  O2-  O408  1  0.59446395  0.17526135  0.13924797  1
  O2-  O409  1  0.59355748  0.14914954  0.49321803  1
  O2-  O410  1  0.59419495  0.19293198  0.81363302  1
  O2-  O411  1  0.56622118  0.40960756  0.14105579  1
  O2-  O412  1  0.58610566  0.42888408  0.47926948  1
  O2-  O413  1  0.58621268  0.42076483  0.81093182  1
  O2-  O414  1  0.58930875  0.66903400  0.14319858  1
  O2-  O415  1  0.59071751  0.67103232  0.48797783  1
  O2-  O416  1  0.58952955  0.66075657  0.80648201  1
  O2-  O417  1  0.58703532  0.91754566  0.20445136  1
  O2-  O418  1  0.52590983  0.88878903  0.49875142  1
  O2-  O419  1  0.58186933  0.89730270  0.80882443  1
  O2-  O420  1  0.82816519  0.15633149  0.16912451  1
  O2-  O421  1  0.82489811  0.15186447  0.48209496  1
  O2-  O422  1  0.84164119  0.16610654  0.80275159  1
  O2-  O423  1  0.82808226  0.41633015  0.14663121  1
  O2-  O424  1  0.84389655  0.41839780  0.48288841  1
  O2-  O425  1  0.85276669  0.49220220  0.86455723  1
  O2-  O426  1  0.83010107  0.65974048  0.13976378  1
  O2-  O427  1  0.83907463  0.67007085  0.48687145  1
  O2-  O428  1  0.85745931  0.66391916  0.84073853  1
  O2-  O429  1  0.84292034  0.91340378  0.14443916  1
  O2-  O430  1  0.83658570  0.91629847  0.48227201  1
  O2-  O431  1  0.84411130  0.90477264  0.82625214  1
  O2-  O432  1  0.16089914  0.08990715  0.18489844  1
  O2-  O433  1  0.21572243  0.05432935  0.54217733  1
  O2-  O434  1  0.18703736  0.09514263  0.83997068  1
  O2-  O435  1  0.15199898  0.33813836  0.18914194  1
  O2-  O436  1  0.16712106  0.34159447  0.51960454  1
  O2-  O437  1  0.15439129  0.33128377  0.84870210  1
  O2-  O438  1  0.17819840  0.59468159  0.18897232  1
  O2-  O439  1  0.16716383  0.58952645  0.52058840  1
  O2-  O440  1  0.15556056  0.57664325  0.84204392  1
  O2-  O441  1  0.13994058  0.82102235  0.18494026  1
  O2-  O442  1  0.16526262  0.82669926  0.52396362  1
  O2-  O443  1  0.16518137  0.82900872  0.84011966  1
  O2-  O444  1  0.45698213  0.01797918  0.16185448  1
  O2-  O445  1  0.43103185  0.07582244  0.51185224  1
  O2-  O446  1  0.40911663  0.08257980  0.84499890  1
  O2-  O447  1  0.40629341  0.33790997  0.18934633  1
  O2-  O448  1  0.42436352  0.35227806  0.52742965  1
  O2-  O449  1  0.41630191  0.33711472  0.84254943  1
  O2-  O450  1  0.42547116  0.58083628  0.18798373  1
  O2-  O451  1  0.42020684  0.59407795  0.52881266  1
  O2-  O452  1  0.43434348  0.55580228  0.86334409  1
  O2-  O453  1  0.40858710  0.81639622  0.19357098  1
  O2-  O454  1  0.44020674  0.84379490  0.51977407  1
  O2-  O455  1  0.40663054  0.82666380  0.84287362  1
  O2-  O456  1  0.66052568  0.09101589  0.20526569  1
  O2-  O457  1  0.65501450  0.05254639  0.52482903  1
  O2-  O458  1  0.67168766  0.05839472  0.83518822  1
  O2-  O459  1  0.66181488  0.34267083  0.18661561  1
  O2-  O460  1  0.67325165  0.35332383  0.52997933  1
  O2-  O461  1  0.67988230  0.35226641  0.85631935  1
  O2-  O462  1  0.65660170  0.57743982  0.17256327  1
  O2-  O463  1  0.67385180  0.59017462  0.52794529  1
  O2-  O464  1  0.67729193  0.58413474  0.85050614  1
  O2-  O465  1  0.68077384  0.82832021  0.18449701  1
  O2-  O466  1  0.67228439  0.81671599  0.50825260  1
  O2-  O467  1  0.66916380  0.82051131  0.84579855  1
  O2-  O468  1  0.92102277  0.07654334  0.18781130  1
  O2-  O469  1  0.91646701  0.08187893  0.51812105  1
  O2-  O470  1  0.91836614  0.08109161  0.85409191  1
  O2-  O471  1  0.90753339  0.32859901  0.18411914  1
  O2-  O472  1  0.92275850  0.32617976  0.53560381  1
  O2-  O473  1  0.89765750  0.33487380  0.84244661  1
  O2-  O474  1  0.90124043  0.58356479  0.19477379  1
  O2-  O475  1  0.92526825  0.58730558  0.51622060  1
  O2-  O476  1  0.89732709  0.63658712  0.79382497  1
  O2-  O477  1  0.91120171  0.82158273  0.19457494  1
  O2-  O478  1  0.92715566  0.83985402  0.51901608  1
  O2-  O479  1  0.92834972  0.83053266  0.86012237  1
  O2-  O480  1  0.17245698  0.08297973  0.30469035  1
  O2-  O481  1  0.16878081  0.08598870  0.64949224  1
  O2-  O482  1  0.11498258  0.10104039  1.01217242  1
  O2-  O483  1  0.15612818  0.32929199  0.31592576  1
  O2-  O484  1  0.17243854  0.34730652  0.63798659  1
  O2-  O485  1  0.17208948  0.33439236  0.97381620  1
  O2-  O486  1  0.16551290  0.57950033  0.31556776  1
  O2-  O487  1  0.15946985  0.59165191  0.64219364  1
  O2-  O488  1  0.16547115  0.57641619  0.96530237  1
  O2-  O489  1  0.13229724  0.81598040  0.30837255  1
  O2-  O490  1  0.16062872  0.82370462  0.64422417  1
  O2-  O491  1  0.15596766  0.81035089  0.96105484  1
  O2-  O492  1  0.40253341  0.10183018  0.39326025  1
  O2-  O493  1  0.34484428  0.06034288  0.61309276  1
  O2-  O494  1  0.34928293  0.07405475  0.97045889  1
  O2-  O495  1  0.41097061  0.33617543  0.31171601  1
  O2-  O496  1  0.42319977  0.34927876  0.65001601  1
  O2-  O497  1  0.40638632  0.34173312  0.96530275  1
  O2-  O498  1  0.44616548  0.60185948  0.31437256  1
  O2-  O499  1  0.39669003  0.58586021  0.64869114  1
  O2-  O500  1  0.43560706  0.61891313  0.96436104  1
  O2-  O501  1  0.40901607  0.80183827  0.30986747  1
  O2-  O502  1  0.41312766  0.83029413  0.64069847  1
  O2-  O503  1  0.41484572  0.83795430  0.99633546  1
  O2-  O504  1  0.65862062  0.08429575  0.33086991  1
  O2-  O505  1  0.67199599  0.07849374  0.64951170  1
  O2-  O506  1  0.66090526  0.08584449  0.95916616  1
  O2-  O507  1  0.66942310  0.35681638  0.31352080  1
  O2-  O508  1  0.67049691  0.33455926  0.65018845  1
  O2-  O509  1  0.67593982  0.33830426  0.97388845  1
  O2-  O510  1  0.67914067  0.59742186  0.32972798  1
  O2-  O511  1  0.68566567  0.58112897  0.64837901  1
  O2-  O512  1  0.68406443  0.58955348  0.97737618  1
  O2-  O513  1  0.68540679  0.83819964  0.31020012  1
  O2-  O514  1  0.68295848  0.84142184  0.65799830  1
  O2-  O515  1  0.67959328  0.83172700  0.97019508  1
  O2-  O516  1  0.92160481  0.08529374  0.31576891  1
  O2-  O517  1  0.92404252  0.09436348  0.64220787  1
  O2-  O518  1  0.93604775  0.09198568  0.97037782  1
  O2-  O519  1  0.91477923  0.32991279  0.31242879  1
  O2-  O520  1  0.92135216  0.32238035  0.60267719  1
  O2-  O521  1  0.93508825  0.38516347  0.96707679  1
  O2-  O522  1  0.91164072  0.58073334  0.32083762  1
  O2-  O523  1  0.92186647  0.57581031  0.63592258  1
  O2-  O524  1  0.90425229  0.57531578  0.97370944  1
  O2-  O525  1  0.91519732  0.82481858  0.32035759  1
  O2-  O526  1  0.92503179  0.83384955  0.64225613  1
  O2-  O527  1  0.92318973  0.83684546  0.98074687  1
  O2-  O528  1  0.08551822  0.16158156  0.02816670  1
  O2-  O529  1  0.08953022  0.16373972  0.35396591  1
  O2-  O530  1  0.13789689  0.20913164  0.69609984  1
  O2-  O531  1  0.08947809  0.42089652  0.02063547  1
  O2-  O532  1  0.07690758  0.41244550  0.35944581  1
  O2-  O533  1  0.07155642  0.41381484  0.66659923  1
  O2-  O534  1  0.07865763  0.65283279  0.00750038  1
  O2-  O535  1  0.07684387  0.66481771  0.35164739  1
  O2-  O536  1  0.09425022  0.67507636  0.68423691  1
  O2-  O537  1  0.09146312  0.90183425  0.00143683  1
  O2-  O538  1  0.07552889  0.89999964  0.35417066  1
  O2-  O539  1  0.08156475  0.91938040  0.68686271  1
  O2-  O540  1  0.28700967  0.18430670  0.01643191  1
  O2-  O541  1  0.31063149  0.17838374  0.35829473  1
  O2-  O542  1  0.34125129  0.18366320  0.67918548  1
  O2-  O543  1  0.33689552  0.43275151  0.00820673  1
  O2-  O544  1  0.31959478  0.40066652  0.37135257  1
  O2-  O545  1  0.33300260  0.42840483  0.67989363  1
  O2-  O546  1  0.32525180  0.65441963  0.01644900  1
  O2-  O547  1  0.33022459  0.64715149  0.36304740  1
  O2-  O548  1  0.31743233  0.66187825  0.67515394  1
  O2-  O549  1  0.31295079  0.91431450  0.01057497  1
  O2-  O550  1  0.27715309  0.93598407  0.38648953  1
  O2-  O551  1  0.32314661  0.91723650  0.67369719  1
  O2-  O552  1  0.60969160  0.18524897  0.01264349  1
  O2-  O553  1  0.57325202  0.15582416  0.38472237  1
  O2-  O554  1  0.58509951  0.16855330  0.69178178  1
  O2-  O555  1  0.54054320  0.34255216  0.02949174  1
  O2-  O556  1  0.57683556  0.42609896  0.35491155  1
  O2-  O557  1  0.58340076  0.41947296  0.68869516  1
  O2-  O558  1  0.59051787  0.66401905  0.01796830  1
  O2-  O559  1  0.59683855  0.68107039  0.36621631  1
  O2-  O560  1  0.60213425  0.66258317  0.68620341  1
  O2-  O561  1  0.58733712  0.92125980  -0.01509236  1
  O2-  O562  1  0.58609426  0.90633991  0.32504086  1
  O2-  O563  1  0.58140496  0.91327038  0.68624483  1
  O2-  O564  1  0.79189826  0.12298613  0.04567698  1
  O2-  O565  1  0.83302404  0.16407423  0.35700835  1
  O2-  O566  1  0.83685412  0.17072433  0.67743537  1
  O2-  O567  1  0.83165236  0.42245469  0.02654784  1
  O2-  O568  1  0.84002929  0.42008771  0.35893453  1
  O2-  O569  1  0.83942632  0.40958993  0.70272199  1
  O2-  O570  1  0.84022980  0.67300711  0.01913893  1
  O2-  O571  1  0.83267163  0.67002534  0.36508159  1
  O2-  O572  1  0.85241267  0.66216009  0.68326661  1
  O2-  O573  1  0.84353784  0.91919679  0.01849118  1
  O2-  O574  1  0.84304707  0.92052837  0.35702959  1
  O2-  O575  1  0.85131885  0.91722525  0.67695545  1
