# generated using pymatgen
data_H2O
_symmetry_space_group_name_H-M   'P 1'
_cell_length_a   17.99806001
_cell_length_b   17.99749787
_cell_length_c   22.00189227
_cell_angle_alpha   90.00445407
_cell_angle_beta   89.99843469
_cell_angle_gamma   119.98721480
_symmetry_Int_Tables_number   1
_chemical_formula_structural   H2O
_chemical_formula_sum   'H384 O192'
_cell_volume   6172.83157302
_cell_formula_units_Z   192
loop_
 _symmetry_equiv_pos_site_id
 _symmetry_equiv_pos_as_xyz
  1  'x, y, z'
loop_
 _atom_type_symbol
 _atom_type_oxidation_number
  H+  1.0
  O2-  -2.0
loop_
 _atom_site_type_symbol
 _atom_site_label
 _atom_site_symmetry_multiplicity
 _atom_site_fract_x
 _atom_site_fract_y
 _atom_site_fract_z
 _atom_site_occupancy
  H+  H0  1  0.11376613  0.13803139  0.02146295  1
  H+  H1  1  0.91065110  0.32323010  0.26938663  1
  H+  H2  1  0.51620937  0.16886149  0.82885759  1
  H+  H3  1  0.04535692  0.91148729  0.17084968  1
  H+  H4  1  0.64545886  0.55240312  0.15278068  1
  H+  H5  1  0.27553145  0.63927477  0.67720549  1
  H+  H6  1  0.13240453  0.53099113  0.17104849  1
  H+  H7  1  0.34775568  0.62305926  0.34163587  1
  H+  H8  1  0.11186852  0.37854764  0.49136534  1
  H+  H9  1  0.52144590  0.88598617  0.49492099  1
  H+  H10  1  0.13650391  0.61440764  0.66387221  1
  H+  H11  1  0.51835831  0.88383371  0.66721273  1
  H+  H12  1  0.38243825  0.12389150  0.83392007  1
  H+  H13  1  0.26177525  0.14493409  0.16461642  1
  H+  H14  1  0.08026153  0.67606371  0.06997225  1
  H+  H15  1  0.61101657  0.37183253  0.48775912  1
  H+  H16  1  0.10008104  0.71869917  0.67028838  1
  H+  H17  1  0.86237970  0.72894304  0.67303920  1
  H+  H18  1  0.39007072  0.36767432  0.17440833  1
  H+  H19  1  0.38455112  0.52871786  0.66198376  1
  H+  H20  1  0.61153845  0.20242976  0.73868221  1
  H+  H21  1  0.61286332  0.63359040  0.33186424  1
  H+  H22  1  0.67691511  0.80294280  0.93646903  1
  H+  H23  1  0.72591731  0.37558054  0.64706708  1
  H+  H24  1  0.15295999  0.78684495  0.83549777  1
  H+  H25  1  0.12575661  1.00867026  0.16904701  1
  H+  H26  1  0.85264343  0.46809661  0.32543873  1
  H+  H27  1  0.89269018  0.39218789  -0.01023300  1
  H+  H28  1  0.71911090  0.87784875  0.17749377  1
  H+  H29  1  0.71724788  0.35850158  0.32052723  1
  H+  H30  1  0.38811656  0.85147593  0.33329330  1
  H+  H31  1  0.88466198  0.10555078  0.51795206  1
  H+  H32  1  0.77367899  0.39149060  0.16676774  1
  H+  H33  1  0.51990486  0.52646147  0.71839073  1
  H+  H34  1  -0.02763668  0.37075281  0.17433972  1
  H+  H35  1  0.74347834  0.12736989  -0.02227278  1
  H+  H36  1  0.39221136  0.35752615  0.50726449  1
  H+  H37  1  0.10449152  0.96974505  0.66939126  1
  H+  H38  1  0.63912610  0.63219458  0.17236051  1
  H+  H39  1  0.62660082  0.33074674  0.16635755  1
  H+  H40  1  0.73940881  0.37178664  0.00867283  1
  H+  H41  1  0.99157077  0.35749221  0.82661626  1
  H+  H42  1  0.10823657  0.64639638  0.01061246  1
  H+  H43  1  0.47647467  0.60802689  0.66782869  1
  H+  H44  1  0.88509125  0.37323716  0.17914229  1
  H+  H45  1  0.86174415  0.48454266  0.16730912  1
  H+  H46  1  0.61668278  0.93421053  0.82179048  1
  H+  H47  1  0.60508634  0.59173153  0.68582304  1
  H+  H48  1  0.97629413  0.37235185  0.66123128  1
  H+  H49  1  0.63841355  0.80021751  0.84429125  1
  H+  H50  1  0.15262943  0.50654065  0.98122073  1
  H+  H51  1  0.66234452  0.26438990  0.16724719  1
  H+  H52  1  0.60641570  0.23517155  0.34174807  1
  H+  H53  1  0.57267244  0.67343188  0.42697213  1
  H+  H54  1  0.85313175  0.25878185  0.82903309  1
  H+  H55  1  0.10040480  0.38621038  0.15490782  1
  H+  H56  1  0.27636229  0.38249720  0.82994046  1
  H+  H57  1  0.61385120  0.47217470  0.66582669  1
  H+  H58  1  0.46944482  0.61883629  0.50167446  1
  H+  H59  1  0.41974916  0.57431907  0.37159709  1
  H+  H60  1  0.35535555  0.48858273  0.32896206  1
  H+  H61  1  0.40820230  0.61292442  0.84149862  1
  H+  H62  1  0.90982982  0.87275922  0.16393241  1
  H+  H63  1  0.82934253  0.15135947  0.14917993  1
  H+  H64  1  0.13310638  0.27068362  1.00480780  1
  H+  H65  1  0.86306764  -0.01383949  0.68105321  1
  H+  H66  1  0.96939932  0.35334147  0.32870650  1
  H+  H67  1  0.71646499  0.58280969  0.50060579  1
  H+  H68  1  1.01467511  0.88418955  0.67662878  1
  H+  H69  1  0.38010117  0.08676280  0.35600356  1
  H+  H70  1  0.45133383  1.06804656  0.65863133  1
  H+  H71  1  0.07154642  0.44058922  0.84805611  1
  H+  H72  1  0.44465292  0.10257864  0.59416145  1
  H+  H73  1  0.13802923  0.78681989  0.14334817  1
  H+  H74  1  0.37285352  0.22926063  0.67218316  1
  H+  H75  1  0.75417081  0.40579195  0.82019483  1
  H+  H76  1  0.34942602  0.00683028  0.19629805  1
  H+  H77  1  0.80526781  0.11535727  0.79440538  1
  H+  H78  1  0.73648009  0.14328396  0.80520466  1
  H+  H79  1  0.08027589  0.15958023  0.44093276  1
  H+  H80  1  0.65630161  0.10379838  0.18195023  1
  H+  H81  1  0.96871859  0.61544740  0.99643782  1
  H+  H82  1  0.62878216  0.52615645  0.83859245  1
  H+  H83  1  0.63765848  0.77222790  0.32482592  1
  H+  H84  1  0.40065969  0.77771192  -0.00185537  1
  H+  H85  1  0.39901451  0.53647564  0.18594211  1
  H+  H86  1  0.38341785  0.77545273  0.66126556  1
  H+  H87  1  0.98137795  0.11001737  1.00583725  1
  H+  H88  1  0.40125780  0.11785072  0.99996358  1
  H+  H89  1  0.59584490  0.61129642  0.78742370  1
  H+  H90  1  0.85855711  0.48477976  1.01475087  1
  H+  H91  1  0.81512701  0.15763507  0.56815202  1
  H+  H92  1  0.38412821  0.52353815  1.00080879  1
  H+  H93  1  0.85460935  0.22217198  0.34304837  1
  H+  H94  1  0.37244585  1.00693561  0.83097227  1
  H+  H95  1  0.39910645  0.11277188  0.49645631  1
  H+  H96  1  0.12325156  0.13242996  0.17874708  1
  H+  H97  1  0.62644942  0.02565981  0.65315813  1
  H+  H98  1  0.29175172  0.41483653  0.16729811  1
  H+  H99  1  0.27460353  0.87590910  0.34783854  1
  H+  H100  1  0.04545678  0.92909957  0.50408002  1
  H+  H101  1  0.64167067  0.36540960  0.00377879  1
  H+  H102  1  0.21862607  0.13069383  0.33207140  1
  H+  H103  1  0.23615464  0.52850609  0.94563915  1
  H+  H104  1  0.62955556  1.00410085  0.18580909  1
  H+  H105  1  0.97097510  0.13446336  0.17654404  1
  H+  H106  1  0.17505672  0.88077967  0.98916185  1
  H+  H107  1  0.37794002  0.22444760  0.48643374  1
  H+  H108  1  0.65846388  0.32072570  0.56265333  1
  H+  H109  1  0.13614773  0.76242931  0.49798468  1
  H+  H110  1  0.85566599  0.90164974  0.01715074  1
  H+  H111  1  0.86921121  0.23719197  0.65644188  1
  H+  H112  1  0.61322235  0.31826897  0.83565388  1
  H+  H113  1  0.47045355  0.85974760  0.17817925  1
  H+  H114  1  0.13749574  0.26903669  0.84779127  1
  H+  H115  1  0.87226711  0.73300826  0.15355186  1
  H+  H116  1  0.30413524  0.65092214  0.82819307  1
  H+  H117  1  0.40069402  0.86665226  0.99472738  1
  H+  H118  1  0.60520695  0.38432429  0.33395062  1
  H+  H119  1  0.95866085  0.95617098  0.95168005  1
  H+  H120  1  0.88531893  0.09907063  0.86031219  1
  H+  H121  1  0.10358300  0.37844619  0.00704292  1
  H+  H122  1  1.02486066  0.64430207  0.82921668  1
  H+  H123  1  0.33429328  0.95157598  0.67145276  1
  H+  H124  1  0.63722645  0.86137410  0.33124928  1
  H+  H125  1  0.64655798  1.02573264  0.47200125  1
  H+  H126  1  0.73200379  0.61482382  0.66013641  1
  H+  H127  1  0.13507112  0.51602785  0.50897432  1
  H+  H128  1  0.52371557  0.63244767  0.32791889  1
  H+  H129  1  0.11799160  0.65367822  0.82647743  1
  H+  H130  1  -0.01822900  0.11871222  0.66608447  1
  H+  H131  1  1.03355274  0.89937661  0.35058789  1
  H+  H132  1  0.15585639  0.05530422  0.58589738  1
  H+  H133  1  0.88672239  1.02724430  0.33131408  1
  H+  H134  1  0.28709154  0.64046110  0.00908857  1
  H+  H135  1  0.59987396  0.73015970  0.48747732  1
  H+  H136  1  0.88996987  0.27593250  0.51491471  1
  H+  H137  1  0.91315725  0.58808106  0.56625968  1
  H+  H138  1  0.28042277  0.90010310  0.82698904  1
  H+  H139  1  0.60721818  0.43320679  0.18016746  1
  H+  H140  1  0.10723412  0.63188376  0.33814581  1
  H+  H141  1  0.19803456  0.84841666  0.64644470  1
  H+  H142  1  0.36301071  0.21979464  1.01556676  1
  H+  H143  1  0.88456773  0.02690901  1.00804707  1
  H+  H144  1  0.26909452  0.38473291  0.01411664  1
  H+  H145  1  0.13251363  0.37173499  0.66728064  1
  H+  H146  1  0.88226275  0.11409257  0.33731877  1
  H+  H147  1  0.65181172  0.57776337  0.93717129  1
  H+  H148  1  0.12727495  0.10635392  0.84589709  1
  H+  H149  1  0.84386802  0.92310595  0.19445007  1
  H+  H150  1  0.11031741  0.23681471  0.32828341  1
  H+  H151  1  0.63330014  0.00635313  0.33406325  1
  H+  H152  1  0.10793617  0.13917470  0.33859161  1
  H+  H153  1  0.11456794  0.85456537  0.65737937  1
  H+  H154  1  0.62090001  0.47458514  0.01083716  1
  H+  H155  1  0.86100368  0.97189161  0.49470268  1
  H+  H156  1  0.12340922  0.07515227  0.49195599  1
  H+  H157  1  0.85816241  1.01010982  0.16808563  1
  H+  H158  1  0.72318834  0.35309087  0.50512783  1
  H+  H159  1  0.97008651  0.60997034  0.50561900  1
  H+  H160  1  0.30075952  0.89620157  0.00966961  1
  H+  H161  1  1.02484020  0.39837808  0.99823242  1
  H+  H162  1  0.52271056  0.87901393  0.34135777  1
  H+  H163  1  0.38780283  0.90295276  0.67597117  1
  H+  H164  1  0.47368670  0.44614305  0.94983074  1
  H+  H165  1  0.34092684  0.42988585  0.10485504  1
  H+  H166  1  0.63253539  0.14949750  -0.00906353  1
  H+  H167  1  0.61279440  0.05041546  0.82896628  1
  H+  H168  1  0.62821404  0.60513815  1.00027724  1
  H+  H169  1  0.88516549  0.61822050  0.17263393  1
  H+  H170  1  0.11175714  0.48368765  0.68150630  1
  H+  H171  1  0.54300633  0.38588268  0.82444982  1
  H+  H172  1  0.40763051  0.03302830  0.99589563  1
  H+  H173  1  0.97919737  0.36328606  0.50255802  1
  H+  H174  1  0.22159824  0.35523175  0.52165507  1
  H+  H175  1  0.09658815  0.94154794  0.40771528  1
  H+  H176  1  0.39919259  0.36520320  0.82997254  1
  H+  H177  1  0.88695985  0.32122339  0.88848384  1
  H+  H178  1  0.15423990  0.78463951  0.99822167  1
  H+  H179  1  0.49868660  0.12565164  0.16652441  1
  H+  H180  1  0.92119917  0.80173053  0.50473425  1
  H+  H181  1  0.65218978  0.28322505  0.66050812  1
  H+  H182  1  0.51813497  0.13966794  0.34522211  1
  H+  H183  1  0.51578242  0.90061357  0.82536760  1
  H+  H184  1  0.63410561  0.51899528  0.32429883  1
  H+  H185  1  0.85821943  0.38695153  0.49954179  1
  H+  H186  1  0.01153771  0.88100014  0.82914486  1
  H+  H187  1  0.27112922  0.87996239  0.49766535  1
  H+  H188  1  0.39422938  0.02084507  0.50391397  1
  H+  H189  1  0.60358809  0.87910461  0.16443510  1
  H+  H190  1  0.63815575  0.15976602  0.68419604  1
  H+  H191  1  0.16711526  0.84356348  0.28039125  1
  H+  H192  1  0.13181075  0.35349248  0.84777199  1
  H+  H193  1  0.62940648  0.50032473  0.50920293  1
  H+  H194  1  0.61538363  0.22895243  0.49185640  1
  H+  H195  1  0.36643605  0.64269244  0.67290736  1
  H+  H196  1  0.37771985  0.22908313  0.81926104  1
  H+  H197  1  0.48710494  0.59480651  0.85138783  1
  H+  H198  1  0.07852192  0.05439682  0.61512148  1
  H+  H199  1  0.89073040  0.75974273  0.32385535  1
  H+  H200  1  0.34357602  0.15779952  0.30608263  1
  H+  H201  1  0.83400848  0.42517113  0.07615979  1
  H+  H202  1  0.36515500  0.47088563  0.83055892  1
  H+  H203  1  0.15174123  0.88242202  0.14715796  1
  H+  H204  1  0.82816077  0.38029742  0.82169645  1
  H+  H205  1  -0.01811701  0.90766124  0.00019373  1
  H+  H206  1  0.86133511  0.39454636  0.66890485  1
  H+  H207  1  0.88448184  0.52503714  0.83891949  1
  H+  H208  1  0.88224974  0.86676886  0.66179184  1
  H+  H209  1  0.14199741  0.87422621  0.34020181  1
  H+  H210  1  0.21699679  0.35145077  0.30770142  1
  H+  H211  1  0.61318183  0.73736832  0.16547393  1
  H+  H212  1  0.64579293  0.27131160  1.00061264  1
  H+  H213  1  0.92774747  0.83528883  0.89766720  1
  H+  H214  1  0.10729922  0.38283461  0.32987690  1
  H+  H215  1  0.87793782  0.61196915  -0.00678360  1
  H+  H216  1  0.60902927  0.18268212  0.83313767  1
  H+  H217  1  0.63984767  0.78445907  0.66556468  1
  H+  H218  1  0.34298723  0.09194698  0.19714444  1
  H+  H219  1  0.87014115  0.14490162  -0.00187071  1
  H+  H220  1  0.77114380  0.88459578  0.33817334  1
  H+  H221  1  0.22064363  0.60780026  0.50918891  1
  H+  H222  1  0.38410674  0.77243263  0.50718656  1
  H+  H223  1  0.64972870  0.11530629  0.46997085  1
  H+  H224  1  0.71441818  0.11041004  0.64372704  1
  H+  H225  1  0.76706661  0.63488993  0.34128162  1
  H+  H226  1  0.35829860  0.24540185  0.33136281  1
  H+  H227  1  0.38054259  0.77190955  0.17878226  1
  H+  H228  1  0.35846081  0.71733352  0.33961049  1
  H+  H229  1  0.72384624  0.10284572  0.33213102  1
  H+  H230  1  0.06242090  0.86300999  0.03483261  1
  H+  H231  1  0.66304060  0.83760868  0.23803939  1
  H+  H232  1  0.62902787  0.74910987  0.00281084  1
  H+  H233  1  0.41153741  0.77637836  0.83979000  1
  H+  H234  1  0.81509213  0.68760279  0.51422411  1
  H+  H235  1  0.76944413  0.89704966  0.67978433  1
  H+  H236  1  0.52288361  0.37399630  0.48913300  1
  H+  H237  1  0.01288727  0.14039258  0.33855650  1
  H+  H238  1  0.51796766  0.63555502  0.01411453  1
  H+  H239  1  0.10373480  0.62233876  0.49517436  1
  H+  H240  1  0.72520904  0.86146581  0.50760932  1
  H+  H241  1  0.72607864  0.19245722  0.12509753  1
  H+  H242  1  0.36420995  0.39608425  0.01011744  1
  H+  H243  1  0.18175875  0.27887328  0.15583237  1
  H+  H244  1  0.87540271  0.64802373  0.49845570  1
  H+  H245  1  0.16888689  0.56418815  0.81645775  1
  H+  H246  1  0.85783355  -0.03035266  0.83373041  1
  H+  H247  1  0.49817572  0.15885081  0.14607087  1
  H+  H248  1  0.66024207  0.72728744  0.85015125  1
  H+  H249  1  0.76980822  0.63226789  0.00214248  1
  H+  H250  1  0.38925075  0.36670485  0.65743740  1
  H+  H251  1  0.47202853  0.37520365  0.32795155  1
  H+  H252  1  0.72329320  0.85097810  1.00343421  1
  H+  H253  1  0.22684463  0.11206291  1.00030860  1
  H+  H254  1  0.88191879  0.61066917  0.32972787  1
  H+  H255  1  0.87297957  0.64362448  0.82813308  1
  H+  H256  1  0.83129046  0.91240073  0.43524604  1
  H+  H257  1  0.52297018  0.13236554  0.48914416  1
  H+  H258  1  0.21884627  0.60948403  0.32651294  1
  H+  H259  1  0.77614261  0.86637919  0.82860765  1
  H+  H260  1  0.11867592  0.24197493  0.68023253  1
  H+  H261  1  0.34991219  0.16899860  0.75977710  1
  H+  H262  1  0.60591293  0.38073594  0.66305792  1
  H+  H263  1  0.34243748  0.41316444  0.56896913  1
  H+  H264  1  0.52475603  0.90529053  0.01108575  1
  H+  H265  1  0.97335257  0.61349768  0.66026793  1
  H+  H266  1  0.10599707  0.98257332  0.83134695  1
  H+  H267  1  0.07807677  0.66672073  0.73294400  1
  H+  H268  1  0.51066483  0.36810698  0.16349864  1
  H+  H269  1  0.02277632  0.12477917  0.49992930  1
  H+  H270  1  0.36167705  0.63932216  0.17112736  1
  H+  H271  1  0.38944984  0.15138459  0.67026804  1
  H+  H272  1  1.01926940  0.64340990  0.16144146  1
  H+  H273  1  0.49322252  0.38781532  -0.00929960  1
  H+  H274  1  0.61088437  0.88566961  0.49542918  1
  H+  H275  1  0.36580843  0.96129315  0.34804061  1
  H+  H276  1  0.14484864  0.30029318  0.25279967  1
  H+  H277  1  0.89836569  0.87651386  0.50572925  1
  H+  H278  1  0.37453821  0.64242117  0.01366593  1
  H+  H279  1  0.86160997  0.88845475  0.33789263  1
  H+  H280  1  0.36624811  0.89135224  0.16542337  1
  H+  H281  1  0.13798778  1.02527412  0.00311828  1
  H+  H282  1  0.86482662  0.64111314  0.67245901  1
  H+  H283  1  0.27026852  0.39499090  0.67499389  1
  H+  H284  1  0.35675517  0.22465028  0.16584980  1
  H+  H285  1  0.52486961  0.64760326  0.17177198  1
  H+  H286  1  0.35590803  0.63648420  0.49479036  1
  H+  H287  1  0.13227414  1.03707340  0.33618492  1
  H+  H288  1  0.27989440  0.89151127  0.14457157  1
  H+  H289  1  0.83160647  0.66627524  0.05914092  1
  H+  H290  1  0.82806268  0.67008773  0.40123134  1
  H+  H291  1  0.86079313  0.25000888  0.14944562  1
  H+  H292  1  0.10828195  0.47209659  0.33457672  1
  H+  H293  1  1.02197365  0.13380959  0.83167545  1
  H+  H294  1  0.41990168  0.58894224  0.24778289  1
  H+  H295  1  0.95699725  0.44581484  0.93943061  1
  H+  H296  1  0.91898132  0.07196297  0.57026977  1
  H+  H297  1  0.65293842  0.31948600  0.26486748  1
  H+  H298  1  0.42030569  0.58119986  0.93996426  1
  H+  H299  1  0.57539695  0.92393427  0.72701215  1
  H+  H300  1  0.07423410  0.65074516  0.43449450  1
  H+  H301  1  0.43309504  0.83438669  0.89967960  1
  H+  H302  1  0.18537797  0.58819644  0.88695247  1
  H+  H303  1  0.97759079  0.79250570  0.29098126  1
  H+  H304  1  0.82403720  0.42264496  0.72530049  1
  H+  H305  1  0.85039200  0.47109893  0.50032064  1
  H+  H306  1  0.57989611  0.17456968  0.41767011  1
  H+  H307  1  0.84272273  0.67432871  0.76993778  1
  H+  H308  1  0.07789089  0.92174574  0.76567153  1
  H+  H309  1  0.90978860  0.10352592  0.23461188  1
  H+  H310  1  0.57851696  0.92057939  0.10740213  1
  H+  H311  1  0.08197633  0.93534759  0.08324975  1
  H+  H312  1  0.63842928  0.17278694  0.09209567  1
  H+  H313  1  0.85120371  0.37861294  0.32900172  1
  H+  H314  1  0.33585760  0.66663004  0.10846424  1
  H+  H315  1  0.88221242  0.52755166  0.65752516  1
  H+  H316  1  0.35554229  0.67047113  0.76696803  1
  H+  H317  1  0.32368441  0.66372784  0.43535585  1
  H+  H318  1  0.91481607  0.57991547  0.90088414  1
  H+  H319  1  0.63254092  0.86958188  0.66443027  1
  H+  H320  1  0.38897979  0.06499258  0.28607097  1
  H+  H321  1  0.57783118  0.66939219  0.07527279  1
  H+  H322  1  0.42219594  0.32749275  0.56404442  1
  H+  H323  1  0.48051561  0.36885175  0.65473186  1
  H+  H324  1  0.34835439  0.17219790  0.42473762  1
  H+  H325  1  0.33364582  0.90752427  0.44058962  1
  H+  H326  1  0.30045480  0.39639894  0.37598098  1
  H+  H327  1  0.15050876  0.82503104  0.55191991  1
  H+  H328  1  0.91413731  0.58961220  0.23401893  1
  H+  H329  1  0.43169720  0.34116257  0.88902813  1
  H+  H330  1  0.91934810  0.06720509  0.91346632  1
  H+  H331  1  0.07908667  0.16723691  0.08067507  1
  H+  H332  1  0.82811896  0.92064548  0.76013622  1
  H+  H333  1  0.67037272  0.57877831  0.60012535  1
  H+  H334  1  0.41768012  0.82696103  0.27164057  1
  H+  H335  1  0.83809271  0.18542870  0.04839864  1
  H+  H336  1  0.08578188  0.41067436  0.43070725  1
  H+  H337  1  0.33293819  0.42060041  0.73202083  1
  H+  H338  1  0.58144035  0.41383721  0.39592146  1
  H+  H339  1  0.07418615  0.41802276  0.73883212  1
  H+  H340  1  0.76970620  0.13066528  0.50337468  1
  H+  H341  1  0.13482166  0.26401203  0.51519623  1
  H+  H342  1  0.54767297  0.98893561  0.04624824  1
  H+  H343  1  0.89344842  0.11993053  0.65805586  1
  H+  H344  1  0.08313918  0.17037922  0.77295804  1
  H+  H345  1  0.42013986  0.59596532  0.56617126  1
  H+  H346  1  0.10949589  0.64481317  0.16053437  1
  H+  H347  1  0.38506460  0.86189521  0.50933723  1
  H+  H348  1  0.91867174  0.84459996  0.60190272  1
  H+  H349  1  0.10752457  0.72095934  0.34440490  1
  H+  H350  1  0.77856503  0.65057115  0.15733527  1
  H+  H351  1  0.36186009  0.48003462  0.51778377  1
  H+  H352  1  0.37890226  0.37380831  0.32057208  1
  H+  H353  1  0.19307029  0.83845919  0.89690838  1
  H+  H354  1  0.16536234  0.58030719  0.60618125  1
  H+  H355  1  0.54106885  0.14605632  0.00211813  1
  H+  H356  1  0.16019516  0.58383678  0.26648507  1
  H+  H357  1  0.81121729  0.16114180  0.40129444  1
  H+  H358  1  0.07657192  0.42075785  0.09654655  1
  H+  H359  1  0.66669920  0.83580130  0.56703519  1
  H+  H360  1  0.97117768  0.61069133  0.32786019  1
  H+  H361  1  0.58618906  0.41103919  0.06938119  1
  H+  H362  1  0.41584578  0.33794780  0.23555466  1
  H+  H363  1  0.35331274  0.94055844  0.76845487  1
  H+  H364  1  0.89694417  0.76970194  0.83916232  1
  H+  H365  1  0.81504417  0.91769549  0.07868226  1
  H+  H366  1  0.15410571  0.07334801  0.90536107  1
  H+  H367  1  0.35904211  0.92940403  0.06950358  1
  H+  H368  1  0.66692192  0.58047623  0.26503726  1
  H+  H369  1  0.15876627  0.10321681  0.23807695  1
  H+  H370  1  0.22239459  0.61798019  0.17410889  1
  H+  H371  1  0.16389112  0.32657708  0.94312030  1
  H+  H372  1  0.92350794  0.34765495  0.59818706  1
  H+  H373  1  0.41495905  0.09216347  0.89697029  1
  H+  H374  1  0.33162228  0.16225184  0.07512237  1
  H+  H375  1  0.65008196  0.04138407  0.98226272  1
  H+  H376  1  0.66357308  0.06478395  0.26568786  1
  H+  H377  1  0.12804240  0.15854893  0.67894023  1
  H+  H378  1  0.58046337  0.90867010  0.40254466  1
  H+  H379  1  0.81696338  0.16979508  0.70754903  1
  H+  H380  1  0.15794575  0.33524653  0.60819719  1
  H+  H381  1  0.92502820  0.83612355  0.22722522  1
  H+  H382  1  0.66247688  0.10512721  0.88762225  1
  H+  H383  1  0.41277662  0.83227761  0.59960294  1
  O2-  O384  1  0.07305203  0.17270726  0.15600109  1
  O2-  O385  1  0.08345198  0.15214285  0.48489077  1
  O2-  O386  1  0.08234039  0.16773988  0.81842423  1
  O2-  O387  1  0.07647994  0.42199060  0.14211651  1
  O2-  O388  1  0.08424818  0.41097791  0.47602327  1
  O2-  O389  1  0.05598274  0.39162848  0.82147057  1
  O2-  O390  1  0.07852222  0.67334938  0.14363241  1
  O2-  O391  1  0.07321050  0.65212356  0.47977635  1
  O2-  O392  1  0.08373444  0.67873436  0.81107053  1
  O2-  O393  1  0.10269720  0.94824086  0.15276097  1
  O2-  O394  1  0.10148933  0.95618728  0.48165136  1
  O2-  O395  1  0.07593122  0.92072753  0.81159802  1
  O2-  O396  1  0.32205582  0.16441360  0.15113065  1
  O2-  O397  1  0.35626894  0.16662394  0.46818758  1
  O2-  O398  1  0.34695996  0.16837328  0.80634408  1
  O2-  O399  1  0.34870141  0.43450772  0.15044482  1
  O2-  O400  1  0.33286267  0.41607712  0.52552518  1
  O2-  O401  1  0.33495828  0.41261022  0.81201414  1
  O2-  O402  1  0.32974642  0.66617294  0.15355278  1
  O2-  O403  1  0.32468343  0.66639604  0.48073118  1
  O2-  O404  1  0.36225990  0.66939390  0.81231951  1
  O2-  O405  1  0.34458102  0.92691166  0.14579366  1
  O2-  O406  1  0.33409086  0.91236639  0.48574314  1
  O2-  O407  1  0.34388466  0.94146227  0.81362401  1
  O2-  O408  1  0.66695989  0.18318745  0.13223133  1
  O2-  O409  1  0.58406543  0.16822180  0.47113180  1
  O2-  O410  1  0.57721594  0.21148585  0.81950857  1
  O2-  O411  1  0.57222805  0.39295903  0.14847550  1
  O2-  O412  1  0.58280518  0.40433567  0.47247409  1
  O2-  O413  1  0.60597474  0.42266144  0.81637508  1
  O2-  O414  1  0.58234847  0.67602503  0.15101811  1
  O2-  O415  1  0.56144484  0.67216445  0.47090966  1
  O2-  O416  1  0.60019473  0.62261861  0.83330484  1
  O2-  O417  1  0.57338015  0.91095973  0.15221940  1
  O2-  O418  1  0.58063235  0.91409015  0.47702887  1
  O2-  O419  1  0.57332338  0.94508767  0.80426848  1
  O2-  O420  1  0.82288837  0.19500579  0.12677926  1
  O2-  O421  1  0.82797675  0.15968989  0.52470338  1
  O2-  O422  1  0.79604986  0.16351482  0.78723192  1
  O2-  O423  1  0.83404069  0.42407366  0.15128800  1
  O2-  O424  1  0.82064317  0.41015359  0.48798380  1
  O2-  O425  1  0.81355922  0.42328398  0.80682598  1
  O2-  O426  1  0.83747879  0.67210461  0.14112181  1
  O2-  O427  1  0.85434208  0.68859219  0.48307122  1
  O2-  O428  1  0.84769270  0.67889411  0.81492431  1
  O2-  O429  1  0.82755575  0.94470202  0.15926192  1
  O2-  O430  1  0.83183486  0.91085656  0.48039633  1
  O2-  O431  1  0.82969279  0.91417031  0.80950763  1
  O2-  O432  1  0.16041637  0.10522643  0.19311130  1
  O2-  O433  1  0.15293112  0.04367668  0.50596550  1
  O2-  O434  1  0.14539960  0.06579612  0.86082349  1
  O2-  O435  1  0.12675840  0.26571680  0.17387602  1
  O2-  O436  1  0.15851804  0.32372430  0.53017748  1
  O2-  O437  1  0.16723746  0.32967493  0.86324003  1
  O2-  O438  1  0.16107173  0.59040536  0.18734263  1
  O2-  O439  1  0.16112174  0.57506188  0.52623705  1
  O2-  O440  1  0.18994912  0.61185979  0.84507331  1
  O2-  O441  1  0.17661147  0.84777411  0.13232326  1
  O2-  O442  1  0.16716704  0.82414418  0.50950795  1
  O2-  O443  1  0.19272254  0.84467626  0.85229411  1
  O2-  O444  1  0.34399562  0.04801952  0.22380246  1
  O2-  O445  1  0.43010182  0.08343250  0.51351752  1
  O2-  O446  1  0.41362357  0.09002029  0.85199634  1
  O2-  O447  1  0.41516607  0.33295758  0.18962733  1
  O2-  O448  1  0.42269461  0.32659866  0.51816081  1
  O2-  O449  1  0.43427050  0.33983197  0.84432526  1
  O2-  O450  1  0.42465584  0.59546890  0.20297850  1
  O2-  O451  1  0.41048127  0.58682726  0.52167905  1
  O2-  O452  1  0.42690124  0.57547439  0.86271483  1
  O2-  O453  1  0.41083093  0.83180271  0.19497535  1
  O2-  O454  1  0.41719725  0.83232114  0.52341677  1
  O2-  O455  1  0.43351782  0.83588940  0.85452541  1
  O2-  O456  1  0.66710914  0.06219805  0.20468276  1
  O2-  O457  1  0.68490002  0.08793095  0.46317473  1
  O2-  O458  1  0.65038554  0.11036468  0.84385028  1
  O2-  O459  1  0.66873522  0.31837891  0.18570545  1
  O2-  O460  1  0.65944546  0.31788666  0.51648599  1
  O2-  O461  1  0.64538428  0.37981787  0.84996249  1
  O2-  O462  1  0.67075384  0.59999262  0.18152421  1
  O2-  O463  1  0.66434354  0.56068171  0.52460511  1
  O2-  O464  1  0.64949145  0.58387720  0.85897266  1
  O2-  O465  1  0.66008995  0.83710242  0.19208595  1
  O2-  O466  1  0.66474975  0.83528026  0.52209423  1
  O2-  O467  1  0.68281270  0.78999884  0.86116456  1
  O2-  O468  1  0.90831210  0.10517320  0.18970646  1
  O2-  O469  1  0.91674108  0.07396952  0.52502808  1
  O2-  O470  1  0.91234716  0.06437217  0.86719114  1
  O2-  O471  1  0.91287766  0.33877574  0.19065443  1
  O2-  O472  1  0.92132911  0.33883467  0.52182793  1
  O2-  O473  1  0.88695511  0.31915332  0.84361370  1
  O2-  O474  1  0.91584420  0.58866478  0.18826112  1
  O2-  O475  1  0.90987834  0.58753740  0.52062855  1
  O2-  O476  1  0.92185033  0.58369553  0.85585537  1
  O2-  O477  1  0.93397282  0.84005619  0.18218139  1
  O2-  O478  1  0.93850080  0.85839628  0.52341545  1
  O2-  O479  1  0.92947299  0.83325344  0.85322219  1
  O2-  O480  1  0.15582849  0.09757101  0.32105017  1
  O2-  O481  1  0.13369715  0.06061002  0.62646322  1
  O2-  O482  1  0.16555040  0.08471988  0.98768043  1
  O2-  O483  1  0.15185904  0.31376639  0.29713498  1
  O2-  O484  1  0.16329339  0.34105207  0.65353865  1
  O2-  O485  1  0.16325878  0.33084283  0.98852708  1
  O2-  O486  1  0.15780958  0.57899680  0.31180320  1
  O2-  O487  1  0.16826526  0.58409148  0.65169725  1
  O2-  O488  1  0.20131623  0.55401703  0.95713274  1
  O2-  O489  1  0.16540556  0.83775382  0.32452496  1
  O2-  O490  1  0.13679424  0.81872727  0.63784586  1
  O2-  O491  1  0.19592007  0.84144393  0.97977722  1
  O2-  O492  1  0.41247749  0.06958933  0.32959782  1
  O2-  O493  1  0.45626124  0.11825656  0.63773271  1
  O2-  O494  1  0.43484130  0.09376424  0.98111762  1
  O2-  O495  1  0.41299419  0.34421347  0.30982393  1
  O2-  O496  1  0.41839513  0.33804509  0.63923398  1
  O2-  O497  1  0.44533196  0.38904503  0.96827256  1
  O2-  O498  1  0.40011711  0.56390134  0.32936955  1
  O2-  O499  1  0.42034164  0.59015479  0.64874408  1
  O2-  O500  1  0.41891225  0.58394267  0.98559223  1
  O2-  O501  1  0.42039492  0.82365050  0.31715369  1
  O2-  O502  1  0.41482346  0.83560230  0.64543579  1
  O2-  O503  1  0.43146363  0.83633095  0.98011212  1
  O2-  O504  1  0.66340543  0.06706458  0.31574264  1
  O2-  O505  1  0.65223139  0.08570709  0.63907270  1
  O2-  O506  1  0.68112887  0.09885175  0.96308888  1
  O2-  O507  1  0.65315000  0.32680849  0.30973920  1
  O2-  O508  1  0.66510377  0.33617059  0.63548547  1
  O2-  O509  1  0.67690251  0.33730306  0.99169423  1
  O2-  O510  1  0.66610429  0.58066348  0.31000858  1
  O2-  O511  1  0.67102307  0.58282117  0.64559902  1
  O2-  O512  1  0.65488072  0.57353861  0.98244692  1
  O2-  O513  1  0.66988187  0.83466645  0.31327809  1
  O2-  O514  1  0.66979704  0.84384358  0.65152873  1
  O2-  O515  1  0.66689308  0.81021098  0.98081536  1
  O2-  O516  1  0.91658378  0.08924373  0.31972666  1
  O2-  O517  1  0.92151639  0.08426135  0.65119507  1
  O2-  O518  1  0.92322707  0.07990439  0.98529609  1
  O2-  O519  1  0.90860987  0.31915623  0.31472651  1
  O2-  O520  1  0.91729153  0.34225991  0.64369241  1
  O2-  O521  1  0.93444403  0.39073794  0.96026596  1
  O2-  O522  1  0.91210121  0.58360231  0.31005542  1
  O2-  O523  1  0.91403966  0.58910506  0.64346594  1
  O2-  O524  1  0.90912294  0.57937584  0.98165054  1
  O2-  O525  1  0.93804862  0.81255429  0.30256196  1
  O2-  O526  1  0.91370184  0.83835762  0.64718025  1
  O2-  O527  1  0.93343880  0.90248029  0.97452260  1
  O2-  O528  1  0.08051494  0.16609453  0.03430576  1
  O2-  O529  1  0.07696233  0.17398516  0.35104977  1
  O2-  O530  1  0.09100995  0.18007814  0.69417992  1
  O2-  O531  1  0.08175136  0.41842472  0.01797603  1
  O2-  O532  1  0.07901940  0.41133958  0.34975556  1
  O2-  O533  1  0.07905699  0.42149725  0.69400086  1
  O2-  O534  1  0.08251256  0.68026649  0.02369497  1
  O2-  O535  1  0.07490044  0.65937663  0.35511057  1
  O2-  O536  1  0.07709803  0.66003687  0.68767445  1
  O2-  O537  1  0.06966459  0.92031441  0.03795102  1
  O2-  O538  1  0.09446283  0.93513091  0.36193457  1
  O2-  O539  1  0.07604200  0.91263746  0.69053576  1
  O2-  O540  1  0.33441443  0.16017736  0.02922739  1
  O2-  O541  1  0.32559620  0.18095327  0.33950643  1
  O2-  O542  1  0.35104496  0.17065725  0.68824993  1
  O2-  O543  1  0.32989847  0.41961331  0.02899272  1
  O2-  O544  1  0.30981002  0.40615015  0.33231305  1
  O2-  O545  1  0.33231527  0.42488540  0.68674152  1
  O2-  O546  1  0.34399181  0.67257888  0.02858994  1
  O2-  O547  1  0.32085111  0.65741155  0.35490045  1
  O2-  O548  1  0.33679918  0.67198134  0.69089646  1
  O2-  O549  1  0.36158279  0.92832884  0.02357874  1
  O2-  O550  1  0.33493830  0.90019542  0.36155805  1
  O2-  O551  1  0.37723225  0.94754460  0.69585922  1
  O2-  O552  1  0.60382852  0.17754740  0.01334504  1
  O2-  O553  1  0.57751884  0.17582041  0.36149530  1
  O2-  O554  1  0.65221998  0.21398599  0.70528811  1
  O2-  O555  1  0.59088375  0.41260477  0.02421106  1
  O2-  O556  1  0.57849293  0.41760516  0.35031423  1
  O2-  O557  1  0.57571995  0.41142457  0.67729045  1
  O2-  O558  1  0.57921281  0.66673963  0.02936617  1
  O2-  O559  1  0.58343009  0.66664321  0.34263743  1
  O2-  O560  1  0.55889799  0.58832220  0.71511933  1
  O2-  O561  1  0.57361369  0.95497520  0.03342020  1
  O2-  O562  1  0.58391403  0.91057477  0.35649322  1
  O2-  O563  1  0.57920717  0.91509813  0.68256505  1
  O2-  O564  1  0.83882012  0.17641710  0.00383989  1
  O2-  O565  1  0.82235733  0.16014015  0.35782906  1
  O2-  O566  1  0.83699303  0.17330598  0.66492347  1
  O2-  O567  1  0.83004667  0.42329762  0.03015896  1
  O2-  O568  1  0.81567261  0.40603251  0.33295006  1
  O2-  O569  1  0.83119597  0.42628351  0.68039290  1
  O2-  O570  1  0.83090772  0.66247151  0.01418824  1
  O2-  O571  1  0.82794789  0.66718117  0.35617680  1
  O2-  O572  1  0.83291024  0.66936023  0.68885366  1
  O2-  O573  1  0.81121607  0.91484194  0.03365741  1
  O2-  O574  1  0.83246066  0.91801880  0.35337878  1
  O2-  O575  1  0.82939696  0.92543127  0.69742653  1
