# generated using pymatgen
data_H2O
_symmetry_space_group_name_H-M   'P 1'
_cell_length_a   17.99010396
_cell_length_b   17.98745525
_cell_length_c   21.99636058
_cell_angle_alpha   89.95054006
_cell_angle_beta   90.01608875
_cell_angle_gamma   119.98684258
_symmetry_Int_Tables_number   1
_chemical_formula_structural   H2O
_chemical_formula_sum   'H384 O192'
_cell_volume   6165.13027082
_cell_formula_units_Z   192
loop_
 _symmetry_equiv_pos_site_id
 _symmetry_equiv_pos_as_xyz
  1  'x, y, z'
loop_
 _atom_type_symbol
 _atom_type_oxidation_number
  H+  1.0
  O2-  -2.0
loop_
 _atom_site_type_symbol
 _atom_site_label
 _atom_site_symmetry_multiplicity
 _atom_site_fract_x
 _atom_site_fract_y
 _atom_site_fract_z
 _atom_site_occupancy
  H+  H0  1  0.83546127  0.24983260  0.82774202  1
  H+  H1  1  0.87018340  0.22527786  0.50688682  1
  H+  H2  1  0.95987405  0.12854400  0.80521263  1
  H+  H3  1  0.51603641  0.63395339  0.36868815  1
  H+  H4  1  0.37512665  0.59138794  0.17610793  1
  H+  H5  1  0.75956718  0.14377599  0.00499217  1
  H+  H6  1  0.12076352  0.14735361  0.64396840  1
  H+  H7  1  0.87556700  0.60578430  0.50186550  1
  H+  H8  1  0.28052259  0.63885389  0.01496392  1
  H+  H9  1  0.12781001  0.98572685  0.16886489  1
  H+  H10  1  0.32749188  0.65458609  0.42994588  1
  H+  H11  1  0.27539626  0.62867364  0.16600084  1
  H+  H12  1  0.12708284  0.50409056  0.66406005  1
  H+  H13  1  0.61383050  0.98005181  0.49832394  1
  H+  H14  1  -0.02279479  0.36591995  0.34192391  1
  H+  H15  1  0.70254378  0.36941860  0.15524207  1
  H+  H16  1  0.87885282  0.85770328  0.50572922  1
  H+  H17  1  0.62192485  0.47624630  0.47919984  1
  H+  H18  1  0.38230169  0.11442145  0.33213800  1
  H+  H19  1  0.83292572  0.15735129  0.16102405  1
  H+  H20  1  0.86579549  0.51219667  0.50418432  1
  H+  H21  1  -0.00750465  0.87105069  0.33973630  1
  H+  H22  1  0.95884435  0.00149781  0.91422516  1
  H+  H23  1  0.10295738  0.17557944  0.70720344  1
  H+  H24  1  0.71715644  0.84221062  -0.00782988  1
  H+  H25  1  0.36443867  0.13427001  0.82334518  1
  H+  H26  1  0.51526338  0.13984914  1.00163256  1
  H+  H27  1  0.08676221  0.32940276  0.50179626  1
  H+  H28  1  0.36888179  0.47788374  0.67321106  1
  H+  H29  1  0.88521785  0.62316162  0.18373418  1
  H+  H30  1  0.33045978  0.99426681  0.45733303  1
  H+  H31  1  0.73193658  0.35179172  0.64860492  1
  H+  H32  1  0.85003346  0.93182788  -0.00763661  1
  H+  H33  1  0.01535738  0.87912898  0.49438528  1
  H+  H34  1  0.37125267  0.47584135  0.16280741  1
  H+  H35  1  0.40597626  0.36564433  0.49282461  1
  H+  H36  1  0.58811371  0.97309889  0.33765482  1
  H+  H37  1  0.36144644  0.15152847  1.02540474  1
  H+  H38  1  0.41097966  0.08601644  0.27051751  1
  H+  H39  1  0.38532350  0.26283350  0.32740572  1
  H+  H40  1  0.14683011  0.60260640  0.84095528  1
  H+  H41  1  1.02608014  0.11977588  0.35581619  1
  H+  H42  1  0.27689239  0.39490849  0.01045089  1
  H+  H43  1  0.59908318  0.14943148  0.32396808  1
  H+  H44  1  0.40548398  0.61786131  0.65222269  1
  H+  H45  1  0.37551270  0.00300668  0.82590026  1
  H+  H46  1  0.38153494  0.27614067  1.00038483  1
  H+  H47  1  0.60817370  0.63947912  0.16447402  1
  H+  H48  1  0.59910875  0.13473244  0.82155940  1
  H+  H49  1  0.85899727  -0.03531670  0.33861263  1
  H+  H50  1  0.14035173  0.10418447  0.33807127  1
  H+  H51  1  0.59865804  0.40861487  0.17564787  1
  H+  H52  1  0.15411813  0.12019665  0.17975595  1
  H+  H53  1  0.71522405  0.59438965  0.99035693  1
  H+  H54  1  0.27266509  0.13237039  0.34881599  1
  H+  H55  1  0.90891583  0.37539445  0.84752042  1
  H+  H56  1  0.36373780  0.71362967  0.33940867  1
  H+  H57  1  0.47051170  0.35618171  0.66656813  1
  H+  H58  1  0.88321511  0.48663743  0.82503276  1
  H+  H59  1  0.84692154  0.84513372  0.00565300  1
  H+  H60  1  0.70279316  0.34488273  0.54734540  1
  H+  H61  1  0.65286346  0.08205866  0.89523815  1
  H+  H62  1  0.73803483  0.84804181  0.33022869  1
  H+  H63  1  0.11878608  0.39457110  0.01616084  1
  H+  H64  1  0.69744819  0.11245937  0.16691612  1
  H+  H65  1  0.63654966  0.85546504  0.65669153  1
  H+  H66  1  0.84380675  0.11208492  0.86099716  1
  H+  H67  1  0.61102089  0.12963222  0.66759178  1
  H+  H68  1  1.04623506  0.13671700  0.51151914  1
  H+  H69  1  0.17561274  0.08607187  0.90209557  1
  H+  H70  1  0.60610215  0.26029472  0.82458226  1
  H+  H71  1  0.77242084  0.64582446  0.15954186  1
  H+  H72  1  0.76976337  0.39097816  0.99388849  1
  H+  H73  1  0.38286357  0.76275024  0.17044142  1
  H+  H74  1  0.96944540  0.63056326  0.21247725  1
  H+  H75  1  0.14405755  0.27795617  0.65045689  1
  H+  H76  1  0.10133971  0.93686051  0.06929140  1
  H+  H77  1  0.13450428  0.87210807  0.83898303  1
  H+  H78  1  0.60342989  0.96746020  0.15840433  1
  H+  H79  1  0.23196775  0.10816514  0.84159883  1
  H+  H80  1  0.82945836  0.91538320  0.73542948  1
  H+  H81  1  -0.00459597  0.41626433  0.49315233  1
  H+  H82  1  0.60200093  0.45162874  0.66133540  1
  H+  H83  1  0.61533535  0.85279967  0.50075930  1
  H+  H84  1  0.87298771  0.03152649  0.67949542  1
  H+  H85  1  0.64350295  0.26485782  0.64098152  1
  H+  H86  1  0.15076063  0.03578482  0.99900867  1
  H+  H87  1  0.01189612  0.62834355  0.49605428  1
  H+  H88  1  0.90181062  0.77534743  0.19877334  1
  H+  H89  1  0.84605195  0.94306899  0.15291422  1
  H+  H90  1  0.22863572  0.61998130  0.51149700  1
  H+  H91  1  0.47757246  0.84102867  0.32442982  1
  H+  H92  1  0.52920429  0.89021408  0.82277642  1
  H+  H93  1  0.91538923  0.10823321  0.17258828  1
  H+  H94  1  0.63324318  0.60693323  0.83872621  1
  H+  H95  1  0.28365532  0.90733536  0.01115959  1
  H+  H96  1  0.32447083  0.90442401  0.75778292  1
  H+  H97  1  0.37096067  0.13155108  0.50090604  1
  H+  H98  1  0.58061076  0.16578078  0.72255782  1
  H+  H99  1  0.47051448  0.85210868  0.16780573  1
  H+  H100  1  0.11139555  0.76255490  0.51355024  1
  H+  H101  1  0.36992437  0.88247914  0.47385843  1
  H+  H102  1  0.38456335  0.12120972  0.17776219  1
  H+  H103  1  0.12172525  0.77293028  0.66221442  1
  H+  H104  1  1.01281380  0.36241032  0.82691821  1
  H+  H105  1  0.88323534  0.28383294  -0.00063927  1
  H+  H106  1  0.11429942  0.97854681  0.83155250  1
  H+  H107  1  0.87834441  0.56255409  0.59300772  1
  H+  H108  1  0.37745705  0.03348614  1.00766375  1
  H+  H109  1  0.33292715  0.16479638  0.76543620  1
  H+  H110  1  0.17708255  0.53432994  0.85507453  1
  H+  H111  1  0.97103794  0.35004630  0.65520029  1
  H+  H112  1  0.15123167  0.28992969  0.99582332  1
  H+  H113  1  0.08006512  0.45194268  0.80165648  1
  H+  H114  1  0.58197824  0.39185807  0.06349145  1
  H+  H115  1  0.87005180  0.88020538  0.34094860  1
  H+  H116  1  0.13983339  0.52530586  1.00789963  1
  H+  H117  1  0.60916734  0.36878903  0.65839329  1
  H+  H118  1  0.03952900  0.65313625  0.13874132  1
  H+  H119  1  1.02474730  0.62006228  0.82010290  1
  H+  H120  1  0.90845484  0.12287378  0.52841916  1
  H+  H121  1  0.70913868  0.57408090  0.63489676  1
  H+  H122  1  0.80539060  0.39026643  0.82878485  1
  H+  H123  1  0.23702853  0.37887598  0.84170342  1
  H+  H124  1  0.08683717  0.92516809  0.76940553  1
  H+  H125  1  -0.02930388  0.60799559  0.34183441  1
  H+  H126  1  0.10989479  0.37430360  0.66129296  1
  H+  H127  1  0.36479782  0.37657317  0.33359340  1
  H+  H128  1  0.58571255  0.37835892  0.82754959  1
  H+  H129  1  0.40367738  0.26664941  0.50127020  1
  H+  H130  1  0.88507680  0.35968612  0.65971166  1
  H+  H131  1  0.26749600  0.87628937  0.81940789  1
  H+  H132  1  0.76563230  0.87389460  0.82933900  1
  H+  H133  1  0.38393670  1.02101448  0.65707279  1
  H+  H134  1  0.85926188  0.37963799  0.36149182  1
  H+  H135  1  0.99102053  0.19510597  0.20112865  1
  H+  H136  1  0.86732033  0.74051583  -0.01058508  1
  H+  H137  1  0.21079833  0.48006987  0.26760775  1
  H+  H138  1  0.38068131  0.64485545  0.82212066  1
  H+  H139  1  0.13561768  0.77257186  0.32962806  1
  H+  H140  1  0.08653378  0.50618431  0.49652575  1
  H+  H141  1  0.37895501  0.26747880  0.84147432  1
  H+  H142  1  0.50859696  0.14787546  0.33153351  1
  H+  H143  1  0.40077037  0.77959201  0.83347824  1
  H+  H144  1  0.62446293  0.71967652  0.66892546  1
  H+  H145  1  0.63695266  0.60090095  0.65021817  1
  H+  H146  1  0.10892199  0.64043129  0.34339219  1
  H+  H147  1  0.61579855  0.72316589  0.82390709  1
  H+  H148  1  0.11668984  0.69827080  0.80177495  1
  H+  H149  1  0.63747991  0.75920144  0.34303583  1
  H+  H150  1  0.70514332  0.12943384  0.83460075  1
  H+  H151  1  0.07795170  0.66867497  0.40351510  1
  H+  H152  1  0.39233827  0.52917389  0.83880237  1
  H+  H153  1  0.33750423  0.65485779  0.10711677  1
  H+  H154  1  0.22362692  0.61961427  0.33027421  1
  H+  H155  1  0.89354257  0.61305357  0.83477055  1
  H+  H156  1  0.36923027  0.48290002  1.00935135  1
  H+  H157  1  0.14136818  0.36305541  0.83959961  1
  H+  H158  1  0.83635165  0.96074046  0.47925513  1
  H+  H159  1  0.50019505  0.35845951  0.49098867  1
  H+  H160  1  0.27597705  0.13567580  0.66599872  1
  H+  H161  1  0.12095156  0.64343711  1.00041370  1
  H+  H162  1  0.87433465  0.60248657  0.65668962  1
  H+  H163  1  0.47543415  0.10909924  0.65619074  1
  H+  H164  1  0.14702545  0.15318448  0.80864031  1
  H+  H165  1  0.60909307  0.22285362  0.99640087  1
  H+  H166  1  0.36804407  0.71295642  0.48853558  1
  H+  H167  1  0.14794753  0.12454111  -0.00748861  1
  H+  H168  1  0.36692418  0.63463006  0.01004747  1
  H+  H169  1  0.92776866  0.58665182  0.89436298  1
  H+  H170  1  0.48343736  0.61557018  0.83885901  1
  H+  H171  1  0.28176793  0.88612260  0.35217283  1
  H+  H172  1  0.60805423  0.62914075  0.00978937  1
  H+  H173  1  0.12640519  0.12224772  0.51101524  1
  H+  H174  1  0.63143161  0.35699893  0.98304796  1
  H+  H175  1  0.11846911  0.78262439  0.86388169  1
  H+  H176  1  0.55198091  0.07271397  0.44159910  1
  H+  H177  1  0.71385904  0.83957677  0.18078936  1
  H+  H178  1  0.52089262  0.38516009  0.33026192  1
  H+  H179  1  0.12534830  0.74337540  0.15258136  1
  H+  H180  1  0.03765511  0.89816001  0.16694676  1
  H+  H181  1  0.46813488  0.11468292  0.17069301  1
  H+  H182  1  0.50800581  0.12767628  0.81302259  1
  H+  H183  1  0.00495508  0.14038413  0.79647502  1
  H+  H184  1  0.62106134  0.36511358  0.31584025  1
  H+  H185  1  0.36331294  0.13456743  0.67102211  1
  H+  H186  1  0.85751868  0.23369266  0.66727757  1
  H+  H187  1  0.49289410  0.38014097  0.83930121  1
  H+  H188  1  0.29511523  0.64989163  0.82274207  1
  H+  H189  1  0.38288114  0.46347722  0.48979110  1
  H+  H190  1  0.82755941  0.08789384  0.83160653  1
  H+  H191  1  0.63482529  0.85984187  0.83760388  1
  H+  H192  1  0.36430913  0.88367641  0.16200065  1
  H+  H193  1  1.03963780  0.16034806  1.00931238  1
  H+  H194  1  0.14502512  0.86899124  0.17405271  1
  H+  H195  1  0.26635600  0.88225247  0.66745635  1
  H+  H196  1  0.64521351  0.53300284  0.31977252  1
  H+  H197  1  0.10820312  0.86262071  0.50684306  1
  H+  H198  1  0.89084732  0.37509552  -0.00561579  1
  H+  H199  1  0.52799066  0.88743321  0.66832765  1
  H+  H200  1  0.38731279  0.51140735  0.33490863  1
  H+  H201  1  0.88526513  0.23310951  0.35560708  1
  H+  H202  1  0.88664090  0.75332678  0.67836479  1
  H+  H203  1  0.36391793  0.38643729  0.67875064  1
  H+  H204  1  0.70256341  0.85002051  0.49543489  1
  H+  H205  1  0.15229537  0.62768076  0.16943939  1
  H+  H206  1  0.59949620  0.72542381  0.46640190  1
  H+  H207  1  0.60791478  0.71855780  1.00798561  1
  H+  H208  1  0.41391757  0.95934375  0.51748899  1
  H+  H209  1  0.36135405  0.39109325  0.82690721  1
  H+  H210  1  0.89639626  0.87946771  0.66087361  1
  H+  H211  1  0.03322753  0.90436646  0.67189211  1
  H+  H212  1  0.77312813  0.62747859  0.82722372  1
  H+  H213  1  0.87266239  0.73377028  0.34528062  1
  H+  H214  1  0.79163668  0.68366039  0.68525666  1
  H+  H215  1  0.85438928  0.87116278  0.82773756  1
  H+  H216  1  0.10750581  0.64247428  0.50059760  1
  H+  H217  1  0.64214077  1.01888484  0.66156029  1
  H+  H218  1  0.89610368  0.52438328  0.98390621  1
  H+  H219  1  0.17738837  0.25645024  0.51687165  1
  H+  H220  1  0.67865376  0.35203457  0.80430833  1
  H+  H221  1  0.76817521  0.63698062  0.49135298  1
  H+  H222  1  0.97449483  0.85861459  0.84069053  1
  H+  H223  1  0.60518178  0.10148794  0.16108929  1
  H+  H224  1  0.59611713  0.47756704  0.83687140  1
  H+  H225  1  0.67937389  0.60170268  0.23913475  1
  H+  H226  1  0.39167862  0.86296392  0.83482430  1
  H+  H227  1  0.19893642  0.43830588  0.28298922  1
  H+  H228  1  0.36361261  0.37486809  0.15296655  1
  H+  H229  1  0.13361004  0.86829245  0.66465462  1
  H+  H230  1  0.36546962  0.97541913  0.35070653  1
  H+  H231  1  1.11294716  0.22101745  0.15967029  1
  H+  H232  1  0.53610506  0.63164762  0.66809331  1
  H+  H233  1  0.12120216  0.88401739  0.34638048  1
  H+  H234  1  0.53407224  0.88448691  0.00245009  1
  H+  H235  1  0.28778231  0.63314091  0.66810869  1
  H+  H236  1  0.61031831  0.25961120  0.31724226  1
  H+  H237  1  0.73489468  0.62123253  0.32582405  1
  H+  H238  1  -0.09768288  0.32847748  0.56722565  1
  H+  H239  1  0.61015059  0.88208954  0.16543293  1
  H+  H240  1  0.85842759  0.28320424  0.18527356  1
  H+  H241  1  0.47392509  0.60474945  0.49036499  1
  H+  H242  1  1.09497502  0.36801725  0.12955905  1
  H+  H243  1  0.10459440  0.17997719  0.06376211  1
  H+  H244  1  0.14380991  0.82725347  0.57429940  1
  H+  H245  1  1.02939206  0.39205498  1.02001331  1
  H+  H246  1  0.14334365  0.24254970  0.32122136  1
  H+  H247  1  0.88769230  0.76670178  0.84018507  1
  H+  H248  1  0.85759921  0.46781105  0.36165751  1
  H+  H249  1  0.88085817  0.77030381  0.50963869  1
  H+  H250  1  0.06614392  0.62603576  0.64876906  1
  H+  H251  1  0.64680633  0.54885554  0.17594709  1
  H+  H252  1  0.90414469  0.81052890  0.93590754  1
  H+  H253  1  0.27198991  0.14981316  0.01798988  1
  H+  H254  1  0.38229316  0.59436134  0.49955431  1
  H+  H255  1  0.42111354  0.57558606  0.27953614  1
  H+  H256  1  0.29977504  0.36616750  0.49900923  1
  H+  H257  1  0.24348834  0.12670087  0.18713267  1
  H+  H258  1  0.80043434  0.14304637  0.36528544  1
  H+  H259  1  0.36361819  0.97316162  0.16722622  1
  H+  H260  1  0.13066344  0.90708454  0.01078239  1
  H+  H261  1  0.18335158  0.85538181  0.93865434  1
  H+  H262  1  0.15292433  0.24344282  0.80972155  1
  H+  H263  1  0.61646650  0.97912056  0.82161071  1
  H+  H264  1  0.22750913  0.33306770  0.31138202  1
  H+  H265  1  0.46627824  0.59562400  0.17505959  1
  H+  H266  1  0.87045394  0.49499049  0.15673212  1
  H+  H267  1  0.40326268  0.77457982  -0.00540126  1
  H+  H268  1  0.69000733  0.10617468  0.30706900  1
  H+  H269  1  0.85204528  0.72059039  0.12202243  1
  H+  H270  1  0.74231261  0.11400571  0.51270311  1
  H+  H271  1  0.51681696  0.37516147  0.00805762  1
  H+  H272  1  0.90312316  0.07037099  1.03578368  1
  H+  H273  1  0.62593637  0.10561745  0.99062499  1
  H+  H274  1  0.13169305  0.53590498  0.32892204  1
  H+  H275  1  0.11997502  0.35545322  0.47823100  1
  H+  H276  1  0.89702587  0.10664072  0.34260176  1
  H+  H277  1  0.59767678  0.22307622  0.14831553  1
  H+  H278  1  0.88642000  0.85154330  0.17843516  1
  H+  H279  1  0.85554190  0.34508743  0.51135938  1
  H+  H280  1  0.77457456  0.88844247  0.67332104  1
  H+  H281  1  0.51491440  0.91061776  0.49240852  1
  H+  H282  1  0.62444593  0.51020722  0.99362042  1
  H+  H283  1  0.85073040  0.46577063  0.66544369  1
  H+  H284  1  0.76197733  0.13726523  0.66915156  1
  H+  H285  1  0.48161027  0.10476649  0.50583371  1
  H+  H286  1  0.28944392  0.14109425  0.51454262  1
  H+  H287  1  0.35675375  0.88326673  0.66531566  1
  H+  H288  1  0.06870856  0.38696451  0.72237587  1
  H+  H289  1  0.08487052  0.90891736  0.43823785  1
  H+  H290  1  0.33986864  0.19905321  0.11012070  1
  H+  H291  1  0.91046560  0.32755312  0.28593325  1
  H+  H292  1  0.05590183  0.64406054  0.71723220  1
  H+  H293  1  0.98592682  0.61666555  0.98629231  1
  H+  H294  1  0.35070630  0.67304445  0.72439407  1
  H+  H295  1  0.06436072  0.44649451  0.40895130  1
  H+  H296  1  0.35177413  0.61962528  0.34567953  1
  H+  H297  1  0.09500216  0.68287506  0.05432142  1
  H+  H298  1  0.82013905  0.63033894  0.05837376  1
  H+  H299  1  1.04599472  0.12521297  0.15392653  1
  H+  H300  1  0.62009346  0.75806445  0.18100443  1
  H+  H301  1  0.43183265  0.83186896  0.93416957  1
  H+  H302  1  0.42165134  0.07717154  0.56662291  1
  H+  H303  1  0.58616154  0.16707875  0.42545058  1
  H+  H304  1  0.40529223  0.30777608  0.26214346  1
  H+  H305  1  0.33466153  0.16447154  0.40726315  1
  H+  H306  1  0.17171326  0.59804899  0.23269392  1
  H+  H307  1  0.42577091  0.05363154  0.88421682  1
  H+  H308  1  0.63992049  0.39689358  0.47799284  1
  H+  H309  1  0.41474113  0.84659460  0.59181136  1
  H+  H310  1  0.34133349  0.41892909  0.09151400  1
  H+  H311  1  0.17463462  0.08160474  0.27708485  1
  H+  H312  1  0.80543118  0.39833761  0.44189833  1
  H+  H313  1  0.85334599  0.15392706  0.01352196  1
  H+  H314  1  0.58658266  0.41563562  0.38749271  1
  H+  H315  1  0.38822002  0.36785713  0.99590419  1
  H+  H316  1  0.89949672  0.56852851  0.28926924  1
  H+  H317  1  0.64833296  0.57562503  0.54792917  1
  H+  H318  1  0.92925784  0.08669585  0.28136544  1
  H+  H319  1  0.93950561  0.11255478  0.63858323  1
  H+  H320  1  0.34243676  0.93533493  0.07058089  1
  H+  H321  1  0.66275003  0.80822023  0.27177482  1
  H+  H322  1  0.81711910  0.89737636  0.42556728  1
  H+  H323  1  0.87161987  -0.02998688  0.87974360  1
  H+  H324  1  0.80340400  0.19964556  0.76542533  1
  H+  H325  1  0.09203856  0.15273179  0.41256336  1
  H+  H326  1  0.66214468  0.82448497  0.59660305  1
  H+  H327  1  0.37871526  0.27350234  0.66781151  1
  H+  H328  1  0.86508590  0.64018725  0.34946224  1
  H+  H329  1  0.63643624  0.02124941  0.99168107  1
  H+  H330  1  0.65736373  0.57345613  0.90002842  1
  H+  H331  1  0.12494971  0.98746343  0.66618759  1
  H+  H332  1  0.57377917  0.66144542  0.10369846  1
  H+  H333  1  0.45424716  0.30765863  0.16306901  1
  H+  H334  1  0.56891694  0.16326704  0.08932021  1
  H+  H335  1  0.82157850  0.88354089  0.09528285  1
  H+  H336  1  0.23213357  0.86450469  0.17380382  1
  H+  H337  1  0.33655764  0.39998041  0.39549956  1
  H+  H338  1  0.40336457  0.32504125  0.90406110  1
  H+  H339  1  0.85912551  0.13506741  0.68024360  1
  H+  H340  1  0.85829999  0.61441131  -0.00290060  1
  H+  H341  1  0.57574164  0.92098060  0.39833478  1
  H+  H342  1  0.62772954  0.60777586  0.48466849  1
  H+  H343  1  0.93508148  0.84682927  0.27893869  1
  H+  H344  1  0.65907876  0.32974228  0.92172882  1
  H+  H345  1  0.59044892  0.66228738  0.76467639  1
  H+  H346  1  0.84627217  0.35448469  0.21667039  1
  H+  H347  1  0.38670940  0.09923105  0.95206306  1
  H+  H348  1  0.84442195  0.41603458  0.72814062  1
  H+  H349  1  0.92341737  0.84613014  0.60138549  1
  H+  H350  1  0.91493568  0.04184157  0.55236094  1
  H+  H351  1  0.14895713  0.78571762  0.99153447  1
  H+  H352  1  0.67167321  0.07997697  0.60153858  1
  H+  H353  1  0.12320322  0.97424366  0.34878655  1
  H+  H354  1  0.82651856  0.42859532  0.05498486  1
  H+  H355  1  0.17950927  0.35092923  0.93756567  1
  H+  H356  1  0.17001736  0.83232412  0.27077709  1
  H+  H357  1  0.33728309  0.42475024  0.76620607  1
  H+  H358  1  0.41998739  0.58292179  0.93475485  1
  H+  H359  1  0.41735020  0.80972927  0.26494315  1
  H+  H360  1  0.17540183  0.58270553  0.94699757  1
  H+  H361  1  0.12898055  0.30197959  0.23328729  1
  H+  H362  1  0.47779665  0.61037499  -0.00447726  1
  H+  H363  1  0.15453163  0.59423729  0.69412720  1
  H+  H364  1  0.83787158  0.66858761  0.77038483  1
  H+  H365  1  0.65784668  0.82385763  0.89785910  1
  H+  H366  1  0.80954322  0.18479374  0.09861280  1
  H+  H367  1  0.58559802  0.91326932  0.72934139  1
  H+  H368  1  0.92628856  0.33736589  0.90905479  1
  H+  H369  1  0.20513073  0.32785850  0.57030959  1
  H+  H370  1  0.59233784  0.91439714  0.06264764  1
  H+  H371  1  0.63520861  0.85559604  0.99303067  1
  H+  H372  1  0.62743359  0.07631810  0.25183002  1
  H+  H373  1  0.85775767  0.16472824  0.45125880  1
  H+  H374  1  0.83359110  0.67243532  0.43623206  1
  H+  H375  1  0.43023468  0.58079122  0.59454597  1
  H+  H376  1  0.91059894  0.07415495  0.96512689  1
  H+  H377  1  0.23063921  0.36958222  0.66249141  1
  H+  H378  1  0.17421467  0.59599890  0.57364131  1
  H+  H379  1  0.65510380  0.11797966  0.50570984  1
  H+  H380  1  0.88418093  0.41847517  0.13891265  1
  H+  H381  1  0.64357249  0.32880574  0.25244735  1
  H+  H382  1  0.11231517  0.40981242  0.36599213  1
  H+  H383  1  0.39043523  0.77696047  0.64549774  1
  O2-  O384  1  0.10486026  0.16613601  0.14118184  1
  O2-  O385  1  0.10134679  0.15400232  0.49038803  1
  O2-  O386  1  0.14427957  0.19628312  0.78252206  1
  O2-  O387  1  0.13754063  0.37160484  0.15957251  1
  O2-  O388  1  0.03923302  0.46594868  0.46967498  1
  O2-  O389  1  0.06878587  0.39311026  0.80279993  1
  O2-  O390  1  0.10087663  0.68542530  0.13092634  1
  O2-  O391  1  0.07303371  0.66723177  0.48395787  1
  O2-  O392  1  0.08184116  0.63571707  0.80045923  1
  O2-  O393  1  0.09699497  0.92663855  0.15121889  1
  O2-  O394  1  0.07731440  0.90440040  0.48387270  1
  O2-  O395  1  0.08309728  0.91825517  0.81448803  1
  O2-  O396  1  0.34725908  0.19953791  0.15659679  1
  O2-  O397  1  0.34368498  0.16666971  0.49048940  1
  O2-  O398  1  0.33676895  0.16759217  0.81127983  1
  O2-  O399  1  0.34283570  0.41414968  0.13996846  1
  O2-  O400  1  0.35879015  0.40302155  0.47544713  1
  O2-  O401  1  0.33788054  0.42737870  0.81241959  1
  O2-  O402  1  0.33737984  0.65176566  0.15256783  1
  O2-  O403  1  0.32995168  0.65333818  0.47687460  1
  O2-  O404  1  0.35258326  0.67614545  0.80372624  1
  O2-  O405  1  0.33419045  0.91528473  0.14859382  1
  O2-  O406  1  0.27301300  0.95237946  0.44203802  1
  O2-  O407  1  0.32710299  0.90506526  0.80369269  1
  O2-  O408  1  0.56631797  0.16229784  0.13517241  1
  O2-  O409  1  0.57716418  0.12921305  0.46070019  1
  O2-  O410  1  0.56991734  0.16448958  0.80219119  1
  O2-  O411  1  0.58979414  0.36370120  0.14615142  1
  O2-  O412  1  0.59853937  0.41545462  0.46485066  1
  O2-  O413  1  0.55706772  0.41427012  0.82282391  1
  O2-  O414  1  0.57019332  0.66115271  0.14939421  1
  O2-  O415  1  0.57415965  0.66451372  0.45039682  1
  O2-  O416  1  0.58774854  0.66179622  0.81008222  1
  O2-  O417  1  0.58010989  0.90747731  0.14365467  1
  O2-  O418  1  0.57343035  0.92146650  0.48262379  1
  O2-  O419  1  0.58967684  0.91855085  0.80675227  1
  O2-  O420  1  0.80343873  0.18596365  0.14467178  1
  O2-  O421  1  0.84969427  0.16325159  0.49617027  1
  O2-  O422  1  0.78366537  0.21503046  0.80247772  1
  O2-  O423  1  0.84347519  0.43951184  0.13447980  1
  O2-  O424  1  0.79999023  0.39846164  0.48979378  1
  O2-  O425  1  0.86127186  0.42584615  0.80986647  1
  O2-  O426  1  0.83169676  0.66510081  0.14185458  1
  O2-  O427  1  0.83081791  0.66863200  0.48185049  1
  O2-  O428  1  0.83471822  0.65948641  0.81547881  1
  O2-  O429  1  0.82070672  0.88283045  0.14152492  1
  O2-  O430  1  0.81190232  0.89964974  0.47112225  1
  O2-  O431  1  0.82773489  0.90679800  0.81691100  1
  O2-  O432  1  0.18223759  0.08989974  0.19835316  1
  O2-  O433  1  0.18776976  0.08752838  0.55843399  1
  O2-  O434  1  0.17175459  0.07888145  0.85685815  1
  O2-  O435  1  0.09114616  0.29171936  0.19531089  1
  O2-  O436  1  0.22460148  0.31156768  0.53273137  1
  O2-  O437  1  0.17795374  0.34343196  0.85922499  1
  O2-  O438  1  0.17812979  0.59610187  0.18794738  1
  O2-  O439  1  0.17074603  0.60065889  0.52927436  1
  O2-  O440  1  0.19022936  0.59310800  0.86258540  1
  O2-  O441  1  0.17030474  0.83307847  0.18737266  1
  O2-  O442  1  0.13837050  0.82377643  0.52862022  1
  O2-  O443  1  0.16458562  0.84065234  0.85523754  1
  O2-  O444  1  0.41078372  0.08706162  0.19106080  1
  O2-  O445  1  0.42189483  0.07186200  0.52088813  1
  O2-  O446  1  0.40844307  0.06310600  0.84424761  1
  O2-  O447  1  0.39489103  0.29165236  0.17490139  1
  O2-  O448  1  0.43952313  0.33187299  0.50741935  1
  O2-  O449  1  0.40553503  0.32763343  0.85824522  1
  O2-  O450  1  0.40577408  0.55893808  0.18959092  1
  O2-  O451  1  0.41910858  0.57027388  0.51262514  1
  O2-  O452  1  0.42349295  0.58962743  0.85482691  1
  O2-  O453  1  0.41068807  0.82414912  0.18350855  1
  O2-  O454  1  0.41027169  0.90371472  0.50818373  1
  O2-  O455  1  0.42762513  0.83922654  0.84988672  1
  O2-  O456  1  0.63671090  0.07368383  0.17926005  1
  O2-  O457  1  0.68064617  0.08656621  0.52576359  1
  O2-  O458  1  0.64776143  0.08271770  0.85006883  1
  O2-  O459  1  0.64461176  0.33169950  0.17298541  1
  O2-  O460  1  0.70664974  0.35412106  0.50189425  1
  O2-  O461  1  0.63588557  0.32416106  0.83626908  1
  O2-  O462  1  0.67895977  0.60756173  0.19095428  1
  O2-  O463  1  0.65660679  0.57846197  0.50283466  1
  O2-  O464  1  0.65767663  0.57069492  0.85428049  1
  O2-  O465  1  0.65706554  0.81610491  0.20063868  1
  O2-  O466  1  0.64240471  0.81734526  0.51035463  1
  O2-  O467  1  0.66127916  0.82557316  0.85233885  1
  O2-  O468  1  0.95383518  0.13201223  0.20722108  1
  O2-  O469  1  0.94684226  0.10404083  0.54822111  1
  O2-  O470  1  0.90299511  -0.00256132  0.91881780  1
  O2-  O471  1  0.88899446  0.33718551  0.20931594  1
  O2-  O472  1  0.89762892  0.32628201  0.52181970  1
  O2-  O473  1  0.92580768  0.33391839  0.86317511  1
  O2-  O474  1  0.90980522  0.58957896  0.20234415  1
  O2-  O475  1  0.90354340  0.57298045  0.51651312  1
  O2-  O476  1  0.92750845  0.58542156  0.84833234  1
  O2-  O477  1  0.92733221  0.83778889  0.19964397  1
  O2-  O478  1  0.91191073  0.83220888  0.52294839  1
  O2-  O479  1  0.91389266  0.82682807  0.85538929  1
  O2-  O480  1  0.17367932  0.07709717  0.32233807  1
  O2-  O481  1  0.17998215  0.08967058  0.61849981  1
  O2-  O482  1  0.18199479  0.09685534  0.98118311  1
  O2-  O483  1  0.17502815  0.28885036  0.29093475  1
  O2-  O484  1  0.17392087  0.34184772  0.64104766  1
  O2-  O485  1  0.18046102  0.35163552  0.98320409  1
  O2-  O486  1  0.16376203  0.59641809  0.31440699  1
  O2-  O487  1  0.16085795  0.56834843  0.65701053  1
  O2-  O488  1  0.17139426  0.58582937  0.99153929  1
  O2-  O489  1  0.16961899  0.83341993  0.31589051  1
  O2-  O490  1  0.15874545  0.83339112  0.64835938  1
  O2-  O491  1  0.18054065  0.84888791  0.98330770  1
  O2-  O492  1  0.41682134  0.08877993  0.31577358  1
  O2-  O493  1  0.41465708  0.08107588  0.64134633  1
  O2-  O494  1  0.40724520  0.09936566  0.99308150  1
  O2-  O495  1  0.41538110  0.32011598  0.30605233  1
  O2-  O496  1  0.40899823  0.33517248  0.65718644  1
  O2-  O497  1  0.41493804  0.33441780  0.98037764  1
  O2-  O498  1  0.41919166  0.57435338  0.32441281  1
  O2-  O499  1  0.43391679  0.58497660  0.63973733  1
  O2-  O500  1  0.41712042  0.57949072  0.98018039  1
  O2-  O501  1  0.42014151  0.79793164  0.30858537  1
  O2-  O502  1  0.41837643  0.83946317  0.63590720  1
  O2-  O503  1  0.43916105  0.83363935  0.97871091  1
  O2-  O504  1  0.62943540  0.08270382  0.29792745  1
  O2-  O505  1  0.67087588  0.08038949  0.64728532  1
  O2-  O506  1  0.66224645  0.08176694  0.97585433  1
  O2-  O507  1  0.64455416  0.32745675  0.29772036  1
  O2-  O508  1  0.67773606  0.32440130  0.62485759  1
  O2-  O509  1  0.66446637  0.33021594  0.96641791  1
  O2-  O510  1  0.67769244  0.59303143  0.30517738  1
  O2-  O511  1  0.65133716  0.56258085  0.62541969  1
  O2-  O512  1  0.65400625  0.57000354  0.97751172  1
  O2-  O513  1  0.67328310  0.81315084  0.31816593  1
  O2-  O514  1  0.66872852  0.82714240  0.64150201  1
  O2-  O515  1  0.65725728  0.81764724  0.97665224  1
  O2-  O516  1  0.91970336  0.07065594  0.32494845  1
  O2-  O517  1  0.90106659  0.09553472  0.67423071  1
  O2-  O518  1  0.92163386  0.11119112  1.00213851  1
  O2-  O519  1  0.91501608  0.32555620  0.33105970  1
  O2-  O520  1  0.90865945  0.32266037  0.64318038  1
  O2-  O521  1  0.92191668  0.34359893  0.98456113  1
  O2-  O522  1  0.90651167  0.57506159  0.33362126  1
  O2-  O523  1  0.85264614  0.54841484  0.63457427  1
  O2-  O524  1  0.92604444  0.58528339  0.96902858  1
  O2-  O525  1  0.93076526  0.84218803  0.32395810  1
  O2-  O526  1  0.92891712  0.85110472  0.64675521  1
  O2-  O527  1  0.89502391  0.80273367  0.98051579  1
  O2-  O528  1  0.10128815  0.18445524  0.01862981  1
  O2-  O529  1  0.08774875  0.15096334  0.36711650  1
  O2-  O530  1  0.09109312  0.17514106  0.66296195  1
  O2-  O531  1  0.08861884  0.42144962  0.03651230  1
  O2-  O532  1  0.07477788  0.43430361  0.36455119  1
  O2-  O533  1  0.07227519  0.39759972  0.67780223  1
  O2-  O534  1  0.09040498  0.67631527  0.00902996  1
  O2-  O535  1  0.07406143  0.66665042  0.35821788  1
  O2-  O536  1  0.05510709  0.66302496  0.67526430  1
  O2-  O537  1  0.10499607  0.94184979  0.02444280  1
  O2-  O538  1  0.08976794  0.91311134  0.36293588  1
  O2-  O539  1  0.09331818  0.93157191  0.68780358  1
  O2-  O540  1  0.33130551  0.18372730  0.03727350  1
  O2-  O541  1  0.33470508  0.16597619  0.36211626  1
  O2-  O542  1  0.33095110  0.16101817  0.68886666  1
  O2-  O543  1  0.33823567  0.42230947  0.02649588  1
  O2-  O544  1  0.33358021  0.40462585  0.35051430  1
  O2-  O545  1  0.33459527  0.42027173  0.69197800  1
  O2-  O546  1  0.34151184  0.66742473  0.02851144  1
  O2-  O547  1  0.32509547  0.65374375  0.35905145  1
  O2-  O548  1  0.34863380  0.67106742  0.67878844  1
  O2-  O549  1  0.34301414  0.94641765  0.02610215  1
  O2-  O550  1  0.34114199  0.91738124  0.36849739  1
  O2-  O551  1  0.32710752  0.91287430  0.68246008  1
  O2-  O552  1  0.57674112  0.16392488  0.01392609  1
  O2-  O553  1  0.57443018  0.18432356  0.34165347  1
  O2-  O554  1  0.58146628  0.16250152  0.67730653  1
  O2-  O555  1  0.57913256  0.40237365  0.01974652  1
  O2-  O556  1  0.58309098  0.41658236  0.34193877  1
  O2-  O557  1  0.57993536  0.39490239  0.68030736  1
  O2-  O558  1  0.57839615  0.65915966  0.02623917  1
  O2-  O559  1  0.57701240  0.67108758  0.38315006  1
  O2-  O560  1  0.59659761  0.65923164  0.68396492  1
  O2-  O561  1  0.59642018  0.91783281  0.01750078  1
  O2-  O562  1  0.57719640  0.91747741  0.35353435  1
  O2-  O563  1  0.58792495  0.91395664  0.68349078  1
  O2-  O564  1  0.81768258  0.17975772  0.02511452  1
  O2-  O565  1  0.86202909  0.17183028  0.37239613  1
  O2-  O566  1  0.82361940  0.17261368  0.68669795  1
  O2-  O567  1  0.82967943  0.42353881  0.01016085  1
  O2-  O568  1  0.82650261  0.40716320  0.37571262  1
  O2-  O569  1  0.83723387  0.40836799  0.68354212  1
  O2-  O570  1  0.81813140  0.63320266  0.01373785  1
  O2-  O571  1  0.83542615  0.67336535  0.35936433  1
  O2-  O572  1  0.84877137  0.69340922  0.69462908  1
  O2-  O573  1  0.82069390  0.88221370  0.02001855  1
  O2-  O574  1  0.82888027  0.90216464  0.35069514  1
  O2-  O575  1  0.83375676  0.92349718  0.69025391  1
