# generated using pymatgen
data_H2O
_symmetry_space_group_name_H-M   'P 1'
_cell_length_a   17.99746722
_cell_length_b   17.99555364
_cell_length_c   22.00921134
_cell_angle_alpha   90.01497478
_cell_angle_beta   89.97712694
_cell_angle_gamma   119.99673147
_symmetry_Int_Tables_number   1
_chemical_formula_structural   H2O
_chemical_formula_sum   'H384 O192'
_cell_volume   6173.42225171
_cell_formula_units_Z   192
loop_
 _symmetry_equiv_pos_site_id
 _symmetry_equiv_pos_as_xyz
  1  'x, y, z'
loop_
 _atom_type_symbol
 _atom_type_oxidation_number
  H+  1.0
  O2-  -2.0
loop_
 _atom_site_type_symbol
 _atom_site_label
 _atom_site_symmetry_multiplicity
 _atom_site_fract_x
 _atom_site_fract_y
 _atom_site_fract_z
 _atom_site_occupancy
  H+  H0  1  0.77390034  0.88793846  1.01360520  1
  H+  H1  1  0.59714219  0.73995048  0.31260049  1
  H+  H2  1  0.61160169  0.71443862  0.45066280  1
  H+  H3  1  0.58367222  0.17344519  0.60979016  1
  H+  H4  1  0.87933789  0.61025730  0.67284573  1
  H+  H5  1  0.58661560  0.60684685  0.31899656  1
  H+  H6  1  0.32350490  0.97610850  0.04133043  1
  H+  H7  1  0.34357827  0.70965256  0.01416286  1
  H+  H8  1  0.76149000  0.62752308  0.67755188  1
  H+  H9  1  0.01086829  0.39082999  0.49719038  1
  H+  H10  1  0.40241958  0.81918663  0.94546651  1
  H+  H11  1  0.50087063  0.85836894  0.83323782  1
  H+  H12  1  0.52482622  0.13968821  0.82051200  1
  H+  H13  1  0.77181233  0.14225871  0.67841222  1
  H+  H14  1  0.58278509  0.38170100  0.68613269  1
  H+  H15  1  0.61353927  0.13451256  0.52313717  1
  H+  H16  1  0.29928921  0.66257326  0.46492755  1
  H+  H17  1  0.46845620  0.11706987  0.51509711  1
  H+  H18  1  0.38098727  0.17373026  0.34448041  1
  H+  H19  1  0.60378111  0.63294435  0.16053289  1
  H+  H20  1  0.82131178  0.65994740  0.73659868  1
  H+  H21  1  0.77880427  0.61367677  0.49921638  1
  H+  H22  1  0.12405954  0.01934380  0.98759451  1
  H+  H23  1  0.11787507  0.22481340  0.00658569  1
  H+  H24  1  0.89474869  0.04816103  0.50792730  1
  H+  H25  1  0.28830564  -0.01609630  1.02957005  1
  H+  H26  1  0.55631536  0.63329629  0.38137028  1
  H+  H27  1  0.38959466  0.17151260  1.00565404  1
  H+  H28  1  0.86819692  0.70117582  0.49724801  1
  H+  H29  1  0.90012465  0.27970915  0.16664589  1
  H+  H30  1  0.11334103  0.64477949  0.16309190  1
  H+  H31  1  0.11427495  0.91175956  0.52395083  1
  H+  H32  1  0.81662361  0.73314859  0.33280759  1
  H+  H33  1  0.04024020  0.90660727  0.66813913  1
  H+  H34  1  0.36478668  0.85993211  0.18910000  1
  H+  H35  1  0.38677740  0.81516481  0.25783449  1
  H+  H36  1  0.90676857  0.60926375  0.51697250  1
  H+  H37  1  0.72972772  0.11614809  0.50870666  1
  H+  H38  1  0.11625892  0.85628071  0.17740779  1
  H+  H39  1  0.73893106  0.87641216  0.84401212  1
  H+  H40  1  0.75648093  0.38998998  0.47923051  1
  H+  H41  1  0.89390427  0.61796343  1.00103433  1
  H+  H42  1  0.10230573  0.38027474  0.34617638  1
  H+  H43  1  0.86914259  0.63384000  0.33931883  1
  H+  H44  1  0.38410924  0.90478944  0.48715442  1
  H+  H45  1  0.89896241  0.88536766  0.65310479  1
  H+  H46  1  0.33351848  0.82230656  0.03451865  1
  H+  H47  1  0.89230169  0.51900016  0.31945696  1
  H+  H48  1  0.72937015  0.11663998  0.33246190  1
  H+  H49  1  0.36958726  0.75791920  0.19634685  1
  H+  H50  1  0.64207843  0.60667406  0.49588610  1
  H+  H51  1  0.54364084  0.17485609  0.15459614  1
  H+  H52  1  0.13848178  0.12099363  0.83886635  1
  H+  H53  1  0.64709929  0.78990120  0.52428710  1
  H+  H54  1  0.04231413  0.87359378  0.28243493  1
  H+  H55  1  0.13246022  0.77592655  0.83597231  1
  H+  H56  1  1.01348071  0.85624873  0.30985027  1
  H+  H57  1  0.84194703  0.18085776  0.09259003  1
  H+  H58  1  0.19587348  0.82340530  0.64436249  1
  H+  H59  1  0.62867130  0.01753836  0.66649148  1
  H+  H60  1  0.64617909  0.11984569  0.84175988  1
  H+  H61  1  0.13830908  0.13189449  0.50598776  1
  H+  H62  1  0.90403698  0.34036303  0.56749312  1
  H+  H63  1  -0.01635560  0.13693286  0.50421848  1
  H+  H64  1  0.64758578  0.36240157  0.84872379  1
  H+  H65  1  0.92380403  0.53355026  0.53744124  1
  H+  H66  1  0.37852162  0.86364843  0.85925394  1
  H+  H67  1  0.13794446  0.76526519  0.32207263  1
  H+  H68  1  0.68519722  0.82575307  0.31629886  1
  H+  H69  1  0.11444397  0.24176537  0.49374733  1
  H+  H70  1  0.61608943  0.52186833  0.65579466  1
  H+  H71  1  1.11509704  0.13379896  1.00603813  1
  H+  H72  1  0.22654075  0.11967558  0.83604672  1
  H+  H73  1  0.78252032  0.93054076  0.32957584  1
  H+  H74  1  0.29836440  0.40417047  0.81455080  1
  H+  H75  1  0.25984014  0.88461161  0.84426548  1
  H+  H76  1  0.78829863  0.39554125  0.00538810  1
  H+  H77  1  0.53187588  0.69629356  0.65669297  1
  H+  H78  1  0.90849093  0.82967015  0.93352660  1
  H+  H79  1  0.42996361  0.56051115  0.64993209  1
  H+  H80  1  0.08169985  0.17589723  0.73314208  1
  H+  H81  1  0.85173251  0.71579411  0.16994683  1
  H+  H82  1  0.35441423  0.40806194  0.64683435  1
  H+  H83  1  0.11394050  0.98686835  0.15920866  1
  H+  H84  1  0.16934457  0.08421777  0.27188468  1
  H+  H85  1  0.33477840  0.17885640  0.76122151  1
  H+  H86  1  0.63848265  0.77158701  0.99934951  1
  H+  H87  1  0.77769143  0.37170921  0.33137209  1
  H+  H88  1  0.36571903  0.15580686  0.66892983  1
  H+  H89  1  0.46489061  0.60057628  0.31789959  1
  H+  H90  1  0.08416634  0.46562099  0.71975415  1
  H+  H91  1  0.91986211  0.10475795  0.60058731  1
  H+  H92  1  0.20743980  0.36828209  0.32948399  1
  H+  H93  1  0.38672220  0.03026477  0.84093377  1
  H+  H94  1  0.07261289  0.91559596  0.06306187  1
  H+  H95  1  0.81868627  0.16167360  -0.03072099  1
  H+  H96  1  0.70830910  0.09501853  1.01004643  1
  H+  H97  1  0.69699853  0.40591126  0.18440998  1
  H+  H98  1  0.62755772  0.74239885  0.84604442  1
  H+  H99  1  0.27224515  0.14701270  0.67011923  1
  H+  H100  1  0.62846773  0.52013784  0.15961300  1
  H+  H101  1  0.61984131  0.61070051  0.65053466  1
  H+  H102  1  0.97513068  0.86863806  0.84210951  1
  H+  H103  1  0.83324608  0.41119536  0.39087287  1
  H+  H104  1  0.60432932  0.72324695  0.15821920  1
  H+  H105  1  0.64272902  0.61571296  0.86017196  1
  H+  H106  1  0.87896063  0.85829235  -0.00514676  1
  H+  H107  1  0.91112287  0.28759969  0.99517465  1
  H+  H108  1  0.52252849  0.79680068  0.79851870  1
  H+  H109  1  0.21802416  0.38703187  0.69066746  1
  H+  H110  1  0.64022237  0.52352270  0.31661072  1
  H+  H111  1  0.87597189  0.92844817  0.54401881  1
  H+  H112  1  0.78613087  0.91222551  0.67619895  1
  H+  H113  1  0.10856445  0.89312473  0.82794893  1
  H+  H114  1  0.89788718  0.52988697  0.99891690  1
  H+  H115  1  0.87643707  0.36811600  0.66207754  1
  H+  H116  1  0.03078521  0.62632562  0.32579334  1
  H+  H117  1  0.15674002  0.98940522  0.36140107  1
  H+  H118  1  0.13655320  0.37620793  0.17458703  1
  H+  H119  1  0.64225912  0.51831884  0.00597440  1
  H+  H120  1  0.22927576  0.11043397  0.17525617  1
  H+  H121  1  0.11036646  0.98298039  0.82815979  1
  H+  H122  1  0.51009637  0.13567091  0.65674192  1
  H+  H123  1  0.71955546  0.85713694  0.17032030  1
  H+  H124  1  0.14362668  0.11745642  0.17445440  1
  H+  H125  1  0.66811570  0.79266738  0.66586382  1
  H+  H126  1  0.97805925  0.84881264  0.50311828  1
  H+  H127  1  0.64497639  0.52872629  0.85680710  1
  H+  H128  1  0.20488901  0.58734198  0.58123138  1
  H+  H129  1  0.46099665  0.84830013  0.66020486  1
  H+  H130  1  0.63794897  0.61278882  1.01190808  1
  H+  H131  1  0.02423612  0.14093830  0.33817970  1
  H+  H132  1  0.88462324  0.83214683  0.49178972  1
  H+  H133  1  0.23583328  0.36423606  -0.01090191  1
  H+  H134  1  0.11737264  0.22859092  0.16001169  1
  H+  H135  1  0.15093333  1.03189616  0.66245865  1
  H+  H136  1  0.34377463  0.04836900  0.33524425  1
  H+  H137  1  0.53006586  0.38581548  0.83433207  1
  H+  H138  1  0.12956012  0.36611781  0.50658522  1
  H+  H139  1  0.36133445  0.48027643  -0.00561894  1
  H+  H140  1  0.46810949  0.07955970  0.20541886  1
  H+  H141  1  0.33527380  0.18225723  0.40490034  1
  H+  H142  1  0.77582458  0.40026172  0.69662101  1
  H+  H143  1  0.47532954  0.63020055  0.84472120  1
  H+  H144  1  0.63003705  0.10615469  0.65790975  1
  H+  H145  1  0.92429035  0.08679856  0.26616543  1
  H+  H146  1  0.64673454  0.34767971  0.32722611  1
  H+  H147  1  0.14508361  0.74765048  0.48962926  1
  H+  H148  1  0.52384677  0.63710836  0.47878788  1
  H+  H149  1  0.78681291  0.90012084  0.51221692  1
  H+  H150  1  0.13378889  0.04077527  0.50893461  1
  H+  H151  1  0.52550196  0.63043337  0.01160177  1
  H+  H152  1  0.17210720  0.84432819  0.48000274  1
  H+  H153  1  0.34606022  0.38414463  0.16611601  1
  H+  H154  1  0.83829862  0.64919816  0.40296462  1
  H+  H155  1  0.90526517  0.37353610  -0.00588260  1
  H+  H156  1  0.87505733  0.99975603  0.67455794  1
  H+  H157  1  0.64815256  0.27439190  0.84167147  1
  H+  H158  1  0.00673046  0.37782467  0.34315918  1
  H+  H159  1  0.88248000  0.28242763  0.66115028  1
  H+  H160  1  0.45869808  0.67250340  0.96126556  1
  H+  H161  1  0.60851955  0.96264248  0.34392547  1
  H+  H162  1  0.10927648  0.73239791  1.01282119  1
  H+  H163  1  0.13278548  0.52510533  0.17916471  1
  H+  H164  1  0.73884242  0.61873336  0.01123743  1
  H+  H165  1  0.26281181  0.63157011  0.17013189  1
  H+  H166  1  0.62030735  0.01077882  0.99664981  1
  H+  H167  1  0.36122695  0.51828214  0.32032754  1
  H+  H168  1  0.78429616  0.15282727  0.15208842  1
  H+  H169  1  0.89121300  0.39441243  0.15698869  1
  H+  H170  1  0.88968146  0.11709821  0.84312525  1
  H+  H171  1  0.08667200  0.58678718  0.69047981  1
  H+  H172  1  0.83456085  0.48333963  0.46960236  1
  H+  H173  1  0.85683103  0.23634177  0.49135552  1
  H+  H174  1  0.77766863  0.64263290  0.83486825  1
  H+  H175  1  0.86617046  0.15256971  0.49176357  1
  H+  H176  1  0.20949792  0.87848175  0.98352129  1
  H+  H177  1  0.88193689  0.13678491  1.00023384  1
  H+  H178  1  0.61629916  0.36129446  0.48595568  1
  H+  H179  1  1.04440010  0.39792424  1.01449278  1
  H+  H180  1  0.50016637  0.11622406  0.30299264  1
  H+  H181  1  0.38495681  0.74736330  0.48367896  1
  H+  H182  1  0.89647846  0.52532936  0.16703234  1
  H+  H183  1  0.02999379  0.64930242  0.82489313  1
  H+  H184  1  0.77100211  0.93075276  0.36265970  1
  H+  H185  1  0.23156489  0.12650211  0.32846833  1
  H+  H186  1  0.36474599  0.14459676  0.81839544  1
  H+  H187  1  0.34797846  0.87679145  0.65624814  1
  H+  H188  1  0.88964813  0.03419429  0.32870991  1
  H+  H189  1  0.57983695  0.66042119  0.07277091  1
  H+  H190  1  0.44414711  0.38813919  0.33217379  1
  H+  H191  1  0.89038535  0.02819693  0.84157196  1
  H+  H192  1  0.33370498  0.39109172  0.33366916  1
  H+  H193  1  0.35546885  0.64636460  0.82970095  1
  H+  H194  1  0.86125614  0.72684110  0.00778758  1
  H+  H195  1  0.03627142  0.40804570  0.83107016  1
  H+  H196  1  0.37167806  -0.02465688  0.32745010  1
  H+  H197  1  0.17502644  0.35228050  0.78264791  1
  H+  H198  1  0.87371736  0.23317825  0.82890791  1
  H+  H199  1  0.26696087  0.14258412  0.49010935  1
  H+  H200  1  0.93048229  0.33478399  0.22946868  1
  H+  H201  1  0.72123857  0.60686217  0.16390506  1
  H+  H202  1  0.62707955  0.25316515  0.30493900  1
  H+  H203  1  0.88609898  0.12885888  0.66080636  1
  H+  H204  1  0.64166696  0.09307330  0.36273844  1
  H+  H205  1  0.57390736  0.36789337  0.14748898  1
  H+  H206  1  0.45662208  0.36582896  0.16615063  1
  H+  H207  1  0.46573874  0.61152239  0.17135841  1
  H+  H208  1  0.60127526  0.47171990  0.48538308  1
  H+  H209  1  0.23306724  0.62854069  0.86926027  1
  H+  H210  1  0.37421751  0.28770805  0.33112490  1
  H+  H211  1  0.86749529  0.64494205  0.83012421  1
  H+  H212  1  0.39701952  0.62988599  0.48905675  1
  H+  H213  1  0.59010831  0.86692022  0.34103468  1
  H+  H214  1  0.98565358  0.11039126  0.99650135  1
  H+  H215  1  0.11682633  0.49800244  0.84511497  1
  H+  H216  1  0.49430825  0.13678968  0.98642869  1
  H+  H217  1  0.87632969  0.37078893  0.50677660  1
  H+  H218  1  0.86711012  0.48736748  0.68342889  1
  H+  H219  1  0.12313623  0.61652535  0.49275136  1
  H+  H220  1  0.23056717  0.84664685  0.32061147  1
  H+  H221  1  0.60240875  0.88359727  0.67710260  1
  H+  H222  1  0.12758454  0.38933183  1.01492315  1
  H+  H223  1  0.61896363  0.27342090  0.67376509  1
  H+  H224  1  0.40852475  0.29921028  0.99042286  1
  H+  H225  1  0.36323971  -0.04269936  0.17191965  1
  H+  H226  1  0.37598023  0.27623727  0.49417680  1
  H+  H227  1  0.61531105  0.13962162  0.00501879  1
  H+  H228  1  0.88667890  0.77770558  0.84065794  1
  H+  H229  1  0.37050417  0.77165805  0.84955107  1
  H+  H230  1  0.12349797  0.27352004  0.32840145  1
  H+  H231  1  0.46520410  0.84822941  1.00312086  1
  H+  H232  1  0.24237903  0.81602742  0.04176170  1
  H+  H233  1  0.93310070  0.34023185  0.90059795  1
  H+  H234  1  -0.01161654  0.10687045  0.17860781  1
  H+  H235  1  0.09188846  0.16933820  0.10049457  1
  H+  H236  1  0.39572750  0.27910685  0.83148924  1
  H+  H237  1  0.11538040  0.85927830  -0.00241863  1
  H+  H238  1  0.01960696  0.90805595  0.15328842  1
  H+  H239  1  0.37345095  1.02334418  0.65196116  1
  H+  H240  1  0.13941080  0.60876704  0.27956729  1
  H+  H241  1  0.89723978  0.01906927  0.18108129  1
  H+  H242  1  0.36665767  0.13354943  0.16673468  1
  H+  H243  1  0.11550799  0.23647512  0.82825332  1
  H+  H244  1  0.83529055  0.17597179  0.73588184  1
  H+  H245  1  0.89888587  0.36922122  0.84362914  1
  H+  H246  1  0.89167461  0.36206695  0.32485453  1
  H+  H247  1  0.10811057  0.73419452  0.16391759  1
  H+  H248  1  0.85986261  0.63134214  0.16093119  1
  H+  H249  1  0.03562294  0.39311822  0.16260382  1
  H+  H250  1  0.85260686  0.87560558  0.16965895  1
  H+  H251  1  0.64639228  0.12679072  0.17225531  1
  H+  H252  1  0.02718607  0.14616173  0.83413943  1
  H+  H253  1  0.02548356  0.16116492  0.67467983  1
  H+  H254  1  0.86546650  0.14139699  0.33767643  1
  H+  H255  1  0.45183427  0.36670108  0.64231211  1
  H+  H256  1  0.55306664  0.37906076  0.32673333  1
  H+  H257  1  0.84734327  0.83205079  0.34051208  1
  H+  H258  1  0.41144005  0.58379719  0.54725533  1
  H+  H259  1  0.60420200  0.88216160  1.00605891  1
  H+  H260  1  0.15282521  0.38984203  0.83692485  1
  H+  H261  1  0.89599353  0.53209754  0.84402195  1
  H+  H262  1  0.61040418  0.22231007  0.51333599  1
  H+  H263  1  0.37249799  0.76004915  0.64629316  1
  H+  H264  1  0.40236489  0.37186725  0.82636989  1
  H+  H265  1  0.78217955  0.14550813  0.83043251  1
  H+  H266  1  1.00819309  0.87803555  1.00501628  1
  H+  H267  1  0.24491927  0.38240177  0.17558600  1
  H+  H268  1  0.57794786  0.91642073  0.06492299  1
  H+  H269  1  0.58775952  0.11852148  0.29140505  1
  H+  H270  1  0.62345275  0.97857992  0.49529328  1
  H+  H271  1  0.36137681  0.48505850  0.48111610  1
  H+  H272  1  0.37495511  0.61273896  0.17160266  1
  H+  H273  1  0.65012453  0.28440701  0.99512642  1
  H+  H274  1  0.97144284  0.97330253  0.37947905  1
  H+  H275  1  0.97848373  0.61889695  0.16941410  1
  H+  H276  1  0.37968962  0.62168412  1.00315620  1
  H+  H277  1  0.04203316  0.62512126  0.48437645  1
  H+  H278  1  0.36277963  0.22123964  0.16737604  1
  H+  H279  1  0.35620467  0.13921312  0.48990330  1
  H+  H280  1  0.86653696  0.89115217  0.82799487  1
  H+  H281  1  0.36567017  0.27854573  0.64802038  1
  H+  H282  1  0.53281707  0.39694401  -0.00710530  1
  H+  H283  1  0.63721841  0.25272727  0.15601644  1
  H+  H284  1  0.48942974  0.86906192  0.50652819  1
  H+  H285  1  0.78811472  0.39279985  0.83467255  1
  H+  H286  1  0.80085062  0.39032737  0.15921943  1
  H+  H287  1  0.11521409  0.14309685  0.33904610  1
  H+  H288  1  0.40003446  0.58442626  0.89222115  1
  H+  H289  1  0.64749737  0.82221327  0.22292547  1
  H+  H290  1  0.61134150  0.67790016  0.79261455  1
  H+  H291  1  0.61558057  0.89324554  0.15160188  1
  H+  H292  1  1.01739858  0.63797350  1.01419414  1
  H+  H293  1  0.29413559  0.89710852  0.70346051  1
  H+  H294  1  0.26202467  0.61714107  0.00063549  1
  H+  H295  1  0.67189828  0.83521835  0.94195397  1
  H+  H296  1  0.38663411  0.04985917  0.24160762  1
  H+  H297  1  0.51883043  0.64672766  0.71714832  1
  H+  H298  1  0.92489320  0.08002221  0.93661695  1
  H+  H299  1  0.64389282  0.86659880  0.84645497  1
  H+  H300  1  0.89711382  0.93659157  0.42852163  1
  H+  H301  1  0.67324602  0.07661099  0.57003062  1
  H+  H302  1  0.89140190  0.27193443  0.32668882  1
  H+  H303  1  0.08402276  0.67403500  0.07945894  1
  H+  H304  1  0.83577285  0.17301552  0.39748073  1
  H+  H305  1  0.14987600  0.82926530  0.89847839  1
  H+  H306  1  0.35650319  0.39303967  0.48153503  1
  H+  H307  1  0.84914993  0.42713820  0.77640924  1
  H+  H308  1  0.93574479  0.59739881  0.62227763  1
  H+  H309  1  0.65712267  0.35134771  0.54505980  1
  H+  H310  1  0.15050731  0.82662766  0.23572408  1
  H+  H311  1  0.52295737  0.40922634  0.72291708  1
  H+  H312  1  0.83414090  0.91120791  0.10735909  1
  H+  H313  1  0.94230932  0.82958337  0.22590724  1
  H+  H314  1  0.84140178  0.92701196  0.76863790  1
  H+  H315  1  0.56262249  0.13904533  0.40666173  1
  H+  H316  1  0.92047737  0.58100332  0.26189110  1
  H+  H317  1  0.58930403  0.41233759  0.39321450  1
  H+  H318  1  0.17613778  0.09637806  0.60506634  1
  H+  H319  1  0.65802860  0.57490906  0.55965205  1
  H+  H320  1  0.21977833  0.37113153  0.50216296  1
  H+  H321  1  0.67550434  0.84888813  0.60750615  1
  H+  H322  1  0.54403978  0.09109186  0.40872126  1
  H+  H323  1  0.67506257  0.09160812  0.22824533  1
  H+  H324  1  0.21154319  0.64030425  0.69763882  1
  H+  H325  1  0.39993776  0.08363456  0.59454468  1
  H+  H326  1  0.11158134  0.93021816  0.45309306  1
  H+  H327  1  0.38529113  0.02901925  0.49675653  1
  H+  H328  1  0.59218652  0.91360522  0.43668305  1
  H+  H329  1  0.31613929  0.42652627  0.39604692  1
  H+  H330  1  0.62298861  -0.01467187  0.15144487  1
  H+  H331  1  0.07131588  0.41571499  0.40856533  1
  H+  H332  1  0.35298636  0.43390604  0.75439926  1
  H+  H333  1  0.08448703  0.17945640  0.43443557  1
  H+  H334  1  0.40013914  0.05650731  0.98650742  1
  H+  H335  1  0.67161620  0.08876023  0.90133570  1
  H+  H336  1  0.59345279  0.18064879  0.06186694  1
  H+  H337  1  0.85022444  0.79619765  0.25215452  1
  H+  H338  1  0.10392179  0.47339757  0.50431101  1
  H+  H339  1  0.40457540  0.34011800  0.22971096  1
  H+  H340  1  0.16027929  0.08345749  0.93139639  1
  H+  H341  1  0.40114959  0.33721314  0.55214112  1
  H+  H342  1  0.09929624  0.42401870  0.10360851  1
  H+  H343  1  0.11081458  0.52789117  0.59986156  1
  H+  H344  1  0.39998465  0.57918905  0.25576939  1
  H+  H345  1  0.43198095  0.34805552  0.92520700  1
  H+  H346  1  0.65156914  0.57392649  0.25368402  1
  H+  H347  1  0.50702559  0.38517249  0.48160915  1
  H+  H348  1  0.68222827  0.34093992  0.93548363  1
  H+  H349  1  0.10138119  0.67111284  0.77293398  1
  H+  H350  1  0.31996658  0.59752872  0.64365172  1
  H+  H351  1  0.35667473  0.19133514  0.06732652  1
  H+  H352  1  0.67360919  0.36088188  0.63992085  1
  H+  H353  1  0.32906209  0.90598163  0.79238227  1
  H+  H354  1  0.17086060  0.33497106  0.93371682  1
  H+  H355  1  0.61208566  0.43025787  0.78878026  1
  H+  H356  1  0.12720436  0.68886958  0.67095507  1
  H+  H357  1  0.62255359  0.39257813  0.00070217  1
  H+  H358  1  0.86593636  0.97447943  0.01147167  1
  H+  H359  1  0.69019846  0.34168217  0.23675376  1
  H+  H360  1  1.00926669  0.42423752  0.67139798  1
  H+  H361  1  0.42739062  0.10299939  0.89101405  1
  H+  H362  1  0.91797870  0.83678761  0.59867788  1
  H+  H363  1  0.37436197  0.40036767  -0.00621514  1
  H+  H364  1  0.30408516  0.66282908  0.77672752  1
  H+  H365  1  0.13212448  0.29634848  0.69784547  1
  H+  H366  1  0.15788049  0.33938451  0.23717434  1
  H+  H367  1  0.35756815  0.74629190  0.37939509  1
  H+  H368  1  0.34961690  0.47866870  0.16681897  1
  H+  H369  1  0.15799254  0.90141756  0.36136620  1
  H+  H370  1  0.56694189  0.41143123  0.08736846  1
  H+  H371  1  0.85065137  0.42274006  0.06370526  1
  H+  H372  1  0.10114416  0.64666077  0.37665477  1
  H+  H373  1  0.31706845  0.87177847  0.12312275  1
  H+  H374  1  0.13823992  0.77676688  0.58975246  1
  H+  H375  1  0.31665587  0.65976929  0.10856685  1
  H+  H376  1  0.64524753  0.87767799  0.51061135  1
  H+  H377  1  0.42082270  0.83506757  0.56146650  1
  H+  H378  1  0.83815860  0.67136117  0.07072567  1
  H+  H379  1  0.92844103  0.59492123  0.90077600  1
  H+  H380  1  0.35109769  0.92195506  0.42505813  1
  H+  H381  1  0.58980011  0.16989563  0.76483279  1
  H+  H382  1  0.09018763  0.92977913  0.73007835  1
  H+  H383  1  0.56145279  0.90025844  0.73499200  1
  O2-  O384  1  0.09347148  0.16866033  0.14641668  1
  O2-  O385  1  0.08235678  0.17912823  0.47958535  1
  O2-  O386  1  0.08705872  0.17418395  0.81842946  1
  O2-  O387  1  0.09801209  0.42683903  0.15091842  1
  O2-  O388  1  0.07087953  0.41960365  0.48045430  1
  O2-  O389  1  0.09604881  0.44841059  0.81771297  1
  O2-  O390  1  0.08367447  0.67314943  0.14406112  1
  O2-  O391  1  0.09796236  0.64082079  0.46505104  1
  O2-  O392  1  0.09178429  0.68503618  0.81477727  1
  O2-  O393  1  0.07866378  0.92674334  0.14178904  1
  O2-  O394  1  0.08394333  0.92701598  0.49411930  1
  O2-  O395  1  0.07634919  0.92173630  0.81444369  1
  O2-  O396  1  0.33585913  0.16206310  0.15083754  1
  O2-  O397  1  0.32784540  0.17147604  0.47366389  1
  O2-  O398  1  0.33561435  0.17712924  0.80697142  1
  O2-  O399  1  0.31362420  0.41542040  0.15711509  1
  O2-  O400  1  0.32708748  0.42463673  0.46681641  1
  O2-  O401  1  0.35640691  0.42338031  0.79788558  1
  O2-  O402  1  0.32291029  0.66140778  0.15382886  1
  O2-  O403  1  0.36145028  0.69091571  0.46049824  1
  O2-  O404  1  0.31969234  0.67391657  0.82031626  1
  O2-  O405  1  0.33283811  0.89353198  0.16684102  1
  O2-  O406  1  0.36153937  0.93938161  0.46847737  1
  O2-  O407  1  0.32522321  0.91618570  0.83534554  1
  O2-  O408  1  0.60181182  0.19267634  0.14103714  1
  O2-  O409  1  0.58146421  0.16532245  0.53295808  1
  O2-  O410  1  0.58744949  0.17096895  0.80909584  1
  O2-  O411  1  0.55894726  0.40998137  0.13316473  1
  O2-  O412  1  0.56846486  0.41290817  0.46661791  1
  O2-  O413  1  0.59602424  0.41752299  0.83133054  1
  O2-  O414  1  0.57023529  0.66040166  0.14667537  1
  O2-  O415  1  0.58099399  0.65314547  0.45948417  1
  O2-  O416  1  0.59109494  0.68015347  0.83321658  1
  O2-  O417  1  0.58972751  0.92651084  0.13516848  1
  O2-  O418  1  0.59633072  0.91668068  0.48302372  1
  O2-  O419  1  0.54803343  0.85754487  0.80873836  1
  O2-  O420  1  0.84361150  0.18769255  0.13685044  1
  O2-  O421  1  0.83016464  0.17649681  0.47530398  1
  O2-  O422  1  0.84202007  0.17258515  0.81341531  1
  O2-  O423  1  0.85888619  0.42312471  0.14117521  1
  O2-  O424  1  0.81900346  0.42296756  0.46807865  1
  O2-  O425  1  0.84942413  0.42636075  0.82197519  1
  O2-  O426  1  0.82803126  0.66078161  0.14658693  1
  O2-  O427  1  0.83972557  0.63867274  0.48672322  1
  O2-  O428  1  0.83637872  0.67476265  0.81620594  1
  O2-  O429  1  0.82877407  0.91039137  0.15264171  1
  O2-  O430  1  0.85027781  0.93006777  0.50519583  1
  O2-  O431  1  0.83656558  0.92269085  0.81397367  1
  O2-  O432  1  0.16897465  0.08261535  0.19065947  1
  O2-  O433  1  0.17057171  0.10246254  0.51891550  1
  O2-  O434  1  0.16696287  0.08786894  0.85213564  1
  O2-  O435  1  0.16593056  0.34270947  0.19185321  1
  O2-  O436  1  0.16103140  0.33653020  0.51847907  1
  O2-  O437  1  0.17944983  0.35357011  0.82936536  1
  O2-  O438  1  0.15907199  0.58647126  0.19453235  1
  O2-  O439  1  0.14667664  0.55504272  0.56356419  1
  O2-  O440  1  0.18037476  0.60372826  0.89587864  1
  O2-  O441  1  0.13911480  0.81939612  0.19085771  1
  O2-  O442  1  0.16013008  0.80179109  0.51133251  1
  O2-  O443  1  0.16172648  0.83767127  0.85446239  1
  O2-  O444  1  0.40746709  0.06038366  0.19756462  1
  O2-  O445  1  0.40493417  0.08734671  0.51661118  1
  O2-  O446  1  0.42232615  0.09357478  0.84605695  1
  O2-  O447  1  0.39831273  0.33404370  0.18484361  1
  O2-  O448  1  0.40634479  0.33838287  0.50644206  1
  O2-  O449  1  0.43073440  0.34082041  0.84501464  1
  O2-  O450  1  0.40483468  0.58069058  0.18683389  1
  O2-  O451  1  0.42287861  0.59396537  0.50354630  1
  O2-  O452  1  0.41284621  0.60495143  0.85013986  1
  O2-  O453  1  0.39710415  0.81717149  0.21365700  1
  O2-  O454  1  0.42702011  0.83883157  0.51640029  1
  O2-  O455  1  0.40749818  0.83001288  0.86839637  1
  O2-  O456  1  0.67583964  0.09490477  0.18382847  1
  O2-  O457  1  0.66990036  0.07991276  0.52476696  1
  O2-  O458  1  0.68040046  0.09466379  0.85700286  1
  O2-  O459  1  0.69707666  0.35239804  0.19106364  1
  O2-  O460  1  0.65278624  0.33683993  0.50209064  1
  O2-  O461  1  0.68070399  0.33319599  0.85931571  1
  O2-  O462  1  0.65925206  0.57912510  0.17628831  1
  O2-  O463  1  0.66413445  0.57150982  0.51460989  1
  O2-  O464  1  0.67958417  0.59048812  0.86631213  1
  O2-  O465  1  0.65616046  0.82570962  0.17807972  1
  O2-  O466  1  0.67926513  0.85155341  0.53171984  1
  O2-  O467  1  0.68001092  0.84447227  0.86352045  1
  O2-  O468  1  0.93192916  0.07673867  0.19944151  1
  O2-  O469  1  0.92225487  0.10916661  0.51958615  1
  O2-  O470  1  0.91968919  0.08706767  0.85956548  1
  O2-  O471  1  0.93437124  0.33999353  0.18462068  1
  O2-  O472  1  0.90632137  0.34099648  0.52138910  1
  O2-  O473  1  0.92863637  0.33695403  0.85532310  1
  O2-  O474  1  0.91747635  0.58467978  0.18317244  1
  O2-  O475  1  0.95110872  0.59552619  0.53273309  1
  O2-  O476  1  0.92389585  0.59402588  0.85605437  1
  O2-  O477  1  0.88390327  0.80849373  0.21123707  1
  O2-  O478  1  0.91604303  0.80837334  0.51260043  1
  O2-  O479  1  0.91419056  0.83774817  0.85753864  1
  O2-  O480  1  0.17052407  0.08943378  0.31716485  1
  O2-  O481  1  0.18372763  0.09415784  0.64912877  1
  O2-  O482  1  0.15491334  0.08058579  0.97655119  1
  O2-  O483  1  0.14667685  0.33484076  0.31425508  1
  O2-  O484  1  0.16298527  0.35808303  0.71203657  1
  O2-  O485  1  0.17272751  0.33120541  0.97798097  1
  O2-  O486  1  0.16338097  0.57455991  0.26056532  1
  O2-  O487  1  0.26243727  0.62898392  0.70229457  1
  O2-  O488  1  0.19495594  0.56286374  0.94321572  1
  O2-  O489  1  0.16897652  0.82774497  0.31186176  1
  O2-  O490  1  0.14061842  0.77273786  0.63436769  1
  O2-  O491  1  0.15039740  0.83085861  0.98317246  1
  O2-  O492  1  0.38871206  0.04257563  0.31482059  1
  O2-  O493  1  0.40583109  0.08478932  0.63998776  1
  O2-  O494  1  0.43518928  0.11330377  0.96846447  1
  O2-  O495  1  0.39379201  0.34504929  0.31032765  1
  O2-  O496  1  0.39183804  0.33745980  0.62791743  1
  O2-  O497  1  0.43884601  0.35762200  0.97002051  1
  O2-  O498  1  0.40078438  0.57845054  0.30299166  1
  O2-  O499  1  0.37160452  0.52651713  0.63238231  1
  O2-  O500  1  0.42769526  0.61697313  0.98159655  1
  O2-  O501  1  0.38223523  0.85105793  0.33697890  1
  O2-  O502  1  0.40401639  0.82282282  0.63968412  1
  O2-  O503  1  0.40348116  0.81318606  0.99061685  1
  O2-  O504  1  0.66529745  0.08489667  0.32487808  1
  O2-  O505  1  0.66293805  0.07657070  0.64937396  1
  O2-  O506  1  0.65539113  0.07455040  0.98665029  1
  O2-  O507  1  0.67188901  0.31558764  0.30705549  1
  O2-  O508  1  0.64843110  0.33809649  0.67954710  1
  O2-  O509  1  0.68037871  0.34538722  0.98101900  1
  O2-  O510  1  0.64164401  0.57400562  0.29825276  1
  O2-  O511  1  0.64956314  0.58009918  0.63776829  1
  O2-  O512  1  0.67379453  0.58468268  1.00081221  1
  O2-  O513  1  0.62659930  0.80189236  0.30093232  1
  O2-  O514  1  0.67207628  0.84649351  0.65320617  1
  O2-  O515  1  0.66674128  0.83282869  0.98719411  1
  O2-  O516  1  0.92067250  0.09304946  0.31321648  1
  O2-  O517  1  0.91641185  0.09863734  0.64554189  1
  O2-  O518  1  0.92400558  0.07889358  0.98232166  1
  O2-  O519  1  0.92584093  0.33365187  0.31277739  1
  O2-  O520  1  0.90732822  0.34088288  0.64271291  1
  O2-  O521  1  0.93928053  0.34707098  0.97956466  1
  O2-  O522  1  0.92406705  0.58016020  0.30720271  1
  O2-  O523  1  0.91460746  0.58195405  0.66402851  1
  O2-  O524  1  0.92953978  0.59273762  0.98743499  1
  O2-  O525  1  0.81041217  0.78148093  0.31525381  1
  O2-  O526  1  0.93838561  0.86663595  0.63757356  1
  O2-  O527  1  0.90708151  0.82583765  0.97946735  1
  O2-  O528  1  0.08648481  0.16570385  0.02403082  1
  O2-  O529  1  0.08500857  0.17394955  0.35325760  1
  O2-  O530  1  0.08469082  0.19356467  0.69031351  1
  O2-  O531  1  0.09975145  0.41801475  0.03566751  1
  O2-  O532  1  0.06980333  0.40994929  0.36208732  1
  O2-  O533  1  0.06281536  0.47782710  0.68194054  1
  O2-  O534  1  0.08056461  0.67281761  0.03069843  1
  O2-  O535  1  0.09408446  0.65391809  0.33297553  1
  O2-  O536  1  0.12928381  0.64703560  0.70088425  1
  O2-  O537  1  0.07015215  0.90754901  0.01809739  1
  O2-  O538  1  0.16086378  0.94758047  0.38805512  1
  O2-  O539  1  0.09895069  0.93366657  0.68562986  1
  O2-  O540  1  0.37037142  0.20877542  0.02452782  1
  O2-  O541  1  0.34067700  0.19162618  0.35813187  1
  O2-  O542  1  0.33664745  0.18677793  0.68371728  1
  O2-  O543  1  0.33682518  0.42187530  0.00969998  1
  O2-  O544  1  0.30935833  0.42625232  0.34967003  1
  O2-  O545  1  0.33719610  0.44647958  0.66878548  1
  O2-  O546  1  0.31290085  0.64893405  0.02895434  1
  O2-  O547  1  0.32386271  0.75809568  0.34941853  1
  O2-  O548  1  0.29940969  0.63963442  0.64105884  1
  O2-  O549  1  0.28917540  0.81736520  0.06459413  1
  O2-  O550  1  0.33545109  0.89384156  0.34665164  1
  O2-  O551  1  0.31654552  0.90900987  0.66229257  1
  O2-  O552  1  0.59181621  0.17783210  0.01671958  1
  O2-  O553  1  0.55639085  0.14887301  0.28163850  1
  O2-  O554  1  0.57511935  0.17016305  0.65519513  1
  O2-  O555  1  0.59131155  0.42307221  0.01472719  1
  O2-  O556  1  0.60623107  0.41258399  0.34934937  1
  O2-  O557  1  0.55306262  0.41634597  0.68457499  1
  O2-  O558  1  0.58554616  0.65800068  0.02704262  1
  O2-  O559  1  0.55139529  0.63446903  0.33638658  1
  O2-  O560  1  0.53460180  0.64795949  0.67451751  1
  O2-  O561  1  0.57143027  0.91077399  0.01850870  1
  O2-  O562  1  0.57903723  0.90698801  0.36488747  1
  O2-  O563  1  0.56672362  0.90866879  0.69003121  1
  O2-  O564  1  0.84980989  0.16961859  0.00721237  1
  O2-  O565  1  0.83439196  0.17180724  0.35177033  1
  O2-  O566  1  0.83299299  0.17787232  0.69024107  1
  O2-  O567  1  0.84982546  0.42619930  0.01828090  1
  O2-  O568  1  0.83765933  0.40822969  0.34591563  1
  O2-  O569  1  0.83809466  0.42492093  0.69958889  1
  O2-  O570  1  0.83428280  0.66668079  0.02503985  1
  O2-  O571  1  0.83379008  0.65517801  0.35878593  1
  O2-  O572  1  0.82077219  0.65226913  0.69180004  1
  O2-  O573  1  0.83467451  0.91439304  0.02764710  1
  O2-  O574  1  0.91225565  0.92908480  0.38683039  1
  O2-  O575  1  0.84620840  0.93866205  0.68970084  1
