# generated using pymatgen
data_H2O
_symmetry_space_group_name_H-M   'P 1'
_cell_length_a   17.99006959
_cell_length_b   17.99217031
_cell_length_c   21.99801123
_cell_angle_alpha   90.00597910
_cell_angle_beta   89.96343885
_cell_angle_gamma   119.98840685
_symmetry_Int_Tables_number   1
_chemical_formula_structural   H2O
_chemical_formula_sum   'H384 O192'
_cell_volume   6167.10110572
_cell_formula_units_Z   192
loop_
 _symmetry_equiv_pos_site_id
 _symmetry_equiv_pos_as_xyz
  1  'x, y, z'
loop_
 _atom_type_symbol
 _atom_type_oxidation_number
  H+  1.0
  O2-  -2.0
loop_
 _atom_site_type_symbol
 _atom_site_label
 _atom_site_symmetry_multiplicity
 _atom_site_fract_x
 _atom_site_fract_y
 _atom_site_fract_z
 _atom_site_occupancy
  H+  H0  1  0.46411354  0.58163363  0.49878512  1
  H+  H1  1  0.87567854  0.98427848  0.14280303  1
  H+  H2  1  0.50336629  0.24101729  0.18353494  1
  H+  H3  1  0.13324377  0.86358411  0.32543497  1
  H+  H4  1  0.14544592  0.60381974  0.69060136  1
  H+  H5  1  1.05174329  0.55502210  0.37350524  1
  H+  H6  1  0.36850970  0.13224118  0.50419615  1
  H+  H7  1  0.09207869  0.72279559  0.49165742  1
  H+  H8  1  0.12508830  0.75926089  0.65336450  1
  H+  H9  1  0.47819665  0.86287773  0.18321532  1
  H+  H10  1  0.27352650  0.38813169  0.81727293  1
  H+  H11  1  0.89464349  1.04636564  0.31758787  1
  H+  H12  1  0.91259288  0.12174351  0.50740638  1
  H+  H13  1  0.58876966  0.39006114  0.76179937  1
  H+  H14  1  0.84667003  0.88804346  0.48019240  1
  H+  H15  1  0.64018626  0.26154367  0.15842481  1
  H+  H16  1  0.37418794  0.49947631  0.50426975  1
  H+  H17  1  0.37772425  0.77434755  1.00000883  1
  H+  H18  1  0.58627756  0.10821876  0.74442172  1
  H+  H19  1  0.22468771  0.11698960  0.17034257  1
  H+  H20  1  0.80899049  0.16122312  0.49833249  1
  H+  H21  1  0.90511661  0.28995514  0.50782387  1
  H+  H22  1  0.64083044  0.55331480  0.18934013  1
  H+  H23  1  0.46659118  0.33214857  1.00380115  1
  H+  H24  1  0.21532627  0.36592035  0.31589363  1
  H+  H25  1  0.14959623  0.02619167  0.50655105  1
  H+  H26  1  0.40398161  0.06543171  0.65803476  1
  H+  H27  1  0.64010900  0.77433091  0.32380655  1
  H+  H28  1  0.64942573  0.90917775  0.51027969  1
  H+  H29  1  0.88315399  0.90108363  0.14901166  1
  H+  H30  1  0.35147440  0.61209844  0.48565227  1
  H+  H31  1  0.37519757  0.72872117  0.50636129  1
  H+  H32  1  0.43123720  0.08573068  0.56216115  1
  H+  H33  1  0.88387146  0.26162319  0.65955778  1
  H+  H34  1  1.01481244  0.61291158  0.65259257  1
  H+  H35  1  0.38706874  0.52626138  0.82676642  1
  H+  H36  1  0.14327157  0.27755210  0.82782505  1
  H+  H37  1  0.87186075  0.62379670  0.35237443  1
  H+  H38  1  0.46700469  0.08693665  0.31759009  1
  H+  H39  1  0.87095007  0.63928079  0.95726534  1
  H+  H40  1  0.62953451  0.75737460  0.51750299  1
  H+  H41  1  0.90993994  0.80796498  0.91004187  1
  H+  H42  1  0.73136163  0.36074797  0.49915932  1
  H+  H43  1  0.56492967  0.95556779  0.47952706  1
  H+  H44  1  0.78847669  0.40461930  0.16554193  1
  H+  H45  1  0.85638491  0.23787307  0.00982265  1
  H+  H46  1  0.08682583  0.60348612  0.82268786  1
  H+  H47  1  0.38109160  0.05083846  0.76492103  1
  H+  H48  1  0.63275224  0.05328731  0.83693034  1
  H+  H49  1  0.35581792  0.88676804  0.49531748  1
  H+  H50  1  0.39391692  0.31302394  0.29687580  1
  H+  H51  1  0.10170630  0.24816942  0.16775449  1
  H+  H52  1  0.57872165  0.49775247  0.03060894  1
  H+  H53  1  0.18663953  0.61916131  0.10950117  1
  H+  H54  1  -0.01623511  0.12148326  0.15718795  1
  H+  H55  1  0.12869275  0.88596017  0.02102990  1
  H+  H56  1  0.61520338  0.13672962  0.48537518  1
  H+  H57  1  0.65544375  0.86848603  0.66475651  1
  H+  H58  1  0.51654634  0.20864379  0.36548057  1
  H+  H59  1  0.69545741  0.07317600  0.44984006  1
  H+  H60  1  0.16637286  0.07310387  0.60626098  1
  H+  H61  1  0.78257736  0.88819094  0.83164645  1
  H+  H62  1  0.12409134  0.86255978  0.17963365  1
  H+  H63  1  0.79029280  0.88755054  0.67892299  1
  H+  H64  1  0.48453318  0.36933088  0.83674486  1
  H+  H65  1  0.45551903  0.83721540  0.33046611  1
  H+  H66  1  0.02287354  0.13208089  0.67182676  1
  H+  H67  1  0.99702650  0.88664670  0.17775252  1
  H+  H68  1  0.70935148  0.29993036  0.66370494  1
  H+  H69  1  0.02922518  0.90063149  0.48839406  1
  H+  H70  1  0.85229917  0.13125520  0.15687974  1
  H+  H71  1  0.11986107  0.97047256  0.01424650  1
  H+  H72  1  0.64454045  0.28348125  0.32602380  1
  H+  H73  1  0.63627033  0.12822648  0.18069204  1
  H+  H74  1  0.88812608  0.60597930  0.51617379  1
  H+  H75  1  0.52753417  0.37205643  0.34106178  1
  H+  H76  1  0.36385685  0.72924776  0.85241332  1
  H+  H77  1  0.87333589  0.48663105  0.33828796  1
  H+  H78  1  0.68376454  0.81425720  0.89815008  1
  H+  H79  1  0.15868309  0.33773458  0.88642404  1
  H+  H80  1  0.62863711  0.26487274  -0.01015055  1
  H+  H81  1  0.13760439  0.53617115  0.15028844  1
  H+  H82  1  0.12009844  0.25629882  0.66014184  1
  H+  H83  1  0.13869161  0.12401766  0.17520039  1
  H+  H84  1  0.63807167  0.14181665  0.82745256  1
  H+  H85  1  0.37187797  0.40348581  0.16005730  1
  H+  H86  1  0.11943937  0.39356830  0.34529778  1
  H+  H87  1  0.37422201  0.61589791  0.32690259  1
  H+  H88  1  0.23496301  0.12745778  0.84335880  1
  H+  H89  1  0.14409183  1.02985206  0.32563776  1
  H+  H90  1  0.38184951  0.20462138  0.01624919  1
  H+  H91  1  0.88716426  0.65834303  0.17817743  1
  H+  H92  1  0.32058145  0.89809696  0.77772306  1
  H+  H93  1  0.38589276  0.61410589  0.83806331  1
  H+  H94  1  0.41209364  0.82049323  0.24131549  1
  H+  H95  1  0.47313438  0.10247111  0.79303304  1
  H+  H96  1  0.50965213  0.64616255  0.99537641  1
  H+  H97  1  0.72981543  0.60354406  0.34558213  1
  H+  H98  1  0.60174887  -0.01357879  0.17015792  1
  H+  H99  1  0.66477103  0.57839825  0.58016944  1
  H+  H100  1  0.88513409  0.84523457  0.67954591  1
  H+  H101  1  0.89210320  0.11809646  0.82968462  1
  H+  H102  1  0.83134809  0.69248497  0.68973518  1
  H+  H103  1  0.09648274  0.64238964  0.15748675  1
  H+  H104  1  0.87517471  0.71111014  0.36510688  1
  H+  H105  1  0.66021920  0.78062797  0.98763085  1
  H+  H106  1  0.25467937  0.88924140  0.68504249  1
  H+  H107  1  0.38422898  0.39874452  0.66960482  1
  H+  H108  1  0.90821454  0.79617490  0.18286935  1
  H+  H109  1  0.19263005  0.62990185  0.34404543  1
  H+  H110  1  0.60220497  0.65077669  1.00137843  1
  H+  H111  1  0.71878749  0.11653293  0.17735093  1
  H+  H112  1  0.86407323  0.22749018  0.83059640  1
  H+  H113  1  0.36196530  0.10538199  0.32818761  1
  H+  H114  1  0.25524424  0.44157842  0.17744123  1
  H+  H115  1  0.45339396  0.88108126  0.64776675  1
  H+  H116  1  0.31774046  0.40671514  0.42911700  1
  H+  H117  1  0.25600170  0.62050733  0.02138211  1
  H+  H118  1  0.95852457  0.58500443  0.98815340  1
  H+  H119  1  0.26502080  0.38214305  0.49256749  1
  H+  H120  1  0.62279700  0.34855285  0.98426577  1
  H+  H121  1  0.83365978  0.09848946  -0.01413430  1
  H+  H122  1  0.02545291  0.90005484  0.33870171  1
  H+  H123  1  0.47059135  0.35717707  0.50564369  1
  H+  H124  1  -0.00194730  0.38808578  0.32604597  1
  H+  H125  1  0.88419924  0.35414358  0.83900205  1
  H+  H126  1  0.86602463  0.24043535  0.34203108  1
  H+  H127  1  0.65949843  0.64757153  0.21075005  1
  H+  H128  1  0.07157853  0.14297219  0.00321285  1
  H+  H129  1  0.35585511  0.40661729  0.00249747  1
  H+  H130  1  0.39844804  0.86551139  0.84580041  1
  H+  H131  1  0.54359225  0.39010332  0.17166122  1
  H+  H132  1  0.09749638  0.62655504  0.61696939  1
  H+  H133  1  0.41598614  0.59391798  0.26849547  1
  H+  H134  1  0.26666378  0.12749710  0.50813262  1
  H+  H135  1  0.39530666  0.28074898  0.83141757  1
  H+  H136  1  0.87086946  0.72357458  0.83151832  1
  H+  H137  1  0.35700627  0.49377324  0.33780640  1
  H+  H138  1  0.36111428  0.40892631  0.33480948  1
  H+  H139  1  0.89765527  1.03244796  0.83010729  1
  H+  H140  1  0.39501106  0.22929694  0.32322015  1
  H+  H141  1  0.24865718  0.42652504  0.14505391  1
  H+  H142  1  0.10934850  0.37514507  0.82004520  1
  H+  H143  1  0.65057444  0.37279572  0.33210491  1
  H+  H144  1  0.78783802  0.39441905  0.33986660  1
  H+  H145  1  0.11270218  0.88975805  0.49377953  1
  H+  H146  1  0.68873125  0.62703744  0.66613716  1
  H+  H147  1  0.61966456  0.22825790  0.48927263  1
  H+  H148  1  0.84331912  0.44970620  0.66805634  1
  H+  H149  1  0.60870867  0.64607019  0.13369727  1
  H+  H150  1  0.37037502  0.14732096  0.81827272  1
  H+  H151  1  0.89751475  0.39395761  0.17425852  1
  H+  H152  1  0.83766180  0.66960080  0.45297922  1
  H+  H153  1  0.38925240  0.54146316  -0.01202164  1
  H+  H154  1  0.87224463  0.89430814  0.84601542  1
  H+  H155  1  0.46213973  0.27778044  0.23152397  1
  H+  H156  1  0.87725752  0.80464985  0.31277707  1
  H+  H157  1  0.52118847  0.64129314  0.80845407  1
  H+  H158  1  0.82150894  0.89443230  -0.01308365  1
  H+  H159  1  0.61844246  0.61835442  0.82356506  1
  H+  H160  1  0.14457544  0.51684952  0.69326218  1
  H+  H161  1  0.14629075  0.03846435  0.84782630  1
  H+  H162  1  0.60975902  0.14853147  1.00763828  1
  H+  H163  1  0.03034196  0.14470768  0.81544060  1
  H+  H164  1  0.21703089  0.86288036  0.50860780  1
  H+  H165  1  0.32530195  0.27022485  0.96825258  1
  H+  H166  1  0.61508255  0.91225645  0.01573429  1
  H+  H167  1  0.12225920  0.54381995  0.54065969  1
  H+  H168  1  0.61374805  0.72519052  0.81122109  1
  H+  H169  1  0.85003400  0.45457421  0.82154982  1
  H+  H170  1  0.23422216  0.45224043  0.55875025  1
  H+  H171  1  0.09295958  0.38034236  0.16038997  1
  H+  H172  1  0.61014551  0.46506575  0.50171862  1
  H+  H173  1  0.38691280  0.98827965  0.00950133  1
  H+  H174  1  0.61773057  0.82824089  0.85852812  1
  H+  H175  1  0.80252090  0.66859302  0.16825987  1
  H+  H176  1  0.93224639  0.08922252  0.21910781  1
  H+  H177  1  0.98156901  0.61024468  0.32937619  1
  H+  H178  1  0.12515507  0.98887079  0.16655606  1
  H+  H179  1  0.60818801  0.63204243  0.33678764  1
  H+  H180  1  0.87614541  0.74020403  0.79953936  1
  H+  H181  1  0.36595182  0.19456588  0.15586947  1
  H+  H182  1  0.80813393  0.55890880  0.81690525  1
  H+  H183  1  1.00213406  0.63978092  0.17247876  1
  H+  H184  1  0.59956942  0.87262039  0.33024975  1
  H+  H185  1  0.77729676  0.15087128  0.34704930  1
  H+  H186  1  0.63933318  0.35517778  0.50096250  1
  H+  H187  1  -0.00737480  0.11889716  0.31881559  1
  H+  H188  1  0.87038944  0.48361573  0.49906401  1
  H+  H189  1  0.03934588  0.12995012  0.49806664  1
  H+  H190  1  0.15630728  0.22634406  0.11629002  1
  H+  H191  1  1.00353712  0.62742234  0.49950958  1
  H+  H192  1  0.66447860  0.40128268  0.18096934  1
  H+  H193  1  0.89498476  1.01969501  0.66751687  1
  H+  H194  1  0.58395219  0.32031923  0.67995179  1
  H+  H195  1  0.51885730  0.14448820  0.00943411  1
  H+  H196  1  0.93974084  0.36804251  0.23793303  1
  H+  H197  1  0.36387785  0.96510704  0.82867070  1
  H+  H198  1  0.13375405  0.10497167  0.66212192  1
  H+  H199  1  0.98374951  0.38283167  0.99390219  1
  H+  H200  1  0.23306603  0.10119849  -0.00035737  1
  H+  H201  1  0.49795370  0.14671145  0.64924754  1
  H+  H202  1  0.65636556  0.74131763  0.53271847  1
  H+  H203  1  0.76198764  0.89250384  0.33314144  1
  H+  H204  1  0.10971200  0.35134624  0.66947459  1
  H+  H205  1  0.67045097  0.08688446  0.27517039  1
  H+  H206  1  0.22783939  0.86451687  0.85714331  1
  H+  H207  1  0.29712372  0.89851135  1.01361032  1
  H+  H208  1  0.59825184  0.52669074  0.85015471  1
  H+  H209  1  1.01131240  0.36929464  0.67314285  1
  H+  H210  1  0.64045714  0.01867834  0.32754077  1
  H+  H211  1  0.77178554  0.91863098  0.48667289  1
  H+  H212  1  0.37408206  0.73162923  0.17040026  1
  H+  H213  1  0.87020797  0.58279281  0.65390922  1
  H+  H214  1  0.77344263  0.13102999  0.68370725  1
  H+  H215  1  0.28283275  0.64367967  0.16676465  1
  H+  H216  1  0.11736720  0.22870744  0.34256145  1
  H+  H217  1  0.88724265  0.10505544  0.66681706  1
  H+  H218  1  0.50155184  0.85566709  0.49264426  1
  H+  H219  1  0.68250112  0.58535402  0.28204530  1
  H+  H220  1  0.39340399  0.86994415  0.99708599  1
  H+  H221  1  0.72071552  0.53542444  0.56924202  1
  H+  H222  1  0.36502948  0.22546159  0.50543549  1
  H+  H223  1  0.51869891  0.89223456  0.00758350  1
  H+  H224  1  0.78377108  0.64778715  0.51430397  1
  H+  H225  1  0.10777860  0.75857502  0.17606085  1
  H+  H226  1  0.65917240  0.77970100  0.16903294  1
  H+  H227  1  0.47822829  0.35696355  0.65821339  1
  H+  H228  1  0.36325123  0.97848013  0.49301532  1
  H+  H229  1  0.75903596  0.66094637  -0.03899291  1
  H+  H230  1  0.11399777  0.37624648  0.97415477  1
  H+  H231  1  0.86984360  0.03709378  0.97356639  1
  H+  H232  1  0.38797915  0.49795175  0.66751742  1
  H+  H233  1  0.53641434  0.90483222  0.83800437  1
  H+  H234  1  0.03329472  0.90731184  0.85527320  1
  H+  H235  1  0.14499223  0.87489787  0.86343008  1
  H+  H236  1  0.76059919  0.15725364  1.00690018  1
  H+  H237  1  0.12082569  0.14602313  0.82311081  1
  H+  H238  1  0.09584575  0.55443203  0.00429050  1
  H+  H239  1  0.85813955  0.37874080  0.00847731  1
  H+  H240  1  0.02962068  0.40252284  0.50128849  1
  H+  H241  1  0.10295197  0.46079951  0.82277833  1
  H+  H242  1  0.10937068  -0.03367291  0.68704252  1
  H+  H243  1  0.97448030  0.35556060  0.83970134  1
  H+  H244  1  0.09915233  0.92631386  0.10724936  1
  H+  H245  1  0.88429615  0.79160718  0.50684967  1
  H+  H246  1  0.36534624  0.39086836  0.81836030  1
  H+  H247  1  0.14829159  0.11620520  0.50702538  1
  H+  H248  1  0.81714859  0.39172251  0.76176570  1
  H+  H249  1  0.34398817  0.89650313  0.67885145  1
  H+  H250  1  0.62522143  1.04258978  0.66116437  1
  H+  H251  1  0.39766197  0.61302421  0.65260998  1
  H+  H252  1  0.76483831  0.37233078  1.00940720  1
  H+  H253  1  0.75408204  0.86095935  0.17066069  1
  H+  H254  1  0.86010221  0.90781483  0.33406521  1
  H+  H255  1  0.20834188  0.59667585  0.85329939  1
  H+  H256  1  0.58201508  0.19211765  0.73852862  1
  H+  H257  1  0.37745057  0.35071474  0.50192756  1
  H+  H258  1  0.62166061  0.50077115  1.03567624  1
  H+  H259  1  -0.00551551  0.39455253  0.16856514  1
  H+  H260  1  0.83963892  0.42093412  0.10277293  1
  H+  H261  1  0.60985100  0.46921595  0.34549928  1
  H+  H262  1  0.39090084  0.62046341  0.17650250  1
  H+  H263  1  0.21702432  0.85355130  0.32298435  1
  H+  H264  1  0.95210754  0.58149517  0.82795586  1
  H+  H265  1  0.36059529  0.71859046  0.66766235  1
  H+  H266  1  0.90713740  0.38562492  0.32550536  1
  H+  H267  1  0.67851586  0.83087939  0.26330788  1
  H+  H268  1  0.53029710  0.84077731  0.69975603  1
  H+  H269  1  0.36228847  0.74748115  0.33105855  1
  H+  H270  1  0.73547262  0.35213035  0.83650282  1
  H+  H271  1  0.12676066  0.14450182  0.34055308  1
  H+  H272  1  0.36622402  0.07107637  0.16174174  1
  H+  H273  1  0.28220101  0.12302667  0.33414639  1
  H+  H274  1  0.17489972  0.77903800  0.00561683  1
  H+  H275  1  0.73034685  0.58124970  0.81892114  1
  H+  H276  1  0.05371730  0.70386326  0.01296709  1
  H+  H277  1  0.38031289  -0.00560177  0.32122210  1
  H+  H278  1  0.54750414  0.63938618  0.64715958  1
  H+  H279  1  0.11506412  0.62425125  0.52362085  1
  H+  H280  1  0.14681780  0.49209336  0.34910612  1
  H+  H281  1  0.90692447  0.75170901  0.08997848  1
  H+  H282  1  0.56958928  0.93090920  0.11046759  1
  H+  H283  1  0.60206293  0.62869106  0.48774785  1
  H+  H284  1  0.31452684  0.64522919  0.43117575  1
  H+  H285  1  0.27103103  0.13525145  0.67678235  1
  H+  H286  1  0.85388292  0.36744673  0.67306439  1
  H+  H287  1  0.48535526  0.63351323  0.17485501  1
  H+  H288  1  0.33357379  0.65997348  0.90300765  1
  H+  H289  1  0.14655960  0.82168215  0.24512060  1
  H+  H290  1  0.08282248  0.42483761  0.09528588  1
  H+  H291  1  0.08902352  0.16816330  0.72886506  1
  H+  H292  1  0.92545131  0.89434623  0.93887589  1
  H+  H293  1  0.08111362  0.91918462  0.79063523  1
  H+  H294  1  0.31602834  0.67166638  0.07801308  1
  H+  H295  1  0.56560337  0.89407537  0.39099524  1
  H+  H296  1  0.91431546  0.79611766  0.63203092  1
  H+  H297  1  0.84623651  0.91164086  0.74088846  1
  H+  H298  1  0.44713769  0.76028514  0.55715585  1
  H+  H299  1  0.42947796  0.83999289  0.90685107  1
  H+  H300  1  0.17445895  0.09112202  0.26711587  1
  H+  H301  1  0.13561211  0.32580551  0.26659258  1
  H+  H302  1  0.52071680  0.63762684  0.33467360  1
  H+  H303  1  0.59328203  0.91660684  0.74072956  1
  H+  H304  1  0.05265685  0.18198890  0.05991340  1
  H+  H305  1  0.41702052  0.33712308  0.59960313  1
  H+  H306  1  0.63935425  0.94226732  0.84166584  1
  H+  H307  1  0.39432468  0.33316533  0.92064011  1
  H+  H308  1  0.89877165  0.55157777  0.89101995  1
  H+  H309  1  0.69745872  0.03753279  0.51450430  1
  H+  H310  1  0.70218429  0.90991138  0.56914917  1
  H+  H311  1  0.08650053  0.92331113  0.39706687  1
  H+  H312  1  0.40872531  0.05036000  0.21534626  1
  H+  H313  1  0.85863536  0.19070291  0.43631914  1
  H+  H314  1  0.88518116  0.72223819  -0.00668877  1
  H+  H315  1  0.32117528  0.90172321  0.39664745  1
  H+  H316  1  0.28206726  0.62663626  0.68372663  1
  H+  H317  1  0.14907279  0.40581106  0.52062624  1
  H+  H318  1  0.47972324  0.11479458  0.49877394  1
  H+  H319  1  0.92878670  0.08287453  0.56671014  1
  H+  H320  1  0.09793071  0.16219226  0.43857626  1
  H+  H321  1  0.91600226  0.32866926  0.60205447  1
  H+  H322  1  0.56281980  0.62634681  0.42346593  1
  H+  H323  1  0.88296116  0.92738844  0.04201980  1
  H+  H324  1  0.41437115  0.50415309  0.16107904  1
  H+  H325  1  0.07652840  0.63924295  0.40900890  1
  H+  H326  1  0.84588746  0.42507228  0.43743829  1
  H+  H327  1  0.02169177  0.87706256  0.69602180  1
  H+  H328  1  0.35058811  0.86286500  0.16623251  1
  H+  H329  1  0.34748187  0.86201789  0.34036833  1
  H+  H330  1  0.66020012  0.46090823  0.80298221  1
  H+  H331  1  0.03124953  0.27496209  0.21202212  1
  H+  H332  1  0.62353969  0.42349751  0.66617128  1
  H+  H333  1  0.38942388  0.82057529  0.59892501  1
  H+  H334  1  0.89439266  0.37440515  0.51046964  1
  H+  H335  1  0.90599023  0.56120217  0.59077996  1
  H+  H336  1  0.06321904  0.62860964  0.76000160  1
  H+  H337  1  0.65649839  0.14305049  0.66186172  1
  H+  H338  1  0.91707476  0.87408160  0.55103655  1
  H+  H339  1  0.57896718  0.41247487  0.43885282  1
  H+  H340  1  0.92335447  0.59668707  0.26673953  1
  H+  H341  1  0.65724559  0.10381027  0.92969083  1
  H+  H342  1  0.17209838  0.08306171  0.94326855  1
  H+  H343  1  0.81853547  0.16596668  0.10404114  1
  H+  H344  1  0.41933173  0.57241070  0.59385457  1
  H+  H345  1  0.33490429  0.17826745  0.76502560  1
  H+  H346  1  0.06921434  0.39444316  0.73580084  1
  H+  H347  1  0.15694870  0.83337568  0.56776423  1
  H+  H348  1  0.71822399  0.75128263  0.95847405  1
  H+  H349  1  0.66506627  0.79066104  0.63943970  1
  H+  H350  1  0.67625001  0.62710370  0.91919080  1
  H+  H351  1  0.17948242  0.83594185  0.94724623  1
  H+  H352  1  0.59087617  0.19281818  0.10618248  1
  H+  H353  1  0.92848340  0.86905286  0.26019708  1
  H+  H354  1  0.83865460  0.16591544  0.73766543  1
  H+  H355  1  0.81270774  0.91377374  0.40951595  1
  H+  H356  1  0.57181106  0.68312806  0.08684373  1
  H+  H357  1  0.58956191  0.45330810  0.11687841  1
  H+  H358  1  0.92070465  0.33978171  0.93632312  1
  H+  H359  1  0.32317101  0.14202997  0.09425773  1
  H+  H360  1  0.86847741  0.49924373  0.98844110  1
  H+  H361  1  0.68631705  0.35920889  0.23786888  1
  H+  H362  1  0.37811042  0.11107260  0.00650914  1
  H+  H363  1  0.09466916  0.43604458  0.44422492  1
  H+  H364  1  0.05397140  0.65821054  0.07394674  1
  H+  H365  1  0.09273246  0.27828934  0.97509795  1
  H+  H366  1  0.35692007  0.22622192  0.67318195  1
  H+  H367  1  0.12176840  0.84595504  0.66777741  1
  H+  H368  1  0.15996371  0.33889058  0.60662188  1
  H+  H369  1  0.33778361  0.91059585  0.11237573  1
  H+  H370  1  0.42284535  0.08048994  0.94395324  1
  H+  H371  1  0.34697564  0.42835975  0.73136730  1
  H+  H372  1  0.98147918  0.82678277  1.04881837  1
  H+  H373  1  0.62779186  0.03938299  0.98755857  1
  H+  H374  1  0.67002996  0.32628851  0.90338136  1
  H+  H375  1  0.77908930  0.60402115  0.72618695  1
  H+  H376  1  0.13932217  0.54622976  0.90461898  1
  H+  H377  1  0.77084425  0.14603734  0.82747104  1
  H+  H378  1  0.37342780  0.45306901  0.06571073  1
  H+  H379  1  0.57128514  0.17640257  0.39886092  1
  H+  H380  1  0.49961696  0.30793242  0.06357931  1
  H+  H381  1  0.42275960  0.58870530  0.92357934  1
  H+  H382  1  0.89055361  0.54721147  0.18441847  1
  H+  H383  1  0.64026609  0.35141673  0.83624654  1
  O2-  O384  1  0.10473214  0.19642067  0.14112752  1
  O2-  O385  1  0.10034993  0.15799208  0.48367660  1
  O2-  O386  1  0.09335034  0.17562707  0.80231615  1
  O2-  O387  1  0.08052713  0.42584802  0.14085298  1
  O2-  O388  1  0.09194604  0.43617249  0.48943933  1
  O2-  O389  1  0.07275809  0.40064986  0.80679720  1
  O2-  O390  1  0.06310002  0.67149481  0.14815701  1
  O2-  O391  1  0.06495269  0.66205708  0.47931120  1
  O2-  O392  1  0.05243036  0.62630786  0.80364951  1
  O2-  O393  1  0.09570524  0.92710239  0.15334120  1
  O2-  O394  1  0.08987598  0.92625316  0.47579092  1
  O2-  O395  1  0.09000186  0.93018520  0.83508175  1
  O2-  O396  1  0.31428523  0.14400697  0.14001327  1
  O2-  O397  1  0.33365857  0.16173239  0.49403626  1
  O2-  O398  1  0.34153985  0.18143354  0.81112336  1
  O2-  O399  1  0.41568417  0.45523575  0.14009048  1
  O2-  O400  1  0.32110531  0.39768601  0.47361305  1
  O2-  O401  1  0.33471246  0.41955035  0.80116536  1
  O2-  O402  1  0.34328275  0.66963482  0.15334859  1
  O2-  O403  1  0.32423212  0.64697577  0.47650757  1
  O2-  O404  1  0.32786173  0.66589257  0.85932964  1
  O2-  O405  1  0.30798209  0.87546380  0.14796342  1
  O2-  O406  1  0.32732514  0.91689841  0.47990953  1
  O2-  O407  1  0.33236687  0.90190507  0.82251695  1
  O2-  O408  1  0.59820843  0.20069225  0.15084904  1
  O2-  O409  1  0.58359152  0.16591766  0.47401847  1
  O2-  O410  1  0.57298881  0.14513084  0.77004742  1
  O2-  O411  1  0.59368933  0.44737684  0.16081206  1
  O2-  O412  1  0.57388612  0.40723171  0.48417894  1
  O2-  O413  1  0.60377778  0.40554832  0.80595386  1
  O2-  O414  1  0.58161458  0.68133074  0.13254020  1
  O2-  O415  1  0.55112939  0.59517784  0.46302567  1
  O2-  O416  1  0.58112977  0.66751738  0.79253957  1
  O2-  O417  1  0.57170267  0.92598183  0.15483535  1
  O2-  O418  1  0.55762430  0.89843767  0.47301725  1
  O2-  O419  1  0.59418266  0.94343236  0.81786570  1
  O2-  O420  1  0.81804244  0.15921601  0.14893276  1
  O2-  O421  1  0.86776024  0.18988913  0.48215916  1
  O2-  O422  1  0.83053594  0.16853204  0.81255088  1
  O2-  O423  1  0.84789282  0.43059583  0.14772362  1
  O2-  O424  1  0.84073246  0.42095106  0.48236713  1
  O2-  O425  1  0.81820172  0.39170603  0.80799215  1
  O2-  O426  1  0.86457887  0.69803556  0.16098688  1
  O2-  O427  1  0.84060888  0.68793459  0.49599897  1
  O2-  O428  1  0.75669256  0.55308030  0.79501314  1
  O2-  O429  1  0.84977669  0.92379912  0.12788488  1
  O2-  O430  1  0.80026507  0.89436858  0.45963103  1
  O2-  O431  1  0.84289914  0.91538104  0.81824362  1
  O2-  O432  1  0.16579665  0.09100901  0.19024966  1
  O2-  O433  1  0.18064501  0.08547274  0.52438542  1
  O2-  O434  1  0.17536526  0.10052862  0.85945358  1
  O2-  O435  1  0.09145516  0.30758456  0.19996181  1
  O2-  O436  1  0.19328090  0.39516894  0.54344762  1
  O2-  O437  1  0.17287009  0.33930429  0.84115738  1
  O2-  O438  1  0.16664301  0.60028726  0.15120608  1
  O2-  O439  1  0.13655326  0.60060163  0.55607456  1
  O2-  O440  1  0.14625882  0.55778421  0.86024340  1
  O2-  O441  1  0.13774699  0.81858609  0.19706090  1
  O2-  O442  1  0.15646215  0.83585198  0.52222117  1
  O2-  O443  1  0.17158070  0.84129343  0.87772856  1
  O2-  O444  1  0.41651856  0.06616928  0.17208848  1
  O2-  O445  1  0.42014792  0.08422124  0.51655352  1
  O2-  O446  1  0.40995891  0.07495533  0.80359789  1
  O2-  O447  1  0.47743615  0.27802030  0.18769005  1
  O2-  O448  1  0.40959777  0.32465418  0.52111100  1
  O2-  O449  1  0.42292372  0.34261694  0.84626315  1
  O2-  O450  1  0.42744558  0.59602494  0.19257331  1
  O2-  O451  1  0.40634293  0.56031038  0.51877802  1
  O2-  O452  1  0.42193034  0.58662238  0.84110279  1
  O2-  O453  1  0.41691181  0.82155007  0.19611153  1
  O2-  O454  1  0.41809567  0.78363414  0.53280160  1
  O2-  O455  1  0.43508544  0.84166705  0.86097152  1
  O2-  O456  1  0.65949696  0.09163268  0.19550441  1
  O2-  O457  1  0.68419150  0.07788783  0.49281442  1
  O2-  O458  1  0.66466490  0.11370882  0.85099663  1
  O2-  O459  1  0.69207466  0.36781855  0.19258931  1
  O2-  O460  1  0.66954445  0.32341790  0.51001014  1
  O2-  O461  1  0.67254632  0.32369417  0.85577715  1
  O2-  O462  1  0.68464522  0.61090493  0.20486141  1
  O2-  O463  1  0.69136829  0.56036502  0.54712107  1
  O2-  O464  1  0.64378513  0.58646035  0.84779930  1
  O2-  O465  1  0.70587050  0.81848374  0.19658067  1
  O2-  O466  1  0.70777297  0.93804685  0.52900307  1
  O2-  O467  1  0.66859922  0.82277618  0.85436209  1
  O2-  O468  1  0.92558351  0.08690317  0.17357492  1
  O2-  O469  1  0.93337257  0.08318468  0.52186488  1
  O2-  O470  1  0.93228060  0.09560037  0.83047429  1
  O2-  O471  1  0.93526399  0.36888606  0.19088934  1
  O2-  O472  1  0.92845438  0.34806393  0.52709173  1
  O2-  O473  1  0.91555250  0.32770664  0.85808031  1
  O2-  O474  1  0.92287244  0.60506982  0.20186381  1
  O2-  O475  1  0.91678147  0.57382711  0.52684323  1
  O2-  O476  1  0.89216579  0.54909968  0.84550510  1
  O2-  O477  1  0.93598164  0.85965631  0.19303519  1
  O2-  O478  1  0.91345201  0.85702132  0.50861520  1
  O2-  O479  1  0.93238403  0.86889342  0.90023189  1
  O2-  O480  1  0.17860493  0.09101250  0.31264309  1
  O2-  O481  1  0.16281379  0.07172538  0.65140530  1
  O2-  O482  1  0.17134681  0.07521540  0.98788744  1
  O2-  O483  1  0.15236510  0.33157999  0.31172866  1
  O2-  O484  1  0.14589967  0.32145368  0.65076060  1
  O2-  O485  1  0.12364522  0.33297629  0.95233530  1
  O2-  O486  1  0.22353720  0.60162346  0.32769191  1
  O2-  O487  1  0.17820501  0.57716279  0.70609076  1
  O2-  O488  1  0.13043303  0.52989738  0.98926099  1
  O2-  O489  1  0.15626614  0.82773581  0.30892097  1
  O2-  O490  1  0.15446460  0.82273629  0.64621723  1
  O2-  O491  1  0.18420335  0.83537197  0.99396810  1
  O2-  O492  1  0.40803181  0.05281217  0.30198638  1
  O2-  O493  1  0.45504222  0.08906843  0.63242336  1
  O2-  O494  1  0.42504792  0.08241737  0.98808349  1
  O2-  O495  1  0.43405731  0.29267015  0.30435034  1
  O2-  O496  1  0.41870556  0.34104903  0.64504806  1
  O2-  O497  1  0.37820174  0.32535083  0.96489170  1
  O2-  O498  1  0.41243461  0.59153004  0.31418182  1
  O2-  O499  1  0.42837645  0.58091057  0.63930141  1
  O2-  O500  1  0.41901090  0.59945525  0.96731397  1
  O2-  O501  1  0.39450329  0.80987502  0.31704767  1
  O2-  O502  1  0.39282278  0.83890943  0.64212718  1
  O2-  O503  1  0.41729043  0.83120351  0.98191385  1
  O2-  O504  1  0.67614589  0.08067046  0.31983951  1
  O2-  O505  1  0.65921615  0.09581825  0.68364837  1
  O2-  O506  1  0.65704702  0.10063643  0.97490049  1
  O2-  O507  1  0.68125195  0.34474729  0.31368460  1
  O2-  O508  1  0.65971345  0.24540736  0.64855168  1
  O2-  O509  1  0.66095575  0.32690670  0.97098219  1
  O2-  O510  1  0.67190451  0.57737449  0.32659846  1
  O2-  O511  1  0.63166983  0.60252550  0.64482034  1
  O2-  O512  1  0.69944361  0.65371306  0.95952301  1
  O2-  O513  1  0.66869116  0.83459990  0.30855760  1
  O2-  O514  1  0.69360159  0.85419088  0.64062256  1
  O2-  O515  1  0.71253777  0.80485157  0.96202671  1
  O2-  O516  1  0.93862852  0.09531977  0.29482296  1
  O2-  O517  1  0.92098912  0.07879221  0.65075675  1
  O2-  O518  1  0.82613281  0.05049196  0.95975498  1
  O2-  O519  1  0.94000569  0.35952246  0.30676848  1
  O2-  O520  1  0.91423691  0.32373883  0.64779534  1
  O2-  O521  1  0.92133843  0.34515752  0.98150205  1
  O2-  O522  1  0.92187273  0.58918089  0.31538727  1
  O2-  O523  1  0.90009974  0.55293123  0.63988597  1
  O2-  O524  1  0.90226439  0.55581457  0.96692605  1
  O2-  O525  1  0.91792950  0.86546783  0.30715571  1
  O2-  O526  1  0.91132705  0.80678115  0.67507268  1
  O2-  O527  1  0.92017525  0.78268463  1.05069007  1
  O2-  O528  1  0.04523817  0.17673655  0.01544083  1
  O2-  O529  1  0.09222157  0.16875634  0.35811732  1
  O2-  O530  1  0.08588839  0.16588634  0.68259298  1
  O2-  O531  1  0.08549348  0.44056161  0.01558127  1
  O2-  O532  1  0.10058451  0.43400054  0.36175283  1
  O2-  O533  1  0.07217272  0.39457138  0.68934074  1
  O2-  O534  1  0.05495247  0.65347220  0.02794803  1
  O2-  O535  1  0.07852060  0.61672747  0.36712688  1
  O2-  O536  1  0.07897079  0.64506116  0.65477589  1
  O2-  O537  1  0.09499761  0.91293969  0.03485422  1
  O2-  O538  1  0.08583202  0.92359173  0.35159909  1
  O2-  O539  1  0.08338232  0.90906179  0.70721622  1
  O2-  O540  1  0.33988407  0.14452432  0.02334722  1
  O2-  O541  1  0.34325032  0.14494343  0.34638857  1
  O2-  O542  1  0.33114514  0.16871605  0.69193188  1
  O2-  O543  1  0.34832083  0.44968866  0.02489009  1
  O2-  O544  1  0.32579283  0.43099143  0.35132476  1
  O2-  O545  1  0.35653043  0.43370846  0.68485932  1
  O2-  O546  1  0.28814555  0.67726329  0.04024299  1
  O2-  O547  1  0.31037468  0.64928112  0.35591048  1
  O2-  O548  1  0.34477151  0.65839409  0.67294796  1
  O2-  O549  1  0.35916209  0.92522795  0.02250224  1
  O2-  O550  1  0.32015958  0.89745694  0.35183020  1
  O2-  O551  1  0.31420558  0.92147800  0.70150668  1
  O2-  O552  1  0.58199168  0.18155803  0.02259705  1
  O2-  O553  1  0.55710654  0.18888472  0.35723325  1
  O2-  O554  1  0.58450730  0.24014506  0.68045109  1
  O2-  O555  1  0.51351904  0.32471707  0.02119671  1
  O2-  O556  1  0.58422174  0.40911092  0.36095733  1
  O2-  O557  1  0.57563342  0.37468868  0.68620517  1
  O2-  O558  1  0.56942594  0.67783780  0.01574317  1
  O2-  O559  1  0.58138583  0.66609881  0.34979442  1
  O2-  O560  1  0.61147888  0.67237556  0.64369473  1
  O2-  O561  1  0.57773203  0.93628586  0.02198166  1
  O2-  O562  1  0.56492178  0.89765982  0.34617562  1
  O2-  O563  1  0.58306941  0.89618563  0.69767131  1
  O2-  O564  1  0.81825080  0.17902645  0.02542686  1
  O2-  O565  1  0.83312835  0.18954338  0.36758154  1
  O2-  O566  1  0.83600754  0.15968437  0.69183117  1
  O2-  O567  1  0.82414317  0.40492910  0.02567839  1
  O2-  O568  1  0.84857794  0.42623522  0.35405583  1
  O2-  O569  1  0.81613157  0.39053381  0.68658059  1
  O2-  O570  1  0.85990239  0.68782469  -0.04537990  1
  O2-  O571  1  0.83918994  0.65027204  0.37384069  1
  O2-  O572  1  0.78643589  0.63156802  0.68533529  1
  O2-  O573  1  0.88293832  0.93010856  -0.00292788  1
  O2-  O574  1  0.82207719  0.92833898  0.35233793  1
  O2-  O575  1  0.84961931  0.91083106  0.69526060  1
