# generated using pymatgen
data_H2O
_symmetry_space_group_name_H-M   'P 1'
_cell_length_a   17.97949880
_cell_length_b   17.98438982
_cell_length_c   21.99312429
_cell_angle_alpha   89.97871947
_cell_angle_beta   89.99889224
_cell_angle_gamma   119.99198216
_symmetry_Int_Tables_number   1
_chemical_formula_structural   H2O
_chemical_formula_sum   'H384 O192'
_cell_volume   6159.22244437
_cell_formula_units_Z   192
loop_
 _symmetry_equiv_pos_site_id
 _symmetry_equiv_pos_as_xyz
  1  'x, y, z'
loop_
 _atom_type_symbol
 _atom_type_oxidation_number
  H+  1.0
  O2-  -2.0
loop_
 _atom_site_type_symbol
 _atom_site_label
 _atom_site_symmetry_multiplicity
 _atom_site_fract_x
 _atom_site_fract_y
 _atom_site_fract_z
 _atom_site_occupancy
  H+  H0  1  0.09709579  0.22733909  0.82710886  1
  H+  H1  1  0.78269818  0.37926392  -0.01318851  1
  H+  H2  1  0.27465271  0.90362877  0.36500397  1
  H+  H3  1  0.10894609  0.12602577  0.34338868  1
  H+  H4  1  0.07234717  0.92785525  0.41097429  1
  H+  H5  1  0.64884362  0.36894816  0.85975909  1
  H+  H6  1  0.23017344  0.62700258  0.65959453  1
  H+  H7  1  0.94340866  0.71601477  0.11017876  1
  H+  H8  1  0.91812265  0.65622522  0.72024914  1
  H+  H9  1  0.54608891  0.33634799  0.03131966  1
  H+  H10  1  0.36820238  0.54240903  0.65857404  1
  H+  H11  1  0.63935777  1.04950334  0.16832482  1
  H+  H12  1  0.51238511  0.71970122  0.78339699  1
  H+  H13  1  0.38713150  0.57834972  0.35486741  1
  H+  H14  1  0.46815867  0.37950342  0.98327023  1
  H+  H15  1  0.61601950  0.13967857  0.34569714  1
  H+  H16  1  0.14243808  0.11884592  0.17819087  1
  H+  H17  1  0.45332376  0.13555308  0.49478058  1
  H+  H18  1  0.33539726  0.67021773  0.10686939  1
  H+  H19  1  0.85238523  0.09911402  0.64835510  1
  H+  H20  1  0.63193678  0.26246511  0.34079767  1
  H+  H21  1  0.63663987  0.02826191  0.82853092  1
  H+  H22  1  0.89068291  0.11928916  0.17171339  1
  H+  H23  1  0.77296468  0.32846757  0.38243524  1
  H+  H24  1  0.86490475  0.26237605  0.64470926  1
  H+  H25  1  0.78188983  0.15694275  0.15799811  1
  H+  H26  1  1.01322815  0.11392428  0.34174979  1
  H+  H27  1  0.86601696  0.33423420  1.04019858  1
  H+  H28  1  0.43036188  0.08878278  0.90337281  1
  H+  H29  1  0.88643170  0.10317803  0.32759791  1
  H+  H30  1  0.68229343  0.13699187  0.66718336  1
  H+  H31  1  0.35390728  0.63931713  1.01178182  1
  H+  H32  1  0.22272149  0.35425795  0.18696004  1
  H+  H33  1  1.02375961  0.13233239  0.15885633  1
  H+  H34  1  0.18781895  0.08991368  0.90222133  1
  H+  H35  1  0.38321994  0.30843845  0.66861380  1
  H+  H36  1  0.63139091  1.02498474  -0.01887498  1
  H+  H37  1  0.83910270  0.72502973  0.67539154  1
  H+  H38  1  0.10957450  0.38995362  0.82651870  1
  H+  H39  1  0.78213643  0.94582097  0.49463405  1
  H+  H40  1  0.36214548  0.88937610  0.51495061  1
  H+  H41  1  0.02952209  0.64426544  0.83365762  1
  H+  H42  1  0.88123696  0.28218081  0.19106639  1
  H+  H43  1  0.13469251  0.52734160  0.50828112  1
  H+  H44  1  0.25655824  0.11189410  0.84007559  1
  H+  H45  1  0.94981607  0.70288369  0.72526048  1
  H+  H46  1  0.33518515  0.17325578  0.10111644  1
  H+  H47  1  0.14299251  0.88082343  0.85730922  1
  H+  H48  1  0.62222826  0.92356851  0.36399905  1
  H+  H49  1  0.04821398  0.29064753  0.30539763  1
  H+  H50  1  0.65048947  0.55661431  0.23735554  1
  H+  H51  1  0.04704416  0.63711505  0.31051768  1
  H+  H52  1  0.37712869  0.37367745  -0.00775821  1
  H+  H53  1  0.37361156  0.32879304  0.34138360  1
  H+  H54  1  0.61969578  0.00535776  0.34100655  1
  H+  H55  1  0.36096187  0.81784804  0.67974142  1
  H+  H56  1  0.89223599  0.52568687  0.83855593  1
  H+  H57  1  0.08139767  0.40655402  0.07835591  1
  H+  H58  1  0.62322733  0.49044500  0.32524635  1
  H+  H59  1  0.87205079  0.59862287  0.98870475  1
  H+  H60  1  0.86648463  0.24727371  0.02417375  1
  H+  H61  1  0.38293374  0.77434397  0.18157238  1
  H+  H62  1  0.47822790  0.86765430  -0.00981953  1
  H+  H63  1  0.18471069  0.59190989  0.26433931  1
  H+  H64  1  0.40179249  0.02343482  0.84619146  1
  H+  H65  1  0.72899304  0.85685398  0.65192733  1
  H+  H66  1  0.62260143  0.50506970  0.99606141  1
  H+  H67  1  0.91501726  0.95453629  0.52347813  1
  H+  H68  1  0.86933539  0.97992915  0.15743134  1
  H+  H69  1  1.00484025  0.86995662  0.83887070  1
  H+  H70  1  0.10796462  0.98584718  0.48591524  1
  H+  H71  1  0.36703700  0.94707312  0.67459755  1
  H+  H72  1  0.27930136  0.15139003  1.00629701  1
  H+  H73  1  0.13171491  0.26874214  0.99574874  1
  H+  H74  1  0.77153178  0.89092878  0.82768670  1
  H+  H75  1  0.58861470  0.92000561  0.75937768  1
  H+  H76  1  0.60376295  0.47439942  0.49648122  1
  H+  H77  1  0.39480810  0.86832830  0.17233372  1
  H+  H78  1  0.38113215  0.76983552  0.51475982  1
  H+  H79  1  0.64481229  0.84326954  0.16414447  1
  H+  H80  1  0.34310467  0.47304967  0.82847780  1
  H+  H81  1  0.12830425  0.40046312  0.34767275  1
  H+  H82  1  0.01385399  0.39315564  0.66703493  1
  H+  H83  1  0.41291173  0.00982637  0.14208233  1
  H+  H84  1  0.63171612  0.37461317  0.51061004  1
  H+  H85  1  0.10079753  0.21657645  0.49384192  1
  H+  H86  1  0.64081055  0.11998121  0.83121027  1
  H+  H87  1  0.60127665  0.81291417  0.31097634  1
  H+  H88  1  0.14372930  0.79383155  0.53175401  1
  H+  H89  1  0.83789306  0.45861613  0.30248806  1
  H+  H90  1  0.64589121  0.86178783  0.63831809  1
  H+  H91  1  0.30143088  0.10305016  0.67248884  1
  H+  H92  1  0.82605518  0.67526326  0.45863800  1
  H+  H93  1  0.40951466  0.24025705  0.65524123  1
  H+  H94  1  0.96814233  0.62650638  0.51769711  1
  H+  H95  1  0.36278982  0.63825646  0.48718612  1
  H+  H96  1  0.63472249  0.78573142  0.82854052  1
  H+  H97  1  0.88785122  0.09867298  -0.01426595  1
  H+  H98  1  0.34253551  0.14760580  0.43716115  1
  H+  H99  1  0.13861807  0.63700965  0.33175675  1
  H+  H100  1  0.17074348  0.85150443  0.61649011  1
  H+  H101  1  0.64547462  0.50883166  0.16843955  1
  H+  H102  1  0.34581328  0.41607779  0.67576039  1
  H+  H103  1  0.22095415  0.37154986  0.50964331  1
  H+  H104  1  0.37726396  0.27665513  0.83311926  1
  H+  H105  1  0.12522070  0.65262046  0.68112330  1
  H+  H106  1  0.35041395  0.44852218  0.34621218  1
  H+  H107  1  0.11875547  -0.01465729  0.34017572  1
  H+  H108  1  0.64004938  0.36944446  0.66557266  1
  H+  H109  1  0.39245803  0.77201392  0.83629575  1
  H+  H110  1  0.88430983  0.35459306  0.80694230  1
  H+  H111  1  0.09155443  0.42684720  0.76514354  1
  H+  H112  1  0.60854219  0.47390019  0.67965799  1
  H+  H113  1  0.38145931  0.13262330  0.83162098  1
  H+  H114  1  0.41606030  0.85972318  0.27352263  1
  H+  H115  1  0.95665750  0.82314141  0.97263642  1
  H+  H116  1  0.45309514  0.07192545  0.58565248  1
  H+  H117  1  0.51568890  0.38389166  0.49638826  1
  H+  H118  1  0.47867151  0.89553854  0.33136948  1
  H+  H119  1  0.38368962  0.10012338  0.65771303  1
  H+  H120  1  0.00387847  0.35399669  0.03594411  1
  H+  H121  1  0.80446049  0.67871636  0.73922801  1
  H+  H122  1  0.60197922  0.60365107  0.34013663  1
  H+  H123  1  0.83212681  0.48634274  0.17429780  1
  H+  H124  1  0.20955853  0.35818963  0.84230670  1
  H+  H125  1  0.17113857  0.83092508  0.28691434  1
  H+  H126  1  1.01936805  0.39191088  0.17697860  1
  H+  H127  1  0.88746246  1.02322470  0.83800554  1
  H+  H128  1  0.85262400  0.11317082  0.49616370  1
  H+  H129  1  0.76478095  0.13440888  0.80193630  1
  H+  H130  1  0.22555279  0.61504088  0.50280456  1
  H+  H131  1  0.35388101  0.47223955  0.49643578  1
  H+  H132  1  0.64300901  0.87646214  0.83408267  1
  H+  H133  1  0.84597900  0.60892795  0.35041285  1
  H+  H134  1  0.73867540  0.12400493  0.32549675  1
  H+  H135  1  0.49748200  0.37160583  0.15515719  1
  H+  H136  1  0.86491373  0.72521231  0.82915373  1
  H+  H137  1  0.22834597  0.10500095  0.33318342  1
  H+  H138  1  0.76957875  0.72846093  0.28806352  1
  H+  H139  1  0.13091104  0.85158347  0.34406787  1
  H+  H140  1  1.10896513  0.63268094  0.16160208  1
  H+  H141  1  0.03369446  0.89216012  0.17524066  1
  H+  H142  1  0.76926114  0.12471299  0.49485774  1
  H+  H143  1  0.09832576  0.24488368  0.32894375  1
  H+  H144  1  0.14074485  0.65238701  0.98644363  1
  H+  H145  1  0.73573200  0.39025003  0.51425352  1
  H+  H146  1  0.11812797  0.64204334  0.83133428  1
  H+  H147  1  0.39616280  0.86286061  0.84031834  1
  H+  H148  1  0.38498299  0.63787664  0.65090989  1
  H+  H149  1  0.63194744  0.03210880  0.51315410  1
  H+  H150  1  0.60985826  0.36788956  0.34570306  1
  H+  H151  1  0.78660085  0.88525250  0.15629929  1
  H+  H152  1  0.14962445  1.03428218  0.18623642  1
  H+  H153  1  0.45939091  0.60819011  0.84138265  1
  H+  H154  1  0.34520633  0.39301809  0.23860196  1
  H+  H155  1  0.61360869  0.20212884  0.09219941  1
  H+  H156  1  0.07388504  0.87259041  0.02522150  1
  H+  H157  1  0.25433199  0.38241660  0.00831330  1
  H+  H158  1  0.36342369  -0.00408570  0.58179100  1
  H+  H159  1  0.55945423  0.14148634  0.67474205  1
  H+  H160  1  0.14340454  0.86155319  0.19327669  1
  H+  H161  1  0.39575229  0.13058002  0.99726159  1
  H+  H162  1  0.19307898  0.12660580  0.65527683  1
  H+  H163  1  0.60627630  0.13977834  0.50414528  1
  H+  H164  1  0.12707167  0.72475935  0.34446559  1
  H+  H165  1  0.27262795  0.64307389  0.82111056  1
  H+  H166  1  1.02179083  0.89955562  0.33747278  1
  H+  H167  1  0.64166779  0.75366499  0.16659719  1
  H+  H168  1  0.64934623  0.27732397  -0.04277081  1
  H+  H169  1  0.35628549  0.63471731  0.82411041  1
  H+  H170  1  0.60314801  0.88483785  1.00447799  1
  H+  H171  1  0.25835115  0.36368183  0.34545736  1
  H+  H172  1  0.12396673  0.37183668  0.50640580  1
  H+  H173  1  0.39049456  0.51919988  0.19110660  1
  H+  H174  1  0.91889742  0.87102898  0.59146710  1
  H+  H175  1  0.63018641  0.47587302  0.83782887  1
  H+  H176  1  0.33645197  0.91063703  0.77671894  1
  H+  H177  1  0.07446412  0.66876463  0.57277234  1
  H+  H178  1  0.28619245  0.88433378  0.84057782  1
  H+  H179  1  0.79480927  0.90309111  0.39767302  1
  H+  H180  1  0.52490679  0.90451299  0.15940982  1
  H+  H181  1  0.70988232  0.59576263  0.99797168  1
  H+  H182  1  0.65421872  0.14365097  0.16967399  1
  H+  H183  1  0.94293751  0.84940810  0.78472739  1
  H+  H184  1  0.08347250  0.15665918  0.06421182  1
  H+  H185  1  0.37034448  0.52160172  0.99711522  1
  H+  H186  1  0.86234082  0.89340749  0.82696824  1
  H+  H187  1  0.70649999  0.61924049  0.66482593  1
  H+  H188  1  0.87497206  1.01012845  0.32412963  1
  H+  H189  1  0.85657421  0.49706158  0.50997380  1
  H+  H190  1  0.87330806  0.63404385  0.37703267  1
  H+  H191  1  0.62634396  0.59502984  0.17374637  1
  H+  H192  1  0.88600100  0.88233601  0.65974592  1
  H+  H193  1  0.26886350  0.87935539  0.68503329  1
  H+  H194  1  0.37214452  0.88923307  0.99316893  1
  H+  H195  1  0.70434082  0.59167180  0.31913394  1
  H+  H196  1  0.28471877  0.14815037  0.16504349  1
  H+  H197  1  0.82839332  0.41882366  0.77016162  1
  H+  H198  1  0.88009836  0.21756745  0.34562478  1
  H+  H199  1  0.36958926  0.92523837  0.35683844  1
  H+  H200  1  0.08204725  0.14102878  0.66438943  1
  H+  H201  1  0.14967937  0.76799107  0.86213148  1
  H+  H202  1  0.63670119  0.98561126  0.66562322  1
  H+  H203  1  0.68380968  0.30102582  0.17893864  1
  H+  H204  1  0.76225380  0.11182232  0.99350948  1
  H+  H205  1  0.88301322  0.25847390  0.49776680  1
  H+  H206  1  0.62206711  0.23526583  0.83411672  1
  H+  H207  1  -0.03053332  0.08983154  0.50891067  1
  H+  H208  1  0.97193611  0.35392085  0.80483024  1
  H+  H209  1  0.36430121  0.24272009  1.00693573  1
  H+  H210  1  0.10398656  0.48367027  0.66692079  1
  H+  H211  1  0.87315249  0.32568269  0.46092925  1
  H+  H212  1  0.85504721  0.64112259  0.51589137  1
  H+  H213  1  0.60681061  0.72423417  0.65658185  1
  H+  H214  1  0.36422552  0.63779098  0.16600953  1
  H+  H215  1  0.40385583  0.13229290  0.16558921  1
  H+  H216  1  0.85332993  -0.02165364  0.67181729  1
  H+  H217  1  0.08808787  0.23205620  0.66713955  1
  H+  H218  1  -0.05135993  0.11472648  0.65841951  1
  H+  H219  1  0.62526342  0.15046896  -0.00608378  1
  H+  H220  1  0.14034258  0.53127519  0.83965021  1
  H+  H221  1  0.85648196  0.37936643  0.67519629  1
  H+  H222  1  0.89333533  0.88574910  0.32450035  1
  H+  H223  1  0.17134761  0.59404866  0.60078960  1
  H+  H224  1  0.83576956  0.47042359  0.33515662  1
  H+  H225  1  0.85512091  0.22239084  0.78661007  1
  H+  H226  1  0.51101640  0.64160293  0.65888622  1
  H+  H227  1  0.85141308  0.85714220  0.51196162  1
  H+  H228  1  0.89495185  0.01318514  0.98775828  1
  H+  H229  1  0.63879931  0.72570901  0.48793618  1
  H+  H230  1  0.59891417  0.61847529  0.01167192  1
  H+  H231  1  0.16557930  0.01374121  0.84931434  1
  H+  H232  1  0.87149057  0.63533254  0.14317890  1
  H+  H233  1  0.36307043  0.73182207  1.01175949  1
  H+  H234  1  0.11941341  0.37313028  0.65291828  1
  H+  H235  1  0.90368476  0.51450045  0.66152215  1
  H+  H236  1  0.12119541  0.35210519  1.00266836  1
  H+  H237  1  0.22811387  0.61388059  0.17392816  1
  H+  H238  1  0.88841089  0.61266850  0.83851916  1
  H+  H239  1  0.35429342  0.04749317  0.34544605  1
  H+  H240  1  1.00756198  0.64593626  1.00727465  1
  H+  H241  1  0.86477862  0.88191752  0.99939222  1
  H+  H242  1  0.65847546  0.40112065  0.16551493  1
  H+  H243  1  0.46340653  0.60420610  -0.00002274  1
  H+  H244  1  0.63016194  0.60391381  0.84665190  1
  H+  H245  1  0.01431647  0.37974630  0.48906710  1
  H+  H246  1  0.36975612  0.21517343  0.49101428  1
  H+  H247  1  0.22116212  0.85268868  0.03280429  1
  H+  H248  1  0.14353204  0.49705921  0.34568592  1
  H+  H249  1  0.39533985  0.69628196  0.33158134  1
  H+  H250  1  0.10466474  0.38358691  0.17444141  1
  H+  H251  1  0.44093741  0.10587698  0.22124618  1
  H+  H252  1  0.53389054  0.14621509  0.82676572  1
  H+  H253  1  0.86587655  0.46243426  0.00630023  1
  H+  H254  1  0.09337962  0.67892987  0.74173119  1
  H+  H255  1  0.20939204  0.37407910  0.65781452  1
  H+  H256  1  0.13645898  0.11747862  0.99014263  1
  H+  H257  1  0.60460589  0.69428313  0.33687681  1
  H+  H258  1  0.14904733  0.11821279  0.49980032  1
  H+  H259  1  0.52712144  0.88825393  0.81910198  1
  H+  H260  1  0.37708966  0.35257920  0.51173813  1
  H+  H261  1  0.51647911  0.89911673  0.50741859  1
  H+  H262  1  0.77507566  0.39166587  0.67377994  1
  H+  H263  1  0.09860929  0.98032779  0.66453655  1
  H+  H264  1  0.34633076  0.69657485  0.72861527  1
  H+  H265  1  1.02453103  0.12767415  1.00341114  1
  H+  H266  1  0.78146989  0.38972618  0.83569412  1
  H+  H267  1  0.62260420  0.37593094  -0.01470260  1
  H+  H268  1  0.52846930  0.37868314  0.68224277  1
  H+  H269  1  0.14729670  0.03412448  0.98939114  1
  H+  H270  1  0.98619387  0.12016710  0.83461471  1
  H+  H271  1  0.64644319  0.28258265  0.66003457  1
  H+  H272  1  0.22196962  0.64029810  0.99387094  1
  H+  H273  1  0.34058119  0.38308407  0.82021043  1
  H+  H274  1  0.60278831  0.41279440  0.78146240  1
  H+  H275  1  0.25148968  0.63529883  0.32177216  1
  H+  H276  1  0.54448356  0.76617514  0.95184419  1
  H+  H277  1  0.90086256  0.87265410  0.16751949  1
  H+  H278  1  0.00640392  0.91363827  0.48200890  1
  H+  H279  1  0.47612254  0.58440483  0.34022182  1
  H+  H280  1  0.93139689  0.56131058  0.26628627  1
  H+  H281  1  0.52277463  0.62445632  0.16791181  1
  H+  H282  1  0.11209569  0.22105713  0.15779236  1
  H+  H283  1  -0.00011801  0.37395031  0.33565913  1
  H+  H284  1  0.55172799  0.17404418  0.15016592  1
  H+  H285  1  0.13596510  0.78825544  0.67509570  1
  H+  H286  1  0.75320363  0.87101120  0.33375839  1
  H+  H287  1  -0.01439231  0.88393822  0.65453453  1
  H+  H288  1  0.97204434  0.38958963  0.92616091  1
  H+  H289  1  0.57691647  0.16025780  0.40398113  1
  H+  H290  1  0.63688796  0.81571496  0.92565924  1
  H+  H291  1  0.84632007  0.91934337  0.05960051  1
  H+  H292  1  0.65826295  0.58357775  0.58087551  1
  H+  H293  1  0.77274357  0.63973823  0.83642609  1
  H+  H294  1  1.00607576  0.62301873  0.22082161  1
  H+  H295  1  0.06285061  0.17230422  0.76488773  1
  H+  H296  1  0.41354500  0.31909786  0.56544838  1
  H+  H297  1  0.73218284  0.61918978  0.51865908  1
  H+  H298  1  0.90880416  0.54385610  0.12815527  1
  H+  H299  1  0.83848605  0.70785411  0.99130748  1
  H+  H300  1  0.37365495  0.76910691  0.34152912  1
  H+  H301  1  0.31578296  0.41239619  0.06681578  1
  H+  H302  1  0.66537710  0.34678079  0.57459272  1
  H+  H303  1  0.70887996  0.83174711  0.55185026  1
  H+  H304  1  0.91481476  0.57841527  0.93240098  1
  H+  H305  1  0.46462926  0.33481479  0.33395226  1
  H+  H306  1  0.89540436  0.81792201  0.91924072  1
  H+  H307  1  0.67851766  0.10274884  0.26604356  1
  H+  H308  1  0.23485438  0.10903244  0.50410291  1
  H+  H309  1  0.31589888  0.40274486  0.44203920  1
  H+  H310  1  0.56065327  0.67977715  0.75089013  1
  H+  H311  1  0.35113900  0.15202530  0.76869460  1
  H+  H312  1  0.40627952  0.28619655  0.15093692  1
  H+  H313  1  0.66775476  0.08534325  0.92148508  1
  H+  H314  1  0.07539766  0.15616807  0.43524850  1
  H+  H315  1  0.39675914  0.33670792  0.89037571  1
  H+  H316  1  0.57578359  0.40380411  0.39943513  1
  H+  H317  1  0.63156645  0.42299665  0.10025451  1
  H+  H318  1  0.17173272  0.08742019  0.27270452  1
  H+  H319  1  0.61322264  0.60553362  0.65586365  1
  H+  H320  1  0.14621581  0.31408771  0.23517544  1
  H+  H321  1  0.93581664  0.33460019  0.27667965  1
  H+  H322  1  0.10840240  0.92730794  0.12600200  1
  H+  H323  1  0.85736751  0.22701230  0.11294816  1
  H+  H324  1  0.83013681  0.66457916  0.05574607  1
  H+  H325  1  0.57813132  0.92937553  0.05971917  1
  H+  H326  1  0.54452551  0.90218330  0.66090474  1
  H+  H327  1  0.41207588  0.58766559  0.55954163  1
  H+  H328  1  0.99148965  0.60722768  0.66505290  1
  H+  H329  1  0.91647388  0.58714347  0.57758508  1
  H+  H330  1  0.19951989  0.82826769  0.92159343  1
  H+  H331  1  0.42153862  0.58609490  0.24320007  1
  H+  H332  1  0.42047175  0.83003305  0.93006654  1
  H+  H333  1  0.92479926  0.07876216  0.90286833  1
  H+  H334  1  0.39290979  0.04040495  0.99788672  1
  H+  H335  1  0.08989590  0.42382437  0.43849497  1
  H+  H336  1  0.85508993  0.32463499  0.36239390  1
  H+  H337  1  0.15482482  0.08685480  0.59052299  1
  H+  H338  1  0.10141456  0.89145290  0.67162644  1
  H+  H339  1  0.40335935  0.81179705  0.58033331  1
  H+  H340  1  0.12679676  0.90886501  0.79241222  1
  H+  H341  1  0.57669912  0.64703162  0.10482960  1
  H+  H342  1  0.90625108  0.06070870  0.56743983  1
  H+  H343  1  0.92891658  0.86014713  0.26466156  1
  H+  H344  1  0.11293317  0.64484820  0.51854736  1
  H+  H345  1  0.50978624  0.96644454  0.12228846  1
  H+  H346  1  0.30936391  0.43102263  0.73699982  1
  H+  H347  1  0.38046348  0.38603059  0.17520923  1
  H+  H348  1  0.53967592  0.15573691  0.99959491  1
  H+  H349  1  0.15119592  0.32873840  0.90266563  1
  H+  H350  1  0.65394903  0.80272964  0.25759416  1
  H+  H351  1  0.06600768  0.68027361  0.06716652  1
  H+  H352  1  0.85224181  0.40542861  0.50850627  1
  H+  H353  1  0.68183019  0.09867460  0.56755211  1
  H+  H354  1  0.65791717  0.57761843  0.90826070  1
  H+  H355  1  0.56741386  0.93839279  0.44601087  1
  H+  H356  1  0.92558627  0.36806190  0.91725495  1
  H+  H357  1  0.83553149  0.15302253  0.40127218  1
  H+  H358  1  0.33922038  0.68152731  0.43222954  1
  H+  H359  1  0.90021136  0.32869609  0.59042090  1
  H+  H360  1  0.59642894  0.70661878  0.00962248  1
  H+  H361  1  0.37694377  0.94332116  0.08508388  1
  H+  H362  1  0.91391370  0.08106078  0.23013742  1
  H+  H363  1  0.59212731  0.65586888  0.43509151  1
  H+  H364  1  0.36130321  0.20262117  0.34189992  1
  H+  H365  1  0.17209233  0.59962567  0.89596938  1
  H+  H366  1  0.84023630  0.74097353  0.33239188  1
  H+  H367  1  0.22689414  0.85306310  0.19230140  1
  H+  H368  1  0.86342392  0.35992075  0.20517511  1
  H+  H369  1  0.82975631  0.91838643  0.73190511  1
  H+  H370  1  0.90597481  0.78517210  0.16933788  1
  H+  H371  1  0.05598124  0.78168768  0.00370350  1
  H+  H372  1  0.15669867  0.34373539  0.57426821  1
  H+  H373  1  0.63532327  0.61634657  0.51166238  1
  H+  H374  1  0.10983585  0.72034708  0.16896223  1
  H+  H375  1  0.68252404  0.33341933  0.28903531  1
  H+  H376  1  0.13781008  0.52422848  0.18032834  1
  H+  H377  1  0.47590639  0.61133956  0.50321040  1
  H+  H378  1  0.80225753  0.15138139  0.71806053  1
  H+  H379  1  0.60876275  0.18347196  0.73574275  1
  H+  H380  1  0.23428632  0.87970191  0.52968223  1
  H+  H381  1  0.34213765  0.94002377  0.46389998  1
  H+  H382  1  0.40467624  0.57951109  0.90362970  1
  H+  H383  1  0.81106010  0.11675540  0.05523018  1
  O2-  O384  1  0.08423033  0.16014474  0.14351595  1
  O2-  O385  1  0.07811621  0.15670242  0.48108746  1
  O2-  O386  1  0.06554829  0.16742581  0.80974034  1
  O2-  O387  1  0.07984494  0.42001947  0.16276856  1
  O2-  O388  1  0.07884889  0.41329147  0.48358835  1
  O2-  O389  1  0.08687367  0.42650394  0.80992805  1
  O2-  O390  1  0.07457988  0.66125192  0.15311558  1
  O2-  O391  1  0.08145356  0.67591787  0.52868873  1
  O2-  O392  1  0.09132978  0.67828437  0.82115845  1
  O2-  O393  1  0.09874479  0.92127308  0.16978181  1
  O2-  O394  1  0.06455233  0.92969962  0.46655715  1
  O2-  O395  1  0.11790006  0.91467958  0.83571659  1
  O2-  O396  1  0.34287238  0.17482164  0.14619810  1
  O2-  O397  1  0.34339251  0.15305107  0.48224636  1
  O2-  O398  1  0.34611406  0.15695501  0.81301768  1
  O2-  O399  1  0.34332820  0.40710043  0.19592744  1
  O2-  O400  1  0.31647554  0.40938783  0.48728693  1
  O2-  O401  1  0.31031625  0.41578051  0.80827653  1
  O2-  O402  1  0.33424758  0.66861283  0.15271899  1
  O2-  O403  1  0.33122861  0.66892392  0.47642130  1
  O2-  O404  1  0.33393563  0.67064582  0.80605000  1
  O2-  O405  1  0.40693669  0.95575149  0.12486589  1
  O2-  O406  1  0.33677182  0.92675238  0.50795861  1
  O2-  O407  1  0.34436930  0.91729272  0.82176470  1
  O2-  O408  1  0.61304430  0.20261597  0.13735442  1
  O2-  O409  1  0.57455565  0.16927817  0.48910131  1
  O2-  O410  1  0.59395322  0.18018683  0.81108314  1
  O2-  O411  1  0.62511423  0.42592638  0.14455126  1
  O2-  O412  1  0.57718447  0.41449060  0.48224425  1
  O2-  O413  1  0.60984324  0.41560653  0.82604980  1
  O2-  O414  1  0.58240589  0.64872369  0.15069313  1
  O2-  O415  1  0.59541760  0.66405650  0.48033376  1
  O2-  O416  1  0.54806854  0.69419636  0.79255425  1
  O2-  O417  1  0.55674078  0.95344016  0.13131331  1
  O2-  O418  1  0.57460038  0.93550246  0.49018922  1
  O2-  O419  1  0.58828093  0.92119319  0.80457075  1
  O2-  O420  1  0.84439477  0.18538851  0.14737197  1
  O2-  O421  1  0.83009936  0.14893694  0.47972233  1
  O2-  O422  1  0.81771764  0.15845291  0.77637122  1
  O2-  O423  1  0.79749569  0.39976799  0.20133249  1
  O2-  O424  1  0.82111416  0.43492622  0.49698502  1
  O2-  O425  1  0.83783240  0.42202467  0.81514247  1
  O2-  O426  1  0.88553259  0.69425777  0.12636264  1
  O2-  O427  1  0.81810264  0.66709813  0.50254386  1
  O2-  O428  1  0.82923849  0.66554124  0.81507803  1
  O2-  O429  1  0.84670000  0.91980495  0.14217848  1
  O2-  O430  1  0.74120123  0.89360355  0.47203009  1
  O2-  O431  1  0.83257144  0.92300116  0.81160733  1
  O2-  O432  1  0.17796037  0.09601892  0.19702326  1
  O2-  O433  1  0.17287703  0.08293585  0.51686091  1
  O2-  O434  1  0.19377159  0.07875105  0.85714993  1
  O2-  O435  1  0.15931632  0.32333161  0.19080225  1
  O2-  O436  1  0.15808739  0.34225864  0.52494486  1
  O2-  O437  1  0.14889871  0.32677381  0.85714913  1
  O2-  O438  1  0.16923405  0.58665336  0.19243291  1
  O2-  O439  1  0.16730432  0.58780131  0.52196782  1
  O2-  O440  1  0.17297918  0.59366463  0.85037191  1
  O2-  O441  1  0.16814684  0.82546306  0.20776867  1
  O2-  O442  1  0.17438236  0.85392500  0.54602120  1
  O2-  O443  1  0.18576622  0.82864994  0.87802887  1
  O2-  O444  1  0.44259979  0.10881645  0.17682173  1
  O2-  O445  1  0.48754223  0.11120588  0.51177534  1
  O2-  O446  1  0.43153083  0.08565617  0.85801892  1
  O2-  O447  1  0.43665751  0.34980262  0.14563744  1
  O2-  O448  1  0.41253047  0.32580677  0.52070776  1
  O2-  O449  1  0.39088699  0.33451379  0.84559861  1
  O2-  O450  1  0.42126696  0.58267905  0.19833392  1
  O2-  O451  1  0.41424403  0.58153801  0.51434331  1
  O2-  O452  1  0.40056645  0.57640554  0.85802525  1
  O2-  O453  1  0.41301845  0.83443983  0.19752735  1
  O2-  O454  1  0.40780472  0.82580845  0.53657095  1
  O2-  O455  1  0.42752373  0.83198983  0.85246051  1
  O2-  O456  1  0.67808473  0.10749726  0.18542132  1
  O2-  O457  1  0.67077847  0.09552128  0.52326634  1
  O2-  O458  1  0.67070839  0.08827660  0.84405846  1
  O2-  O459  1  0.70197955  0.35352373  0.20397802  1
  O2-  O460  1  0.66936416  0.35229845  0.52798950  1
  O2-  O461  1  0.67669796  0.33318824  0.87530797  1
  O2-  O462  1  0.65918376  0.56663741  0.19062492  1
  O2-  O463  1  0.66461239  0.58509759  0.53160640  1
  O2-  O464  1  0.66730214  0.58358685  0.86284512  1
  O2-  O465  1  0.67384013  0.81486256  0.18199793  1
  O2-  O466  1  0.73194288  0.82235469  0.51213500  1
  O2-  O467  1  0.66924463  0.84180440  0.84968814  1
  O2-  O468  1  0.91685589  0.08443708  0.18469605  1
  O2-  O469  1  0.91053892  0.04776855  0.52337110  1
  O2-  O470  1  0.92227463  0.08259708  0.85582926  1
  O2-  O471  1  0.90789552  0.34101356  0.20840581  1
  O2-  O472  1  0.90517147  0.32194538  0.49749922  1
  O2-  O473  1  0.91095964  0.32123390  0.79233561  1
  O2-  O474  1  0.86847910  0.54819673  0.15549817  1
  O2-  O475  1  0.90760888  0.59636565  0.53246081  1
  O2-  O476  1  0.92174416  0.58635643  0.85428665  1
  O2-  O477  1  0.93111219  0.84412925  0.18700659  1
  O2-  O478  1  0.91211398  0.89702220  0.52341988  1
  O2-  O479  1  0.94270572  0.84677598  0.82917214  1
  O2-  O480  1  0.16713310  0.07936129  0.31822411  1
  O2-  O481  1  0.13979825  0.08548752  0.63521662  1
  O2-  O482  1  0.17292369  0.09227308  0.97303527  1
  O2-  O483  1  0.10695583  0.29993902  0.30976459  1
  O2-  O484  1  0.15133293  0.34240929  0.63798650  1
  O2-  O485  1  0.15771564  0.32958991  0.98262079  1
  O2-  O486  1  0.18991543  0.59626201  0.31078771  1
  O2-  O487  1  0.16958076  0.59347476  0.64627176  1
  O2-  O488  1  0.17032450  0.62382356  0.96902831  1
  O2-  O489  1  0.16665602  0.82634143  0.33224424  1
  O2-  O490  1  0.16543478  0.85041692  0.66333932  1
  O2-  O491  1  0.25153902  0.85430490  0.99536720  1
  O2-  O492  1  0.36332133  0.09707629  0.31935846  1
  O2-  O493  1  0.40364726  0.03559549  0.61287366  1
  O2-  O494  1  0.42611304  0.10002180  0.98291998  1
  O2-  O495  1  0.40266144  0.30027708  0.32294724  1
  O2-  O496  1  0.42591161  0.30116289  0.64608998  1
  O2-  O497  1  0.40675884  0.34407940  0.97430229  1
  O2-  O498  1  0.41332759  0.55551047  0.32728874  1
  O2-  O499  1  0.40541601  0.59797972  0.63752889  1
  O2-  O500  1  0.40511499  0.58187337  0.98207281  1
  O2-  O501  1  0.41709262  0.86572198  0.31889314  1
  O2-  O502  1  0.39533553  0.79081578  0.66553947  1
  O2-  O503  1  0.41735933  0.83367803  0.97549930  1
  O2-  O504  1  0.67801567  0.09837986  0.31129006  1
  O2-  O505  1  0.70586842  0.10175450  0.64911276  1
  O2-  O506  1  0.66655848  0.08571973  0.96724249  1
  O2-  O507  1  0.66877576  0.32671588  0.33289886  1
  O2-  O508  1  0.67044801  0.34249254  0.64436601  1
  O2-  O509  1  0.67795204  0.33891726  0.94234964  1
  O2-  O510  1  0.64503787  0.54991839  0.30567753  1
  O2-  O511  1  0.64918828  0.57879947  0.64416370  1
  O2-  O512  1  0.64797105  0.56563684  0.98368469  1
  O2-  O513  1  0.64491132  0.79693536  0.30290988  1
  O2-  O514  1  0.67475913  0.82859026  0.62777428  1
  O2-  O515  1  0.60441972  0.79542049  0.96496035  1
  O2-  O516  1  0.91336043  0.07014760  0.31019186  1
  O2-  O517  1  0.89099465  0.07385417  0.64100857  1
  O2-  O518  1  0.92541473  0.07533484  0.97172530  1
  O2-  O519  1  0.95059511  0.32165901  0.31851763  1
  O2-  O520  1  0.90140624  0.32462797  0.63497278  1
  O2-  O521  1  0.89015238  0.29665879  1.05234712  1
  O2-  O522  1  0.98546915  0.61575163  0.26368816  1
  O2-  O523  1  0.94345095  0.56737032  0.63846120  1
  O2-  O524  1  0.91181588  0.57734175  0.97797565  1
  O2-  O525  1  0.93137042  0.86405115  0.31004969  1
  O2-  O526  1  0.91958482  0.85748344  0.63685327  1
  O2-  O527  1  0.89692054  0.81127623  0.96323285  1
  O2-  O528  1  0.08551925  0.15781777  0.01859821  1
  O2-  O529  1  0.07292700  0.15032639  0.35863794  1
  O2-  O530  1  0.05503958  0.17217385  0.68246535  1
  O2-  O531  1  0.06758944  0.38854120  0.03554829  1
  O2-  O532  1  0.11016963  0.43944227  0.36543606  1
  O2-  O533  1  0.07513379  0.42205883  0.67954996  1
  O2-  O534  1  0.06375762  0.69362922  0.02377348  1
  O2-  O535  1  0.09716959  0.65915972  0.34397970  1
  O2-  O536  1  0.09377872  0.68145338  0.69616503  1
  O2-  O537  1  0.05255376  0.83360917  -0.00925709  1
  O2-  O538  1  0.08151275  0.92370683  0.35723874  1
  O2-  O539  1  0.06577857  0.92015536  0.67982823  1
  O2-  O540  1  0.33882680  0.18241597  0.02226857  1
  O2-  O541  1  0.32731484  0.13990072  0.35713520  1
  O2-  O542  1  0.36284720  0.13446788  0.68127912  1
  O2-  O543  1  0.31704301  0.41527757  0.02249382  1
  O2-  O544  1  0.31556654  0.38930854  0.36358514  1
  O2-  O545  1  0.30891803  0.43754932  0.69050789  1
  O2-  O546  1  0.32985964  0.67341729  0.03002660  1
  O2-  O547  1  0.35188336  0.70552033  0.35105278  1
  O2-  O548  1  0.34317956  0.69851609  0.68261694  1
  O2-  O549  1  0.34103832  0.92038167  0.00866805  1
  O2-  O550  1  0.33409756  0.94599115  0.37709008  1
  O2-  O551  1  0.32872991  0.89458356  0.69769758  1
  O2-  O552  1  0.60279310  0.18904892  0.00648924  1
  O2-  O553  1  0.57975980  0.16367618  0.35916104  1
  O2-  O554  1  0.61629911  0.18247647  0.69030283  1
  O2-  O555  1  0.58973185  0.39150482  0.01468841  1
  O2-  O556  1  0.57532156  0.39817868  0.35460733  1
  O2-  O557  1  0.58823138  0.41553875  0.69652888  1
  O2-  O558  1  0.57034291  0.64933475  0.02942889  1
  O2-  O559  1  0.57668918  0.63766943  0.35804570  1
  O2-  O560  1  0.57097717  0.66587316  0.67499910  1
  O2-  O561  1  0.58076882  0.92375556  0.01462690  1
  O2-  O562  1  0.58333793  0.94622219  0.36012964  1
  O2-  O563  1  0.60250780  0.92383789  0.67698069  1
  O2-  O564  1  0.82071857  0.13093248  0.01193906  1
  O2-  O565  1  0.84071606  0.15625309  0.35583411  1
  O2-  O566  1  0.79855829  0.14988708  0.66582556  1
  O2-  O567  1  0.82867665  0.40144779  0.01739832  1
  O2-  O568  1  0.81603146  0.31389398  0.39665831  1
  O2-  O569  1  0.83334062  0.41528086  0.69185217  1
  O2-  O570  1  0.81261648  0.65089798  0.01228055  1
  O2-  O571  1  0.77897128  0.70236802  0.32391592  1
  O2-  O572  1  0.78717236  0.69259666  0.69960162  1
  O2-  O573  1  0.84438383  0.92038402  0.01457230  1
  O2-  O574  1  0.80954519  0.90523258  0.35396918  1
  O2-  O575  1  0.83140749  0.91732549  0.68645374  1
