# generated using pymatgen
data_H2O
_symmetry_space_group_name_H-M   'P 1'
_cell_length_a   17.97816157
_cell_length_b   17.98294976
_cell_length_c   21.98680640
_cell_angle_alpha   89.98317077
_cell_angle_beta   89.98561848
_cell_angle_gamma   120.00509337
_symmetry_Int_Tables_number   1
_chemical_formula_structural   H2O
_chemical_formula_sum   'H384 O192'
_cell_volume   6155.68853515
_cell_formula_units_Z   192
loop_
 _symmetry_equiv_pos_site_id
 _symmetry_equiv_pos_as_xyz
  1  'x, y, z'
loop_
 _atom_type_symbol
 _atom_type_oxidation_number
  H+  1.0
  O2-  -2.0
loop_
 _atom_site_type_symbol
 _atom_site_label
 _atom_site_symmetry_multiplicity
 _atom_site_fract_x
 _atom_site_fract_y
 _atom_site_fract_z
 _atom_site_occupancy
  H+  H0  1  0.75370256  0.62255441  -0.00653329  1
  H+  H1  1  0.11749279  0.73598058  0.49289092  1
  H+  H2  1  0.64630563  0.26788319  0.33322492  1
  H+  H3  1  0.89026154  0.52580839  0.50818150  1
  H+  H4  1  0.66623198  0.66769642  0.52876427  1
  H+  H5  1  0.88619848  0.86137186  0.32940400  1
  H+  H6  1  0.11031930  0.39072875  0.00532566  1
  H+  H7  1  0.47358700  0.86343708  0.83487464  1
  H+  H8  1  0.55508774  0.64245667  0.00240147  1
  H+  H9  1  0.10891792  0.21091339  0.68177442  1
  H+  H10  1  0.88865954  0.52485285  0.32740411  1
  H+  H11  1  0.63768311  0.37404258  0.80464286  1
  H+  H12  1  0.10880805  0.22738222  0.34577884  1
  H+  H13  1  0.87499256  0.40434277  1.02895657  1
  H+  H14  1  -0.01735002  0.37437983  0.18375922  1
  H+  H15  1  0.43930470  0.53213723  0.46057537  1
  H+  H16  1  0.96670010  0.10999015  0.51059055  1
  H+  H17  1  0.61204133  0.72601357  0.68896616  1
  H+  H18  1  0.38473656  0.34325212  0.17229534  1
  H+  H19  1  0.72921198  0.35397171  0.65794365  1
  H+  H20  1  0.39770672  0.12107396  0.98859423  1
  H+  H21  1  0.97713344  0.61748039  0.50856296  1
  H+  H22  1  0.72739223  0.86075784  0.66811994  1
  H+  H23  1  0.36719829  0.89482290  0.82399466  1
  H+  H24  1  0.61199124  0.97277487  0.34133589  1
  H+  H25  1  0.12933128  0.27521038  0.99478462  1
  H+  H26  1  0.13006734  0.02642536  0.51234515  1
  H+  H27  1  0.22386954  0.61216923  0.32782457  1
  H+  H28  1  0.02288915  0.38269985  0.34373066  1
  H+  H29  1  0.38837945  0.02166071  0.17246662  1
  H+  H30  1  0.72489882  0.10974072  0.17562724  1
  H+  H31  1  0.60126249  0.97566369  0.82886732  1
  H+  H32  1  0.61247141  0.11375773  0.83824315  1
  H+  H33  1  0.87920765  0.26476491  0.66780885  1
  H+  H34  1  0.97157762  0.10565106  0.66267417  1
  H+  H35  1  0.63383027  0.51713924  0.32772272  1
  H+  H36  1  0.36310206  0.38381496  0.33686719  1
  H+  H37  1  0.22934937  0.34963259  0.66824113  1
  H+  H38  1  0.87784126  0.85878930  0.84462342  1
  H+  H39  1  0.59900138  0.85235507  0.15740758  1
  H+  H40  1  0.90337658  0.31993799  0.60507564  1
  H+  H41  1  0.28834851  0.08438070  0.46992546  1
  H+  H42  1  0.88271513  0.60739122  0.66574464  1
  H+  H43  1  0.83349618  0.91289579  0.40270427  1
  H+  H44  1  0.52990069  0.40821734  0.66859203  1
  H+  H45  1  0.51941204  0.88598276  0.34289442  1
  H+  H46  1  0.92284256  0.59014627  0.91030902  1
  H+  H47  1  0.41949863  0.65709941  0.17536830  1
  H+  H48  1  0.13557691  0.02108870  0.14813845  1
  H+  H49  1  0.13520656  0.36161650  0.33008263  1
  H+  H50  1  -0.04059356  0.60769363  0.84232406  1
  H+  H51  1  0.36412781  0.88589841  0.67408654  1
  H+  H52  1  0.36420164  0.89365602  1.00396161  1
  H+  H53  1  0.39976944  0.82589082  0.57734742  1
  H+  H54  1  0.20889666  0.34935559  0.51066061  1
  H+  H55  1  0.65052937  0.52073874  0.17643332  1
  H+  H56  1  0.27279857  0.88788342  0.00566181  1
  H+  H57  1  0.13599831  0.36234462  0.83221475  1
  H+  H58  1  0.51759155  0.88171961  0.49149233  1
  H+  H59  1  0.65192427  0.78486537  1.00056528  1
  H+  H60  1  0.17441045  0.83557550  0.92837774  1
  H+  H61  1  0.97686206  0.34394081  0.80716355  1
  H+  H62  1  0.53549318  0.38728387  0.16100529  1
  H+  H63  1  0.53008773  0.13936988  0.01401591  1
  H+  H64  1  0.10597823  0.47825089  0.00635569  1
  H+  H65  1  0.39307148  0.63428996  0.51754080  1
  H+  H66  1  0.08121960  0.91468903  0.40740737  1
  H+  H67  1  0.64845454  0.50863737  0.81717734  1
  H+  H68  1  0.88399337  0.01943366  0.33206904  1
  H+  H69  1  0.66071533  0.84178627  0.90454349  1
  H+  H70  1  0.47833989  0.87434332  0.98052515  1
  H+  H71  1  0.38037376  0.77653949  0.33563003  1
  H+  H72  1  0.84944330  0.12202941  0.16519689  1
  H+  H73  1  0.13799822  0.77525041  0.65682544  1
  H+  H74  1  0.12463853  0.52209051  0.50389396  1
  H+  H75  1  0.61418044  0.63291636  0.34950424  1
  H+  H76  1  0.35460393  0.17953039  0.05744634  1
  H+  H77  1  0.83305352  0.66777620  0.43786426  1
  H+  H78  1  0.97174762  0.11011834  0.33303583  1
  H+  H79  1  0.64842291  0.35760986  0.33106577  1
  H+  H80  1  0.52694052  0.87829224  0.16109852  1
  H+  H81  1  -0.02935571  0.35651059  0.51001349  1
  H+  H82  1  0.77182311  0.13205327  0.67995791  1
  H+  H83  1  0.88373908  0.85642292  0.66544643  1
  H+  H84  1  0.34858100  0.43471675  0.16946058  1
  H+  H85  1  0.28677584  0.63871759  0.65021391  1
  H+  H86  1  0.36573268  0.45574223  0.67899958  1
  H+  H87  1  0.01002336  0.86400616  0.83655050  1
  H+  H88  1  0.61882142  0.52992326  0.47995106  1
  H+  H89  1  0.39127194  0.02934108  0.99240689  1
  H+  H90  1  0.58645186  0.67325663  0.44497683  1
  H+  H91  1  0.62454022  0.36321439  -0.01483993  1
  H+  H92  1  0.08125441  0.17588217  0.07094631  1
  H+  H93  1  0.13871528  0.86345721  0.66178006  1
  H+  H94  1  0.36806607  0.62959146  0.66843937  1
  H+  H95  1  0.34708619  0.64524346  1.00208255  1
  H+  H96  1  0.52536494  0.63375363  0.35076134  1
  H+  H97  1  0.59551757  0.40485725  0.28912075  1
  H+  H98  1  0.77105123  0.13142004  0.49545108  1
  H+  H99  1  0.15048258  0.11363479  0.82164110  1
  H+  H100  1  0.39478436  0.28079262  0.32528346  1
  H+  H101  1  0.85584302  0.38057009  0.67413680  1
  H+  H102  1  0.86467350  0.63869483  0.49709446  1
  H+  H103  1  0.14051945  0.53461300  0.65590046  1
  H+  H104  1  0.38888652  0.01440179  0.50524352  1
  H+  H105  1  0.61963697  0.12456995  0.49601563  1
  H+  H106  1  0.53335675  0.13236383  0.16503103  1
  H+  H107  1  0.83564306  0.61641458  0.84708864  1
  H+  H108  1  0.14173255  0.86552051  0.84677341  1
  H+  H109  1  0.62116060  0.64351234  0.69165490  1
  H+  H110  1  0.60930902  0.88936002  0.83183703  1
  H+  H111  1  0.27885234  0.14027116  0.33650292  1
  H+  H112  1  0.23888456  0.13045504  0.00205968  1
  H+  H113  1  0.45555275  0.51530726  0.48569313  1
  H+  H114  1  0.78422665  0.38840225  0.34156557  1
  H+  H115  1  0.64489752  0.78531102  0.51190198  1
  H+  H116  1  0.84016558  0.34051662  0.86280257  1
  H+  H117  1  0.36064292  -0.02312064  0.34218303  1
  H+  H118  1  0.10920714  0.73189246  0.16042104  1
  H+  H119  1  0.35708530  0.89820152  0.48492335  1
  H+  H120  1  0.48596686  0.37237270  0.32202793  1
  H+  H121  1  0.38653944  0.55943950  0.17687287  1
  H+  H122  1  0.44211191  0.36485008  0.89635964  1
  H+  H123  1  0.97621986  0.86218509  0.98984945  1
  H+  H124  1  0.11902181  0.14770362  0.01506505  1
  H+  H125  1  0.10721122  0.64186952  0.16019488  1
  H+  H126  1  0.35290461  0.47250808  0.01734918  1
  H+  H127  1  0.63574650  0.76980785  0.33452800  1
  H+  H128  1  0.87792530  0.73071535  0.01528344  1
  H+  H129  1  0.52766263  0.13350934  0.34121984  1
  H+  H130  1  0.86005598  0.47670034  0.83741197  1
  H+  H131  1  0.46830064  0.52551795  0.94231333  1
  H+  H132  1  0.30004969  0.27916942  0.50957874  1
  H+  H133  1  0.02738828  0.11451839  0.83231878  1
  H+  H134  1  0.84082624  0.42200336  0.77566892  1
  H+  H135  1  0.10714836  0.96532199  0.68253113  1
  H+  H136  1  0.61248533  0.23653828  0.80357757  1
  H+  H137  1  0.15120300  0.04065086  1.00320645  1
  H+  H138  1  0.92623345  0.33698607  0.27385413  1
  H+  H139  1  0.08472987  0.61780075  0.82257438  1
  H+  H140  1  0.01133000  0.38002121  0.66208959  1
  H+  H141  1  0.26078067  0.62650662  0.49245130  1
  H+  H142  1  0.10632916  0.12074760  0.67668597  1
  H+  H143  1  0.88379866  0.61247183  0.33002284  1
  H+  H144  1  0.04267743  0.65593864  0.05669767  1
  H+  H145  1  0.28497351  0.14004813  0.14275820  1
  H+  H146  1  0.40081881  0.38527298  0.83949481  1
  H+  H147  1  0.13573266  0.36223464  0.17336660  1
  H+  H148  1  0.34927968  0.41646589  0.48998854  1
  H+  H149  1  0.21802463  0.36256075  0.99107184  1
  H+  H150  1  0.34553859  0.50434912  0.82210732  1
  H+  H151  1  0.77507138  0.13816598  1.01177753  1
  H+  H152  1  0.64981808  0.76915184  0.17808101  1
  H+  H153  1  0.48463041  0.86851915  0.66426156  1
  H+  H154  1  0.76804627  0.37068488  0.17062758  1
  H+  H155  1  0.62678150  0.51475795  0.50993807  1
  H+  H156  1  0.87366781  -0.01164514  1.00838238  1
  H+  H157  1  0.38595831  0.78633668  0.98859100  1
  H+  H158  1  0.87041039  0.89685435  0.01015804  1
  H+  H159  1  0.10850987  0.13853279  0.35521314  1
  H+  H160  1  0.39157194  0.36843151  -0.00629147  1
  H+  H161  1  0.09115646  0.40803274  0.61990253  1
  H+  H162  1  0.98158979  0.12325385  1.00201353  1
  H+  H163  1  0.70563904  0.60270004  0.92874143  1
  H+  H164  1  0.39494960  0.11310408  0.17097931  1
  H+  H165  1  0.52313474  0.13768017  0.66700239  1
  H+  H166  1  0.37495205  0.22479091  0.15764634  1
  H+  H167  1  0.53467607  0.66373127  0.50808865  1
  H+  H168  1  0.11379321  0.10696607  0.51573605  1
  H+  H169  1  0.78081634  0.63566023  0.16360783  1
  H+  H170  1  0.76950302  0.63291320  0.34415201  1
  H+  H171  1  0.37941391  0.23861105  0.99797725  1
  H+  H172  1  0.63022278  0.28002480  -0.01140049  1
  H+  H173  1  0.35501103  0.12052433  0.68026669  1
  H+  H174  1  1.02946204  0.89017994  0.50084278  1
  H+  H175  1  0.64634391  0.65146708  0.00675272  1
  H+  H176  1  0.89294760  0.86580599  0.51181143  1
  H+  H177  1  0.48903345  0.38749540  0.54346549  1
  H+  H178  1  0.13744232  0.86561042  0.32986170  1
  H+  H179  1  0.02144619  0.88546140  0.34667692  1
  H+  H180  1  0.54865690  0.42963577  0.82163457  1
  H+  H181  1  0.61253524  0.89510565  -0.00976715  1
  H+  H182  1  0.37998896  0.86619297  0.33914814  1
  H+  H183  1  0.63675636  1.01397973  0.51024320  1
  H+  H184  1  0.77687826  0.88561391  0.16300578  1
  H+  H185  1  0.53799070  0.63997944  0.16134817  1
  H+  H186  1  0.75475279  0.66388765  0.52564844  1
  H+  H187  1  0.34536651  0.71690673  0.49686521  1
  H+  H188  1  0.48199216  0.63073066  0.82610279  1
  H+  H189  1  0.38666677  0.75463768  0.15974249  1
  H+  H190  1  0.11481977  0.73043255  0.33762796  1
  H+  H191  1  0.14760971  0.49360523  0.81166962  1
  H+  H192  1  0.88111307  0.26730986  0.50818358  1
  H+  H193  1  0.25339619  0.36301422  0.82500830  1
  H+  H194  1  0.85952199  0.72243191  0.34204789  1
  H+  H195  1  0.33317230  0.18130862  0.49083103  1
  H+  H196  1  0.89539622  0.36346617  0.33476861  1
  H+  H197  1  0.13237724  0.86500897  0.17068011  1
  H+  H198  1  0.36043594  0.63724653  0.34366340  1
  H+  H199  1  0.20598129  0.62229353  -0.00365730  1
  H+  H200  1  0.37683903  0.87026896  0.18176665  1
  H+  H201  1  0.86472379  0.22602106  0.34233705  1
  H+  H202  1  0.89204829  0.77726067  0.17325294  1
  H+  H203  1  0.63326561  0.85761910  0.33135251  1
  H+  H204  1  0.86255804  0.97204645  0.67107310  1
  H+  H205  1  0.86267441  0.22619642  1.02213677  1
  H+  H206  1  0.37670769  0.25179629  0.67004595  1
  H+  H207  1  0.77232773  0.88305972  0.34380206  1
  H+  H208  1  0.96998361  0.36114193  1.00515285  1
  H+  H209  1  0.62636552  0.49448820  0.00748945  1
  H+  H210  1  0.12124009  0.89391286  0.49745030  1
  H+  H211  1  0.63285240  0.25389993  0.65761869  1
  H+  H212  1  0.21360046  0.62412928  0.83301010  1
  H+  H213  1  0.25249590  0.35876511  0.16352614  1
  H+  H214  1  0.41911981  0.07914310  0.60173353  1
  H+  H215  1  0.34635237  0.73356416  0.81970999  1
  H+  H216  1  0.38950266  1.02096296  0.66170645  1
  H+  H217  1  0.87926061  0.10837983  0.83229480  1
  H+  H218  1  0.05989264  0.65316378  0.76430171  1
  H+  H219  1  0.63200777  0.25787113  0.17251636  1
  H+  H220  1  0.35742232  0.36164662  0.67543958  1
  H+  H221  1  0.23741935  0.87861676  0.50080994  1
  H+  H222  1  0.86506953  0.97604696  0.49632922  1
  H+  H223  1  0.63750024  0.10775578  0.33088420  1
  H+  H224  1  0.11160582  0.47297896  0.34219780  1
  H+  H225  1  0.22635258  0.62698571  0.17697829  1
  H+  H226  1  0.12860885  0.01700146  0.34495211  1
  H+  H227  1  0.84095109  0.42288128  0.12195068  1
  H+  H228  1  0.24585898  0.18501927  0.53863582  1
  H+  H229  1  0.86153320  0.13511782  0.34185247  1
  H+  H230  1  0.64336309  0.12613229  0.00312049  1
  H+  H231  1  0.88514454  0.01855641  0.17768957  1
  H+  H232  1  0.63587688  0.11054823  0.66024446  1
  H+  H233  1  0.72027693  0.36494546  0.81488835  1
  H+  H234  1  0.10586205  0.38589411  0.49891170  1
  H+  H235  1  0.14048776  0.35003373  0.67348168  1
  H+  H236  1  0.73785170  0.61922683  0.67323806  1
  H+  H237  1  0.31543515  0.80222246  0.54272079  1
  H+  H238  1  0.52344845  0.14464158  0.81630402  1
  H+  H239  1  -0.01309413  0.62998101  0.17804540  1
  H+  H240  1  0.48612334  0.38032428  -0.00419145  1
  H+  H241  1  0.89046627  0.12044636  -0.00014368  1
  H+  H242  1  0.13530824  0.61325576  0.32742411  1
  H+  H243  1  0.38596770  0.52244835  0.33189584  1
  H+  H244  1  0.62482082  0.13238275  0.16773302  1
  H+  H245  1  0.57293852  0.65165994  0.80280254  1
  H+  H246  1  0.09204823  0.93677196  -0.05602296  1
  H+  H247  1  0.02007614  0.87534290  0.68101342  1
  H+  H248  1  0.12905321  0.61474444  0.50255254  1
  H+  H249  1  0.72700876  0.10880370  0.33044603  1
  H+  H250  1  0.11130873  0.60830209  0.98912254  1
  H+  H251  1  0.01324736  0.13150714  0.16595800  1
  H+  H252  1  0.50730119  0.61274327  0.90909013  1
  H+  H253  1  0.85428761  0.46936834  0.67168123  1
  H+  H254  1  0.30830099  0.37871637  0.42663527  1
  H+  H255  1  0.86917761  0.38803028  0.49689019  1
  H+  H256  1  0.89699902  0.50200170  0.02744247  1
  H+  H257  1  0.02512304  0.64162154  0.33900031  1
  H+  H258  1  0.64582622  0.25555282  0.50600037  1
  H+  H259  1  0.86038490  0.13240617  0.67773512  1
  H+  H260  1  0.12450391  0.26653153  0.17599784  1
  H+  H261  1  0.40843811  0.11079622  0.50622316  1
  H+  H262  1  0.73604820  0.87683570  -0.00150105  1
  H+  H263  1  0.23784984  0.87902324  0.84361866  1
  H+  H264  1  0.42398570  0.08133651  0.26629102  1
  H+  H265  1  0.86061731  0.72298200  0.68626362  1
  H+  H266  1  0.48374852  0.59999637  0.68003546  1
  H+  H267  1  0.94207082  0.98942458  0.80399878  1
  H+  H268  1  0.26845802  0.89035322  0.15787061  1
  H+  H269  1  0.01817789  0.88644242  0.14984088  1
  H+  H270  1  0.61346059  -0.01487037  0.99060197  1
  H+  H271  1  0.09715018  0.22451440  0.50348839  1
  H+  H272  1  0.61040820  0.77445446  0.85289943  1
  H+  H273  1  0.81934903  0.09052944  0.77631509  1
  H+  H274  1  -0.00747451  0.37782740  0.83149644  1
  H+  H275  1  0.64236243  0.87189132  0.51177844  1
  H+  H276  1  0.14972657  0.32934575  0.89739352  1
  H+  H277  1  0.33195960  0.63987136  0.80878635  1
  H+  H278  1  0.57007187  0.39997676  0.46509890  1
  H+  H279  1  0.61685273  0.88759967  0.67803499  1
  H+  H280  1  0.39468634  0.11579784  0.32261026  1
  H+  H281  1  0.46568572  0.38751994  0.51504143  1
  H+  H282  1  0.22746997  0.86792589  0.32882979  1
  H+  H283  1  0.12551715  0.77052894  -0.01435853  1
  H+  H284  1  0.89451356  0.64961241  0.01663757  1
  H+  H285  1  0.10446201  0.13429842  0.15934031  1
  H+  H286  1  0.11341652  0.64198760  0.66858063  1
  H+  H287  1  0.64331826  0.34036479  0.49446385  1
  H+  H288  1  0.84696869  0.91994552  0.73241756  1
  H+  H289  1  0.59134090  0.44535475  0.72903694  1
  H+  H290  1  0.15403632  0.07102408  0.60877959  1
  H+  H291  1  0.68972351  0.62105609  0.60659179  1
  H+  H292  1  0.05609997  0.11085077  0.76442489  1
  H+  H293  1  0.07350051  0.90690844  0.08826175  1
  H+  H294  1  0.85129615  0.98085001  0.81301455  1
  H+  H295  1  0.84519585  0.66753385  0.10428837  1
  H+  H296  1  0.46323578  0.76362100  0.12462729  1
  H+  H297  1  0.39759613  0.03375056  0.83580836  1
  H+  H298  1  0.58554958  0.15772048  0.40205129  1
  H+  H299  1  0.87691205  0.10764057  0.50895334  1
  H+  H300  1  1.03215861  0.22133717  0.86688636  1
  H+  H301  1  1.02155190  0.63651283  0.66762078  1
  H+  H302  1  0.27428280  0.88597122  0.67068199  1
  H+  H303  1  0.32635888  0.92482392  0.40674324  1
  H+  H304  1  0.66042040  0.31873471  0.23236227  1
  H+  H305  1  0.82129865  0.15147722  0.10569431  1
  H+  H306  1  0.67071605  0.31870591  0.59209545  1
  H+  H307  1  0.30642494  0.13598866  0.73743193  1
  H+  H308  1  0.33045190  0.91822167  0.09907934  1
  H+  H309  1  0.91045663  0.07923462  0.60345435  1
  H+  H310  1  0.52984839  0.12358293  0.49795285  1
  H+  H311  1  0.64827795  0.60867717  0.17446444  1
  H+  H312  1  0.16341213  0.83912701  0.23240887  1
  H+  H313  1  0.34764930  0.68868782  0.06452085  1
  H+  H314  1  0.66714964  0.08507004  0.23642874  1
  H+  H315  1  0.08975316  0.42197824  0.10170523  1
  H+  H316  1  0.66814610  0.83390661  0.60920783  1
  H+  H317  1  0.18503955  0.07396136  0.20526631  1
  H+  H318  1  0.77761779  0.88801376  0.49818436  1
  H+  H319  1  0.57726719  0.91191444  0.43231218  1
  H+  H320  1  0.40383044  0.83973740  0.24402540  1
  H+  H321  1  0.83762593  0.92159035  0.10317588  1
  H+  H322  1  0.37692730  0.28992658  0.60643499  1
  H+  H323  1  0.07336608  0.90194455  0.78063926  1
  H+  H324  1  0.32000707  0.40215052  0.06947240  1
  H+  H325  1  0.90211363  0.82490077  0.94068270  1
  H+  H326  1  0.89029269  0.86579656  0.17231643  1
  H+  H327  1  0.83059059  0.16391333  0.43518814  1
  H+  H328  1  0.91039589  0.58150046  0.60302342  1
  H+  H329  1  0.39834238  0.77593736  0.65897012  1
  H+  H330  1  0.91282899  0.07872047  0.23738225  1
  H+  H331  1  0.43226966  0.09294391  0.89490948  1
  H+  H332  1  0.63585009  0.52587382  0.66163036  1
  H+  H333  1  0.62050807  0.38087867  0.15998192  1
  H+  H334  1  0.92028338  0.83531920  0.27029151  1
  H+  H335  1  0.43048047  0.67428029  0.57933061  1
  H+  H336  1  0.58997803  0.38094765  0.40011802  1
  H+  H337  1  0.82351230  0.65871380  0.74484452  1
  H+  H338  1  0.58253671  0.16874469  0.72826463  1
  H+  H339  1  0.89030733  0.63022317  0.17766294  1
  H+  H340  1  0.11897806  0.43683797  0.75211216  1
  H+  H341  1  0.77982042  0.38464285  0.49477814  1
  H+  H342  1  0.21822699  0.09823782  0.66631161  1
  H+  H343  1  0.17552838  0.84243569  0.56196054  1
  H+  H344  1  0.66822284  0.07390536  0.57054021  1
  H+  H345  1  0.16020437  0.32841291  0.26967532  1
  H+  H346  1  0.12322128  0.48236485  0.16049958  1
  H+  H347  1  0.41258013  0.83803903  0.89385835  1
  H+  H348  1  0.96514236  0.14335313  0.91156776  1
  H+  H349  1  0.66982526  0.10070388  0.94073822  1
  H+  H350  1  0.58987330  0.16789194  0.07426927  1
  H+  H351  1  0.84996659  0.25805612  0.86285808  1
  H+  H352  1  0.31561627  0.39277002  0.76686928  1
  H+  H353  1  0.84307160  0.42368989  0.40111650  1
  H+  H354  1  0.16674647  0.59013369  0.23551647  1
  H+  H355  1  0.14001731  0.07683342  0.28923119  1
  H+  H356  1  0.58546576  0.91866124  0.73653261  1
  H+  H357  1  0.36941992  0.56657774  0.87781729  1
  H+  H358  1  0.59910276  0.66606887  0.10218037  1
  H+  H359  1  0.89002864  0.36838901  0.18889616  1
  H+  H360  1  0.34451478  0.16439153  0.39061071  1
  H+  H361  1  0.07846108  0.41334446  0.43693021  1
  H+  H362  1  0.16527548  0.58983511  0.59554482  1
  H+  H363  1  0.42204526  0.32879154  0.23423066  1
  H+  H364  1  0.63638660  0.02130343  0.66454993  1
  H+  H365  1  0.59525553  0.43419063  0.06760821  1
  H+  H366  1  0.32536569  0.66335615  0.40152775  1
  H+  H367  1  0.88988114  0.32273628  0.95759873  1
  H+  H368  1  0.67120560  0.58653579  0.27435607  1
  H+  H369  1  0.91450106  0.82422921  0.60822904  1
  H+  H370  1  0.42190850  0.59126078  0.27717064  1
  H+  H371  1  0.92131155  0.59524713  0.24245414  1
  H+  H372  1  0.55687188  0.04259028  0.88494622  1
  H+  H373  1  0.16056587  0.32761749  0.57562246  1
  H+  H374  1  0.07231364  0.16935201  0.44150525  1
  H+  H375  1  0.85637643  0.76034369  0.85024805  1
  H+  H376  1  0.33590836  0.92443470  0.76564979  1
  H+  H377  1  0.08405455  0.67481228  0.43414214  1
  H+  H378  1  0.11962820  0.88328903  -0.01485603  1
  H+  H379  1  0.67125350  0.82893059  0.23716122  1
  H+  H380  1  0.15427244  0.58157867  0.89260853  1
  H+  H381  1  0.42994675  0.57332010  0.61879337  1
  H+  H382  1  0.89484508  0.77811491  0.50957073  1
  H+  H383  1  0.27100102  0.38079133  0.33614266  1
  O2-  O384  1  0.07449558  0.16649791  0.15022858  1
  O2-  O385  1  0.06940657  0.16475403  0.48706173  1
  O2-  O386  1  0.04898572  0.08391354  0.80544440  1
  O2-  O387  1  0.09551001  0.42181763  0.14711747  1
  O2-  O388  1  0.07538458  0.41520943  0.48261312  1
  O2-  O389  1  0.15162067  0.44704408  0.78957054  1
  O2-  O390  1  0.07473030  0.67044398  0.14671248  1
  O2-  O391  1  0.08361766  0.67420710  0.47958883  1
  O2-  O392  1  0.04658169  0.63927906  0.80778631  1
  O2-  O393  1  0.07852694  0.91584861  0.13231821  1
  O2-  O394  1  0.08899494  0.92370290  0.48357399  1
  O2-  O395  1  0.07131586  0.89787618  0.82564227  1
  O2-  O396  1  0.34766703  0.16768170  0.13642478  1
  O2-  O397  1  0.34079317  0.13952826  0.46434340  1
  O2-  O398  1  0.25116397  0.10379600  0.80653614  1
  O2-  O399  1  0.31382553  0.38235332  0.14642219  1
  O2-  O400  1  0.30012543  0.36620157  0.47205671  1
  O2-  O401  1  0.31366892  0.40120376  0.81170595  1
  O2-  O402  1  0.40062896  0.71740645  0.13253044  1
  O2-  O403  1  0.32233352  0.65848809  0.47878586  1
  O2-  O404  1  0.30613125  0.67631004  0.80187683  1
  O2-  O405  1  0.32962499  0.92004050  0.14484698  1
  O2-  O406  1  0.32821047  0.93065272  0.47539430  1
  O2-  O407  1  0.33912802  0.92831860  0.81087880  1
  O2-  O408  1  0.59348215  0.16432146  0.15035930  1
  O2-  O409  1  0.59013202  0.15578321  0.48077773  1
  O2-  O410  1  0.58297713  0.17162673  0.79675794  1
  O2-  O411  1  0.59618680  0.41873760  0.14736261  1
  O2-  O412  1  0.58698127  0.36326486  0.44389396  1
  O2-  O413  1  0.60424627  0.45174442  0.79879959  1
  O2-  O414  1  0.59822704  0.66433486  0.14788499  1
  O2-  O415  1  0.59233280  0.68368199  0.48994627  1
  O2-  O416  1  0.54384645  0.65932876  0.83797154  1
  O2-  O417  1  0.55242545  0.85373146  0.13400299  1
  O2-  O418  1  0.57754981  0.91147808  0.47857539  1
  O2-  O419  1  0.57850718  0.91735784  0.81111643  1
  O2-  O420  1  0.81705871  0.14956145  0.15092999  1
  O2-  O421  1  0.83201607  0.16466265  0.48096219  1
  O2-  O422  1  0.82506988  0.06369772  0.81358639  1
  O2-  O423  1  0.83112072  0.40656418  0.16588389  1
  O2-  O424  1  0.84093245  0.42026843  0.48142046  1
  O2-  O425  1  0.83434702  0.41748996  0.82022604  1
  O2-  O426  1  0.84302236  0.66941344  0.15058023  1
  O2-  O427  1  0.83815809  0.67314682  0.48314547  1
  O2-  O428  1  0.80536681  0.64568028  0.82792636  1
  O2-  O429  1  0.83810756  0.91667462  0.14871770  1
  O2-  O430  1  0.83732886  0.91515430  0.48137094  1
  O2-  O431  1  0.87957545  0.94580850  0.80475877  1
  O2-  O432  1  0.16988102  0.08164124  0.16422038  1
  O2-  O433  1  0.15037224  0.08392415  0.53179046  1
  O2-  O434  1  0.21547735  0.14729432  0.82975295  1
  O2-  O435  1  0.16141766  0.32768646  0.19025180  1
  O2-  O436  1  0.15220629  0.32948770  0.53071028  1
  O2-  O437  1  0.13857419  0.31426345  0.85352256  1
  O2-  O438  1  0.16639552  0.59319408  0.18941225  1
  O2-  O439  1  0.15792418  0.58299120  0.51829631  1
  O2-  O440  1  0.15328923  0.58121155  0.84772416  1
  O2-  O441  1  0.16205536  0.83515378  0.18679289  1
  O2-  O442  1  0.17392873  0.84211092  0.51658921  1
  O2-  O443  1  0.18024650  0.84493344  0.86283953  1
  O2-  O444  1  0.42194002  0.08146734  0.18904167  1
  O2-  O445  1  0.43033607  0.07532648  0.52481494  1
  O2-  O446  1  0.43435671  0.09408203  0.84982927  1
  O2-  O447  1  0.42335990  0.32369026  0.18840479  1
  O2-  O448  1  0.30462340  0.23564629  0.53475471  1
  O2-  O449  1  0.45197461  0.38311979  0.85326322  1
  O2-  O450  1  0.43076767  0.61220790  0.19546168  1
  O2-  O451  1  0.43832582  0.64089724  0.54704236  1
  O2-  O452  1  0.37094411  0.56705438  0.83339072  1
  O2-  O453  1  0.40341083  0.83759666  0.19873680  1
  O2-  O454  1  0.37312425  0.81179628  0.53516081  1
  O2-  O455  1  0.41211013  0.83616523  0.84829606  1
  O2-  O456  1  0.66337118  0.08416382  0.19148535  1
  O2-  O457  1  0.67002492  0.07444893  0.52477345  1
  O2-  O458  1  0.61342819  0.06919595  0.86584831  1
  O2-  O459  1  0.65644470  0.31985153  0.18758783  1
  O2-  O460  1  0.67425934  0.31761871  0.51976413  1
  O2-  O461  1  0.66127520  0.33530077  0.79816421  1
  O2-  O462  1  0.68091661  0.58183808  0.19123293  1
  O2-  O463  1  0.71295018  0.66809388  0.55352175  1
  O2-  O464  1  0.71692613  0.60085899  0.85192556  1
  O2-  O465  1  0.67477799  0.82985155  0.19179784  1
  O2-  O466  1  0.67505494  0.84541338  0.52852030  1
  O2-  O467  1  0.64971465  0.83626038  0.86001841  1
  O2-  O468  1  0.91590206  0.07955466  0.19201242  1
  O2-  O469  1  0.90593230  0.07650485  0.52541594  1
  O2-  O470  1  0.98138828  0.16238765  0.86843918  1
  O2-  O471  1  0.92817545  0.34686020  0.20620096  1
  O2-  O472  1  0.91055266  0.32673004  0.52611767  1
  O2-  O473  1  0.83910126  0.29490157  0.88921907  1
  O2-  O474  1  0.92552455  0.60326851  0.19579708  1
  O2-  O475  1  0.91676592  0.58592571  0.52411339  1
  O2-  O476  1  0.90389916  0.58163597  0.86704623  1
  O2-  O477  1  0.92442298  0.83851109  0.18671735  1
  O2-  O478  1  0.92450079  0.83706085  0.52758396  1
  O2-  O479  1  0.89479129  0.81979234  0.86464124  1
  O2-  O480  1  0.15793260  0.07993162  0.33133475  1
  O2-  O481  1  0.15615553  0.06902515  0.65407994  1
  O2-  O482  1  0.17505455  0.10289627  1.00003892  1
  O2-  O483  1  0.16386795  0.32927553  0.31507221  1
  O2-  O484  1  0.16707072  0.31950449  0.65440038  1
  O2-  O485  1  0.15757410  0.33516581  0.97738625  1
  O2-  O486  1  0.16386091  0.58184806  0.31106052  1
  O2-  O487  1  0.17298069  0.59430565  0.64091379  1
  O2-  O488  1  0.14879444  0.58425007  0.97854977  1
  O2-  O489  1  0.16716232  0.83692868  0.31143642  1
  O2-  O490  1  0.17059122  0.83660011  0.64310738  1
  O2-  O491  1  0.16644587  0.83127533  0.97623480  1
  O2-  O492  1  0.42391852  0.08295710  0.31196635  1
  O2-  O493  1  0.41868325  0.08229638  0.64740315  1
  O2-  O494  1  0.42796950  0.08906903  0.97736873  1
  O2-  O495  1  0.42100958  0.34076451  0.30973037  1
  O2-  O496  1  0.40163527  0.30791362  0.64754525  1
  O2-  O497  1  0.42726157  0.34552675  0.97742376  1
  O2-  O498  1  0.41807599  0.58505681  0.32206227  1
  O2-  O499  1  0.42429788  0.56309464  0.66304675  1
  O2-  O500  1  0.47149410  0.58118472  0.94523852  1
  O2-  O501  1  0.41197060  0.83779737  0.32257838  1
  O2-  O502  1  0.42325241  0.83844846  0.64985659  1
  O2-  O503  1  0.41357395  0.84493874  0.97156650  1
  O2-  O504  1  0.66580070  0.07492006  0.31696297  1
  O2-  O505  1  0.66775340  0.08106245  0.64714430  1
  O2-  O506  1  0.67504956  0.09751194  0.98525580  1
  O2-  O507  1  0.67939171  0.32809506  0.31699623  1
  O2-  O508  1  0.66915114  0.31778073  0.63882955  1
  O2-  O509  1  0.64174165  0.32808379  0.96143218  1
  O2-  O510  1  0.66678122  0.58296397  0.31947579  1
  O2-  O511  1  0.67841480  0.59571409  0.65277676  1
  O2-  O512  1  0.69622248  0.60091976  0.97436021  1
  O2-  O513  1  0.66589928  0.82917900  0.31730021  1
  O2-  O514  1  0.66584733  0.83051614  0.65455003  1
  O2-  O515  1  0.67522524  0.84388445  0.98442822  1
  O2-  O516  1  0.91238672  0.07965547  0.31615982  1
  O2-  O517  1  0.91023855  0.07764046  0.64897433  1
  O2-  O518  1  0.92381044  0.09407411  0.98203082  1
  O2-  O519  1  0.92417075  0.33130163  0.32117348  1
  O2-  O520  1  0.90716843  0.32489141  0.65052960  1
  O2-  O521  1  0.90641313  0.32976929  1.00155268  1
  O2-  O522  1  0.91694174  0.58618255  0.31226253  1
  O2-  O523  1  0.91053924  0.57639102  0.64838950  1
  O2-  O524  1  0.95337567  0.60832790  0.99295453  1
  O2-  O525  1  0.91812877  0.83189426  0.31551371  1
  O2-  O526  1  0.91121376  0.82157533  0.65360145  1
  O2-  O527  1  0.91247644  0.83143194  0.98592431  1
  O2-  O528  1  0.08522726  0.17725671  0.02575164  1
  O2-  O529  1  0.07626488  0.16874291  0.36467790  1
  O2-  O530  1  0.07318482  0.14884887  0.69137110  1
  O2-  O531  1  0.08082584  0.41968564  0.02430903  1
  O2-  O532  1  0.08482872  0.41374650  0.35906856  1
  O2-  O533  1  0.07674489  0.41328831  0.66186893  1
  O2-  O534  1  0.04507645  0.65724445  0.01169188  1
  O2-  O535  1  0.08559832  0.67025903  0.35386000  1
  O2-  O536  1  0.08178373  0.67122038  0.68238699  1
  O2-  O537  1  0.08923883  0.91921200  -0.01352009  1
  O2-  O538  1  0.08229178  0.91713821  0.36152699  1
  O2-  O539  1  0.08017594  0.90435458  0.69643524  1
  O2-  O540  1  0.34871214  0.17763878  0.01235690  1
  O2-  O541  1  0.34102640  0.17122222  0.34558033  1
  O2-  O542  1  0.32114208  0.14808005  0.69328370  1
  O2-  O543  1  0.32402781  0.41076605  0.02432920  1
  O2-  O544  1  0.32977365  0.41015789  0.35475995  1
  O2-  O545  1  0.32836055  0.39400028  0.69036145  1
  O2-  O546  1  0.32332437  0.67709489  0.02206251  1
  O2-  O547  1  0.32715130  0.66555687  0.35590700  1
  O2-  O548  1  0.35065066  0.66818148  0.64934102  1
  O2-  O549  1  0.33233224  0.92109664  0.02209089  1
  O2-  O550  1  0.32627305  0.91781344  0.35917220  1
  O2-  O551  1  0.33467636  0.91799272  0.68652718  1
  O2-  O552  1  0.59056766  0.16991844  0.02864700  1
  O2-  O553  1  0.58818259  0.16253543  0.35666405  1
  O2-  O554  1  0.58502505  0.16911165  0.68080228  1
  O2-  O555  1  0.58602698  0.43608305  0.02313832  1
  O2-  O556  1  0.58448293  0.41646008  0.33046144  1
  O2-  O557  1  0.58942638  0.44520495  0.68212749  1
  O2-  O558  1  0.61012076  0.67416838  0.02477270  1
  O2-  O559  1  0.58562662  0.66461265  0.36600534  1
  O2-  O560  1  0.58505408  0.66680455  0.70643272  1
  O2-  O561  1  0.57624761  0.92190078  -0.01365398  1
  O2-  O562  1  0.58026912  0.91204012  0.35746420  1
  O2-  O563  1  0.58636745  0.91901090  0.69046422  1
  O2-  O564  1  0.83441437  0.16257167  0.02917636  1
  O2-  O565  1  0.83162644  0.16524566  0.35780828  1
  O2-  O566  1  0.83148902  0.16196986  0.69647704  1
  O2-  O567  1  0.85960915  0.44549604  0.04679791  1
  O2-  O568  1  0.84511145  0.42471165  0.35570782  1
  O2-  O569  1  0.82206367  0.40853671  0.68646317  1
  O2-  O570  1  0.85423770  0.67073408  0.03106031  1
  O2-  O571  1  0.83124465  0.66267454  0.35831812  1
  O2-  O572  1  0.82853568  0.66097477  0.69970242  1
  O2-  O573  1  0.84203702  0.92868356  0.02562854  1
  O2-  O574  1  0.83381968  0.91323799  0.35704028  1
  O2-  O575  1  0.83477871  0.91184100  0.68740666  1
