# generated using pymatgen
data_H2O
_symmetry_space_group_name_H-M   'P 1'
_cell_length_a   17.96873144
_cell_length_b   17.97352651
_cell_length_c   21.97430497
_cell_angle_alpha   89.99074477
_cell_angle_beta   90.01918536
_cell_angle_gamma   119.96657714
_symmetry_Int_Tables_number   1
_chemical_formula_structural   H2O
_chemical_formula_sum   'H384 O192'
_cell_volume   6148.12426859
_cell_formula_units_Z   192
loop_
 _symmetry_equiv_pos_site_id
 _symmetry_equiv_pos_as_xyz
  1  'x, y, z'
loop_
 _atom_type_symbol
 _atom_type_oxidation_number
  H+  1.0
  O2-  -2.0
loop_
 _atom_site_type_symbol
 _atom_site_label
 _atom_site_symmetry_multiplicity
 _atom_site_fract_x
 _atom_site_fract_y
 _atom_site_fract_z
 _atom_site_occupancy
  H+  H0  1  0.87688344  0.98023390  0.00348670  1
  H+  H1  1  0.84135215  0.92214143  0.73321209  1
  H+  H2  1  0.62447873  0.23777203  -0.00586441  1
  H+  H3  1  0.86846413  0.39788862  0.33845236  1
  H+  H4  1  0.10417603  0.72592440  0.33958967  1
  H+  H5  1  0.86479312  0.57016630  0.16232303  1
  H+  H6  1  0.32221085  0.15391371  0.10624668  1
  H+  H7  1  0.39664441  0.28646650  0.51099718  1
  H+  H8  1  0.36018745  0.13146159  1.01075943  1
  H+  H9  1  0.61869760  0.27245454  0.49936318  1
  H+  H10  1  0.78502787  0.63912509  0.82536492  1
  H+  H11  1  0.41361940  0.88025432  0.33136047  1
  H+  H12  1  0.61554167  0.88446489  0.81849702  1
  H+  H13  1  0.60135103  0.35894060  -0.00089035  1
  H+  H14  1  0.61454761  0.64187399  0.33421151  1
  H+  H15  1  0.71312996  0.60061748  0.16183006  1
  H+  H16  1  0.72380695  0.41240260  0.17778568  1
  H+  H17  1  0.07657693  0.83796347  0.17846436  1
  H+  H18  1  -0.02593007  0.11227260  -0.00606026  1
  H+  H19  1  0.37863540  0.14544655  0.35865682  1
  H+  H20  1  0.13543235  0.52955482  0.66035151  1
  H+  H21  1  0.88186682  0.89401699  0.82671580  1
  H+  H22  1  0.21935940  0.87034459  0.67253679  1
  H+  H23  1  0.15215202  0.37047498  0.66640686  1
  H+  H24  1  0.52573894  0.39586447  0.49491106  1
  H+  H25  1  0.09925042  0.21990672  0.00300024  1
  H+  H26  1  0.10900849  0.88812090  0.67279450  1
  H+  H27  1  0.78710546  0.33774971  0.13178352  1
  H+  H28  1  0.50324627  0.37815766  0.15763204  1
  H+  H29  1  0.52562902  0.39453017  0.33899829  1
  H+  H30  1  0.23667391  0.36355791  0.65928332  1
  H+  H31  1  0.63510064  0.03836636  0.15688034  1
  H+  H32  1  0.02428188  0.14686208  0.49085014  1
  H+  H33  1  0.79012448  0.89482699  -0.00190853  1
  H+  H34  1  0.97362917  0.11978029  0.66380687  1
  H+  H35  1  0.39193926  0.72343361  0.80551434  1
  H+  H36  1  0.86631100  0.72930350  0.51564112  1
  H+  H37  1  0.12640454  0.26975709  0.51033928  1
  H+  H38  1  0.12516816  0.09921959  0.17254876  1
  H+  H39  1  0.88353114  0.11021047  0.99853349  1
  H+  H40  1  0.11471514  0.22918957  0.67789957  1
  H+  H41  1  0.34190496  0.92553478  0.37329823  1
  H+  H42  1  0.58607294  0.43596984  -0.01084167  1
  H+  H43  1  0.59645430  0.03600651  0.49056210  1
  H+  H44  1  0.37178640  0.11674554  0.67063128  1
  H+  H45  1  0.48118470  0.13361353  0.40975510  1
  H+  H46  1  0.88823377  0.87106918  0.66163014  1
  H+  H47  1  0.87960817  0.73403059  1.00893412  1
  H+  H48  1  0.36246647  0.47124887  0.83033565  1
  H+  H49  1  1.02904368  0.89918463  0.34305575  1
  H+  H50  1  0.12525156  0.79020394  0.83595918  1
  H+  H51  1  0.52659044  0.88435690  0.33002864  1
  H+  H52  1  0.40054402  0.90439491  0.15436227  1
  H+  H53  1  0.14180871  0.56331532  0.09718288  1
  H+  H54  1  0.64287919  0.11176037  0.30737042  1
  H+  H55  1  0.48233895  0.89400966  0.48027863  1
  H+  H56  1  0.50762359  0.65577142  -0.01018489  1
  H+  H57  1  0.88969323  0.27967427  0.83062452  1
  H+  H58  1  0.27839137  0.39129171  0.32657536  1
  H+  H59  1  0.78208858  0.65009976  0.29446222  1
  H+  H60  1  0.55448673  0.15368926  0.34033861  1
  H+  H61  1  0.57570028  0.11800493  0.85738125  1
  H+  H62  1  0.35235671  0.97632163  0.68679252  1
  H+  H63  1  0.86530891  0.22590217  0.01189409  1
  H+  H64  1  0.86749079  0.26055760  0.50162163  1
  H+  H65  1  0.39114857  0.16227231  0.49849203  1
  H+  H66  1  0.78775183  0.65106955  0.00838738  1
  H+  H67  1  0.61773776  0.89537379  0.16033519  1
  H+  H68  1  0.14465102  0.86966799  1.00173773  1
  H+  H69  1  0.68153339  0.83486015  0.56404684  1
  H+  H70  1  0.12526918  0.46609632  0.16087552  1
  H+  H71  1  0.65385700  0.58075834  0.25776011  1
  H+  H72  1  0.85402387  0.35796354  0.65521188  1
  H+  H73  1  0.01035792  0.37090369  0.49294335  1
  H+  H74  1  0.09685415  0.63124771  0.15360084  1
  H+  H75  1  0.37147357  0.94945659  0.48492253  1
  H+  H76  1  0.64709713  0.49671607  0.86010140  1
  H+  H77  1  0.91828386  0.09103152  0.56573094  1
  H+  H78  1  0.14717721  0.12373102  0.32851955  1
  H+  H79  1  0.63811439  0.24080803  0.32201985  1
  H+  H80  1  0.62498305  0.37748180  0.17098119  1
  H+  H81  1  0.11802619  0.36215263  1.01116133  1
  H+  H82  1  0.12062784  0.45707514  0.01700414  1
  H+  H83  1  0.15400236  0.13910227  0.51746299  1
  H+  H84  1  0.35334010  0.88637574  0.68351561  1
  H+  H85  1  0.85584359  0.43929687  0.14654401  1
  H+  H86  1  0.36676610  0.48072157  0.33230907  1
  H+  H87  1  0.85125059  0.14167495  0.82427284  1
  H+  H88  1  0.65441640  0.26087086  0.14700865  1
  H+  H89  1  0.87376820  0.64184836  0.81770060  1
  H+  H90  1  0.90358474  0.77694326  0.83626104  1
  H+  H91  1  0.11949169  0.98905011  0.34382415  1
  H+  H92  1  0.88225944  0.52619110  0.66348495  1
  H+  H93  1  0.88688817  0.61729909  0.65927418  1
  H+  H94  1  0.52928778  0.88778470  0.82281753  1
  H+  H95  1  0.73866000  0.86313695  0.83158432  1
  H+  H96  1  0.51639658  0.38322152  0.66510282  1
  H+  H97  1  0.63835770  0.53043651  0.32086763  1
  H+  H98  1  0.64314883  0.69170348  0.99640175  1
  H+  H99  1  0.21956954  0.35443350  0.85110632  1
  H+  H100  1  0.02055685  0.89310721  0.49564621  1
  H+  H101  1  0.24477775  0.81918868  0.18718781  1
  H+  H102  1  1.00162464  0.36277978  0.17882068  1
  H+  H103  1  0.38999806  0.27214264  0.66257495  1
  H+  H104  1  0.77639317  0.13339867  0.01223001  1
  H+  H105  1  0.02557544  0.37997283  0.34404877  1
  H+  H106  1  0.41203275  0.12562629  0.84245139  1
  H+  H107  1  0.36783882  0.87068162  0.84677287  1
  H+  H108  1  0.61203722  0.48069516  0.66310109  1
  H+  H109  1  0.34724433  0.21241805  0.00956833  1
  H+  H110  1  0.88737258  0.78021656  0.65805599  1
  H+  H111  1  0.24184218  0.13783033  0.52090624  1
  H+  H112  1  0.13266695  0.60386143  0.50209806  1
  H+  H113  1  0.02370183  0.62487712  0.49045654  1
  H+  H114  1  0.61329431  0.38433115  0.65756672  1
  H+  H115  1  0.39879766  0.03315620  0.84716718  1
  H+  H116  1  0.89383604  0.11737878  0.33041642  1
  H+  H117  1  0.63722341  0.52828414  0.50778389  1
  H+  H118  1  0.35015919  0.21390304  0.16559894  1
  H+  H119  1  0.61867068  0.51929700  0.16086983  1
  H+  H120  1  0.77954589  0.89455334  0.34123016  1
  H+  H121  1  0.12258236  0.64926330  0.32932712  1
  H+  H122  1  0.07463842  0.73777151  0.18036111  1
  H+  H123  1  0.10871974  0.13767357  0.68031822  1
  H+  H124  1  0.13748357  0.60926540  0.99573322  1
  H+  H125  1  0.33028242  0.41300803  0.77077720  1
  H+  H126  1  0.10054614  0.12891619  1.00248785  1
  H+  H127  1  0.86598438  0.48151911  0.82152084  1
  H+  H128  1  0.20065924  0.32890931  0.99881776  1
  H+  H129  1  0.77116899  0.15934710  0.83214259  1
  H+  H130  1  0.51079419  0.16315929  0.56327459  1
  H+  H131  1  0.12063681  0.38835927  0.83893809  1
  H+  H132  1  0.85164656  0.38057035  0.48823835  1
  H+  H133  1  0.10995290  0.21748273  0.83622850  1
  H+  H134  1  0.63319848  0.36856353  0.50046572  1
  H+  H135  1  0.13580401  0.09721403  0.83778429  1
  H+  H136  1  0.57453838  0.92804374  0.38983565  1
  H+  H137  1  0.47922691  0.61947391  0.50252403  1
  H+  H138  1  0.64697840  1.01621497  -0.01084852  1
  H+  H139  1  0.72990780  0.36017912  0.83732197  1
  H+  H140  1  0.26696592  0.90397332  0.83291443  1
  H+  H141  1  0.16309560  0.85851670  0.57724036  1
  H+  H142  1  0.32008192  0.43572274  0.01744760  1
  H+  H143  1  0.21882785  0.10371291  0.99498971  1
  H+  H144  1  0.23255353  0.83451076  0.15908645  1
  H+  H145  1  0.61044014  0.64326841  0.15061994  1
  H+  H146  1  1.01259583  0.88816896  0.66742772  1
  H+  H147  1  0.89254877  0.87359743  0.33205750  1
  H+  H148  1  0.39500558  0.61123737  0.84049135  1
  H+  H149  1  0.26444279  0.60985397  0.67904414  1
  H+  H150  1  0.75708518  0.38901425  0.67071267  1
  H+  H151  1  0.68819151  0.08007015  0.93169805  1
  H+  H152  1  0.86272912  0.90346262  0.15877903  1
  H+  H153  1  0.44104002  0.56007265  1.00335935  1
  H+  H154  1  0.02695099  0.13414478  0.16030533  1
  H+  H155  1  0.27181112  0.62707164  1.00604209  1
  H+  H156  1  0.02444849  0.64203264  0.67303815  1
  H+  H157  1  0.72641483  0.61737016  0.52039663  1
  H+  H158  1  0.12422712  0.73305644  1.00657244  1
  H+  H159  1  0.36431277  0.83004749  0.52698379  1
  H+  H160  1  0.61367272  0.63918215  0.49280694  1
  H+  H161  1  0.76384884  0.38346084  0.48868570  1
  H+  H162  1  0.13030519  0.78041747  0.66555178  1
  H+  H163  1  0.37426094  0.48188970  0.48832135  1
  H+  H164  1  0.39434386  0.31704024  0.93545983  1
  H+  H165  1  0.03888817  0.15304941  0.33680903  1
  H+  H166  1  0.61656534  0.39816859  0.34052265  1
  H+  H167  1  0.72649003  0.86624862  0.66321408  1
  H+  H168  1  0.37905599  0.97957714  0.16361456  1
  H+  H169  1  0.98242848  0.62075213  0.82826790  1
  H+  H170  1  0.36708025  0.47346624  0.67147029  1
  H+  H171  1  1.04916764  0.86398670  0.84079761  1
  H+  H172  1  0.89729423  0.87742278  0.50460897  1
  H+  H173  1  0.84300754  0.21884568  0.66953466  1
  H+  H174  1  0.61653078  0.73149111  0.33821133  1
  H+  H175  1  0.04433164  0.37988260  0.69545930  1
  H+  H176  1  0.28129225  0.13340015  0.81962067  1
  H+  H177  1  0.52877763  0.89525012  0.16485717  1
  H+  H178  1  0.27135482  0.62932585  0.48554284  1
  H+  H179  1  0.28577286  0.13817037  0.34464837  1
  H+  H180  1  0.64059044  0.77921791  0.99876295  1
  H+  H181  1  0.86691116  0.39278479  0.82233484  1
  H+  H182  1  0.14664767  0.53314943  0.84283162  1
  H+  H183  1  0.08057645  0.16453107  0.77433001  1
  H+  H184  1  0.22395636  0.88206723  0.51818829  1
  H+  H185  1  0.83368491  0.67295627  0.72692134  1
  H+  H186  1  0.85555135  0.36735945  -0.01868285  1
  H+  H187  1  0.61498528  0.72937118  0.67069452  1
  H+  H188  1  0.77361569  0.64155493  0.66785974  1
  H+  H189  1  0.11658791  0.36026525  0.51097655  1
  H+  H190  1  0.51392188  0.14127629  0.67004981  1
  H+  H191  1  0.98738293  0.86227482  0.99326128  1
  H+  H192  1  0.07738087  0.39849757  0.43588560  1
  H+  H193  1  0.52676345  0.17279435  0.20638634  1
  H+  H194  1  0.60899293  0.12814330  0.49789119  1
  H+  H195  1  0.40323981  0.03671623  0.99827946  1
  H+  H196  1  0.12697736  0.24197358  0.32869721  1
  H+  H197  1  0.60302009  0.14238594  0.65611069  1
  H+  H198  1  0.07921594  0.65036297  0.42972924  1
  H+  H199  1  0.38870197  0.36582573  0.32502753  1
  H+  H200  1  0.65290863  0.77775954  0.50399340  1
  H+  H201  1  0.74704088  0.12833443  0.49411029  1
  H+  H202  1  0.34886490  0.59909363  0.67782277  1
  H+  H203  1  0.38746113  0.61436518  0.50007228  1
  H+  H204  1  0.37941838  0.61257670  0.16676759  1
  H+  H205  1  0.21341037  0.09760694  0.17514914  1
  H+  H206  1  0.35406620  0.47322435  0.17126180  1
  H+  H207  1  0.41028191  0.84867468  0.93442168  1
  H+  H208  1  0.21470947  0.60804999  0.14563805  1
  H+  H209  1  0.63239492  0.60993803  0.66136597  1
  H+  H210  1  0.34629250  0.42023168  0.43053371  1
  H+  H211  1  0.67002980  0.17886227  0.14385151  1
  H+  H212  1  0.75952199  0.21190746  0.37521220  1
  H+  H213  1  0.52051773  0.38147548  0.84287786  1
  H+  H214  1  0.36629437  0.63789160  1.00724516  1
  H+  H215  1  0.32186035  0.16396006  0.62737710  1
  H+  H216  1  0.17261200  0.84577250  0.94042468  1
  H+  H217  1  0.38004010  0.35670460  0.84249536  1
  H+  H218  1  0.70779515  0.94614463  0.96002860  1
  H+  H219  1  0.64752049  0.77480564  0.83622361  1
  H+  H220  1  0.46799105  0.86798350  0.66884515  1
  H+  H221  1  0.58555328  0.92101626  0.72455301  1
  H+  H222  1  0.97044631  0.11288733  0.84052725  1
  H+  H223  1  0.56002458  0.40067247  0.09560851  1
  H+  H224  1  0.64338590  0.57388861  1.00934332  1
  H+  H225  1  0.87153646  0.97844246  0.82869968  1
  H+  H226  1  0.34694952  0.77550223  0.86049732  1
  H+  H227  1  0.36712585  0.38481613  0.67580682  1
  H+  H228  1  0.14213062  0.36079537  0.20775478  1
  H+  H229  1  0.92830880  0.85116321  0.56609021  1
  H+  H230  1  0.44836610  0.78080272  0.19752279  1
  H+  H231  1  0.25256667  0.65721993  0.32438074  1
  H+  H232  1  0.89890929  0.86338630  0.99102631  1
  H+  H233  1  0.88154267  0.11474929  0.66115881  1
  H+  H234  1  0.60632476  -0.02352477  0.66308746  1
  H+  H235  1  0.87919598  0.14275803  0.16521501  1
  H+  H236  1  0.94376172  0.36545490  0.64541734  1
  H+  H237  1  0.88802277  0.52847255  0.31923241  1
  H+  H238  1  0.86963162  0.98169158  0.49367130  1
  H+  H239  1  0.21538401  0.87140860  0.30214126  1
  H+  H240  1  0.39736985  0.06833224  0.61931274  1
  H+  H241  1  0.87969924  0.11260327  0.50742798  1
  H+  H242  1  0.12403492  0.65607370  0.82577242  1
  H+  H243  1  0.75500976  0.14025837  0.33500570  1
  H+  H244  1  1.00182000  0.34841444  0.99615604  1
  H+  H245  1  0.88352651  0.03017069  0.17128579  1
  H+  H246  1  0.63806296  0.01903730  0.31322744  1
  H+  H247  1  0.72643265  0.35242625  0.98503587  1
  H+  H248  1  0.85681472  0.79040290  0.19490021  1
  H+  H249  1  0.22131759  0.11060831  0.67193980  1
  H+  H250  1  0.66669249  0.32454080  0.92411778  1
  H+  H251  1  0.00657423  0.88929642  0.15899154  1
  H+  H252  1  0.47661095  0.61832749  0.32445293  1
  H+  H253  1  -0.01323336  0.62393792  -0.02096968  1
  H+  H254  1  0.85967187  0.68266645  0.17008281  1
  H+  H255  1  0.33927525  0.07939224  0.18969225  1
  H+  H256  1  0.91129014  0.36182083  0.16690963  1
  H+  H257  1  0.10297534  0.96938781  0.16584824  1
  H+  H258  1  0.34475160  0.36220328  0.01848630  1
  H+  H259  1  0.87009925  0.64893545  0.29165451  1
  H+  H260  1  0.86438563  0.63903697  0.51897713  1
  H+  H261  1  0.38362136  0.88603056  -0.00109716  1
  H+  H262  1  0.62394615  0.27519058  0.64949598  1
  H+  H263  1  0.45434296  0.33781456  -0.00641217  1
  H+  H264  1  0.12113049  0.89898334  0.50214537  1
  H+  H265  1  0.13366908  0.51567054  0.50729270  1
  H+  H266  1  0.13361692  0.87795874  0.32665005  1
  H+  H267  1  0.89304778  0.32291622  0.55849599  1
  H+  H268  1  0.38337729  0.26910982  0.83898369  1
  H+  H269  1  0.72868066  0.87337560  0.16889966  1
  H+  H270  1  0.89205769  0.24456853  0.16711959  1
  H+  H271  1  0.64325813  0.86960448  0.33014860  1
  H+  H272  1  0.11430667  0.97560552  0.00762172  1
  H+  H273  1  0.51014839  0.17944296  0.17663648  1
  H+  H274  1  0.87903762  0.28162099  0.32929137  1
  H+  H275  1  0.11055443  -0.01438207  0.67093873  1
  H+  H276  1  1.03462502  0.39401006  0.82918832  1
  H+  H277  1  0.36153647  0.65778403  0.34020880  1
  H+  H278  1  0.37536520  0.35400559  0.18146501  1
  H+  H279  1  0.58653307  0.66971381  0.43205394  1
  H+  H280  1  0.89129432  1.02769337  0.33061665  1
  H+  H281  1  0.92455053  0.59384454  0.88822567  1
  H+  H282  1  0.52609093  0.63296944  0.82918372  1
  H+  H283  1  0.34185658  0.72014182  0.15632542  1
  H+  H284  1  0.47826789  0.61035693  0.65503359  1
  H+  H285  1  0.88329293  0.52040399  0.50781115  1
  H+  H286  1  0.73379633  0.38031875  0.32554672  1
  H+  H287  1  0.61427183  0.63265806  0.82358895  1
  H+  H288  1  0.11529482  0.64562568  0.66904720  1
  H+  H289  1  0.90863680  0.08337111  0.89819071  1
  H+  H290  1  0.83993884  0.92418503  0.40118654  1
  H+  H291  1  0.59500142  0.87972943  1.00868193  1
  H+  H292  1  0.63690683  0.86543884  0.65747155  1
  H+  H293  1  0.47064353  0.61664426  0.16430303  1
  H+  H294  1  0.66886868  0.09156263  0.21742980  1
  H+  H295  1  0.15605045  0.32138653  0.91105987  1
  H+  H296  1  0.91868886  0.85960964  0.24056010  1
  H+  H297  1  0.08639094  0.92258550  0.43364142  1
  H+  H298  1  0.81551499  0.16194436  0.72935312  1
  H+  H299  1  0.92624624  0.33630109  0.89030944  1
  H+  H300  1  0.97956292  0.61309769  0.31209274  1
  H+  H301  1  0.31083017  0.39948221  0.12082993  1
  H+  H302  1  0.43528908  0.09725820  0.93905553  1
  H+  H303  1  0.11416404  0.38044016  0.33723695  1
  H+  H304  1  0.66000385  0.58106403  0.60011831  1
  H+  H305  1  0.64070880  0.78299879  0.17192922  1
  H+  H306  1  0.09422803  0.68139752  0.76404398  1
  H+  H307  1  0.17108716  0.57108126  0.29786728  1
  H+  H308  1  0.61990684  0.19281959  0.06199544  1
  H+  H309  1  0.15957030  0.33342958  0.57471601  1
  H+  H310  1  -0.00094563  0.61061665  0.15504371  1
  H+  H311  1  0.16614354  0.08263866  0.27016136  1
  H+  H312  1  0.31309931  0.86641408  0.45149940  1
  H+  H313  1  0.10102322  0.39425793  0.11184872  1
  H+  H314  1  0.89866480  0.62350180  0.98272648  1
  H+  H315  1  0.07970529  0.15438151  0.09897479  1
  H+  H316  1  0.64920383  0.08501155  0.58856316  1
  H+  H317  1  0.42914927  0.58689189  0.90045633  1
  H+  H318  1  0.71103181  0.11050942  0.64767263  1
  H+  H319  1  0.57078083  0.91027876  0.07123618  1
  H+  H320  1  0.58343969  0.66865746  0.72943499  1
  H+  H321  1  0.67416223  0.84289067  0.27012351  1
  H+  H322  1  0.81897885  0.41407692  0.73046371  1
  H+  H323  1  0.35701680  0.93485677  0.06965543  1
  H+  H324  1  0.38657644  0.77312765  0.33258967  1
  H+  H325  1  0.40109586  0.82187218  0.61698488  1
  H+  H326  1  0.08255658  0.91618808  0.06827016  1
  H+  H327  1  0.47416847  0.87366636  -0.00168932  1
  H+  H328  1  0.23403585  0.36267636  0.20882796  1
  H+  H329  1  0.32546009  0.92145090  0.77382011  1
  H+  H330  1  0.34444926  0.17723743  0.44189053  1
  H+  H331  1  0.73822028  0.53555823  0.89258297  1
  H+  H332  1  0.10950320  0.42853821  0.74710802  1
  H+  H333  1  0.53184412  0.14446621  0.01070242  1
  H+  H334  1  0.39150243  0.27753648  0.33110185  1
  H+  H335  1  0.80866476  0.15768694  0.43746997  1
  H+  H336  1  0.16408837  0.07479279  0.93346548  1
  H+  H337  1  0.33296265  0.67380045  0.42601309  1
  H+  H338  1  0.58309407  0.42629430  0.43334758  1
  H+  H339  1  0.41812335  0.58028256  0.59529883  1
  H+  H340  1  0.47030094  0.94557703  0.42478330  1
  H+  H341  1  0.28202871  0.89995929  0.01410181  1
  H+  H342  1  0.92433290  0.33863183  0.27013731  1
  H+  H343  1  0.37890806  0.75235396  0.51296083  1
  H+  H344  1  0.42017231  0.33686690  0.60346574  1
  H+  H345  1  0.84255644  0.17829494  0.10497256  1
  H+  H346  1  0.43255199  0.04659941  0.36979596  1
  H+  H347  1  0.86570783  0.98201680  0.67366624  1
  H+  H348  1  0.65943492  0.33824883  0.59100796  1
  H+  H349  1  0.89549642  0.78706256  0.31152810  1
  H+  H350  1  0.38283495  0.05956745  0.24475510  1
  H+  H351  1  0.32772244  0.66522231  0.09415456  1
  H+  H352  1  0.60384462  0.37105366  0.83587759  1
  H+  H353  1  0.41714938  0.58960737  0.26547498  1
  H+  H354  1  0.78294497  0.88810054  0.49472920  1
  H+  H355  1  0.83957543  0.39347024  0.04637132  1
  H+  H356  1  0.10895604  0.80768830  0.24305269  1
  H+  H357  1  0.09076930  0.18398356  0.43396323  1
  H+  H358  1  0.39589561  0.37581189  0.50774871  1
  H+  H359  1  0.91580870  0.08618583  0.23390111  1
  H+  H360  1  0.81768299  0.58243109  0.40334045  1
  H+  H361  1  0.83759208  0.92747871  0.09478151  1
  H+  H362  1  0.41367082  0.32609493  0.23632928  1
  H+  H363  1  0.93362314  0.83213799  0.89758686  1
  H+  H364  1  0.67945615  0.59284388  0.94099917  1
  H+  H365  1  0.83815791  0.65731736  0.09848602  1
  H+  H366  1  0.67192080  0.35578587  0.26693185  1
  H+  H367  1  0.97072116  0.27250678  0.95073062  1
  H+  H368  1  0.92009111  0.57805058  0.56803292  1
  H+  H369  1  0.16568124  0.09127549  0.61190075  1
  H+  H370  1  0.90342727  0.55166594  0.22262367  1
  H+  H371  1  0.42350778  0.83109067  0.24615478  1
  H+  H372  1  0.23532973  0.62021194  0.84270817  1
  H+  H373  1  0.07920131  0.66942778  0.06228061  1
  H+  H374  1  0.59191033  0.69010204  0.09544582  1
  H+  H375  1  0.33015605  0.64083001  0.76522362  1
  H+  H376  1  0.65575875  0.26205436  0.84520900  1
  H+  H377  1  0.68620045  0.86544405  0.91775024  1
  H+  H378  1  0.33893428  0.16904210  0.76066922  1
  H+  H379  1  0.16440318  0.58338041  0.59826688  1
  H+  H380  1  0.16749017  0.57840750  0.93836155  1
  H+  H381  1  0.83438845  0.42504094  0.39736931  1
  H+  H382  1  0.14698396  0.01328233  0.84099651  1
  H+  H383  1  0.80612196  0.61601286  0.41137114  1
  O2-  O384  1  0.08503489  0.15370103  0.14413920  1
  O2-  O385  1  0.08647355  0.18148991  0.47937573  1
  O2-  O386  1  0.07981842  0.15770262  0.81942428  1
  O2-  O387  1  0.10294308  0.40295305  0.15759808  1
  O2-  O388  1  0.07275608  0.39855782  0.48219853  1
  O2-  O389  1  0.09772070  0.42473440  0.82061082  1
  O2-  O390  1  0.05963744  0.65709653  0.14595883  1
  O2-  O391  1  0.08315134  0.64918477  0.47462310  1
  O2-  O392  1  0.09380914  0.68550316  0.80964072  1
  O2-  O393  1  0.06741242  0.90813000  0.14877477  1
  O2-  O394  1  0.08377148  0.92341720  0.47972746  1
  O2-  O395  1  0.11127484  0.89395398  0.82749905  1
  O2-  O396  1  0.31861919  0.15301107  0.15159884  1
  O2-  O397  1  0.34912499  0.18036897  0.48735607  1
  O2-  O398  1  0.34169876  0.16835148  0.80536110  1
  O2-  O399  1  0.31875608  0.40929575  0.16563133  1
  O2-  O400  1  0.34966921  0.42089546  0.47543153  1
  O2-  O401  1  0.32931851  0.41066337  0.81620614  1
  O2-  O402  1  0.31924681  0.66127196  0.14056880  1
  O2-  O403  1  0.33226125  0.66183866  0.47225854  1
  O2-  O404  1  0.34628263  0.66391242  0.81035544  1
  O2-  O405  1  0.39938002  0.95193735  0.13345973  1
  O2-  O406  1  0.32010634  0.89337558  0.49140047  1
  O2-  O407  1  0.32720626  0.92582169  0.82003719  1
  O2-  O408  1  0.67522087  0.23087748  0.12037165  1
  O2-  O409  1  0.54959528  0.17297453  0.47933260  1
  O2-  O410  1  0.63272255  0.15867462  0.84088512  1
  O2-  O411  1  0.56338550  0.41130884  0.14000823  1
  O2-  O412  1  0.58620500  0.42543552  0.47883827  1
  O2-  O413  1  0.58262889  0.41219793  0.83189235  1
  O2-  O414  1  0.58312830  0.67831633  0.13961421  1
  O2-  O415  1  0.58565231  0.67155271  0.47740505  1
  O2-  O416  1  0.58689064  0.66597362  0.81288903  1
  O2-  O417  1  0.58492778  0.92222879  0.14303589  1
  O2-  O418  1  0.51445869  0.94322814  0.45220963  1
  O2-  O419  1  0.58504443  0.91349396  0.80256958  1
  O2-  O420  1  0.85503051  0.18204493  0.15106157  1
  O2-  O421  1  0.80898049  0.15293963  0.48256667  1
  O2-  O422  1  0.82731357  0.17697861  0.80833770  1
  O2-  O423  1  0.84678571  0.38530715  0.12647588  1
  O2-  O424  1  0.82523734  0.41519042  0.47481504  1
  O2-  O425  1  0.83295655  0.41986125  0.80845006  1
  O2-  O426  1  0.82369549  0.63616267  0.14211048  1
  O2-  O427  1  0.82988938  0.66785338  0.52471956  1
  O2-  O428  1  0.84160516  0.67275666  0.80572623  1
  O2-  O429  1  0.83262872  0.93172026  0.14000942  1
  O2-  O430  1  0.84455883  0.92222415  0.47748308  1
  O2-  O431  1  0.84614492  0.91841214  0.81216489  1
  O2-  O432  1  0.15288203  0.06637466  0.19068473  1
  O2-  O433  1  0.18508197  0.11606594  0.54047908  1
  O2-  O434  1  0.17273180  0.07427722  0.85305832  1
  O2-  O435  1  0.17248135  0.33090108  0.22645719  1
  O2-  O436  1  0.15112154  0.33074932  0.52837541  1
  O2-  O437  1  0.15848441  0.32520134  0.86383603  1
  O2-  O438  1  0.14986609  0.57179284  0.14118237  1
  O2-  O439  1  0.16486446  0.57599533  0.52091992  1
  O2-  O440  1  0.17542543  0.59394778  0.85752918  1
  O2-  O441  1  0.07253499  0.78679354  0.20381374  1
  O2-  O442  1  0.16523787  0.86573385  0.53213730  1
  O2-  O443  1  0.15061599  0.84773788  0.85715388  1
  O2-  O444  1  0.34311045  0.03236599  0.21101179  1
  O2-  O445  1  0.47883816  0.14081930  0.52510227  1
  O2-  O446  1  0.43569890  0.09263229  0.86260773  1
  O2-  O447  1  0.40797147  0.32387988  0.19043461  1
  O2-  O448  1  0.42607251  0.34627602  0.52743587  1
  O2-  O449  1  0.40886396  0.32605664  0.86012038  1
  O2-  O450  1  0.41135476  0.58364547  0.18092385  1
  O2-  O451  1  0.41889154  0.58643380  0.51802212  1
  O2-  O452  1  0.42587850  0.58104345  0.85546438  1
  O2-  O453  1  0.42734562  0.82147189  0.19789270  1
  O2-  O454  1  0.40509750  0.80963608  0.53460992  1
  O2-  O455  1  0.39284354  0.83522654  0.86445803  1
  O2-  O456  1  0.66452912  0.09763639  0.17273386  1
  O2-  O457  1  0.63738541  0.09303948  0.50864667  1
  O2-  O458  1  0.69268471  0.14045534  0.87527891  1
  O2-  O459  1  0.66840563  0.36231820  0.18719934  1
  O2-  O460  1  0.65894660  0.33322876  0.51498739  1
  O2-  O461  1  0.67030122  0.32300586  0.85341054  1
  O2-  O462  1  0.65292467  0.58033261  0.17455173  1
  O2-  O463  1  0.66194187  0.58662851  0.52643994  1
  O2-  O464  1  0.69705346  0.55277566  0.87936884  1
  O2-  O465  1  0.66995618  0.84328944  0.18730942  1
  O2-  O466  1  0.68979926  0.83737835  0.51934982  1
  O2-  O467  1  0.67832143  0.83677258  0.84725307  1
  O2-  O468  1  0.91585375  0.09000971  0.18849267  1
  O2-  O469  1  0.91904766  0.09149383  0.52015225  1
  O2-  O470  1  0.90850029  0.08260763  0.85279118  1
  O2-  O471  1  0.93908371  0.33447438  0.19083401  1
  O2-  O472  1  0.90162664  0.32263944  0.51375318  1
  O2-  O473  1  0.92394481  0.34109810  0.84568224  1
  O2-  O474  1  0.89590583  0.54053680  0.17707890  1
  O2-  O475  1  0.91878021  0.58041248  0.52276869  1
  O2-  O476  1  0.92128943  0.58946902  0.84183950  1
  O2-  O477  1  0.90531870  0.84904864  0.19525735  1
  O2-  O478  1  0.93147611  0.85051804  0.52074089  1
  O2-  O479  1  0.94107622  0.83620263  0.85239365  1
  O2-  O480  1  0.17180121  0.08709927  0.31555734  1
  O2-  O481  1  0.15892923  0.07993077  0.65749360  1
  O2-  O482  1  0.15885210  0.07394379  0.97873462  1
  O2-  O483  1  0.17597772  0.34046683  0.29453658  1
  O2-  O484  1  0.17436091  0.33580260  0.64596233  1
  O2-  O485  1  0.14394889  0.31110846  0.98138990  1
  O2-  O486  1  0.19354249  0.63266153  0.30077480  1
  O2-  O487  1  0.16408535  0.58857325  0.64398652  1
  O2-  O488  1  0.16475166  0.57475324  0.98375498  1
  O2-  O489  1  0.15287534  0.84057343  0.30432032  1
  O2-  O490  1  0.15912792  0.84351360  0.65532191  1
  O2-  O491  1  0.17845475  0.84324366  0.98503571  1
  O2-  O492  1  0.45246008  0.11210255  0.36962520  1
  O2-  O493  1  0.40229562  0.07882897  0.66307905  1
  O2-  O494  1  0.43564520  0.09816483  0.98520949  1
  O2-  O495  1  0.42076221  0.33570715  0.31183925  1
  O2-  O496  1  0.42310430  0.33543177  0.64943979  1
  O2-  O497  1  0.39351078  0.31475595  0.98151763  1
  O2-  O498  1  0.41567285  0.58702880  0.31042215  1
  O2-  O499  1  0.41775183  0.57476075  0.64092875  1
  O2-  O500  1  0.44739743  0.60916244  0.98019689  1
  O2-  O501  1  0.42639009  0.83710956  0.31090293  1
  O2-  O502  1  0.40514560  0.83820070  0.66044989  1
  O2-  O503  1  0.41345252  0.85208012  0.98101469  1
  O2-  O504  1  0.67212553  0.07805510  0.29521174  1
  O2-  O505  1  0.65024229  0.08226242  0.63397292  1
  O2-  O506  1  0.70120042  0.05255198  0.96740655  1
  O2-  O507  1  0.67226568  0.35050880  0.31191139  1
  O2-  O508  1  0.65676708  0.33906368  0.63702518  1
  O2-  O509  1  0.66397669  0.32361621  0.97093235  1
  O2-  O510  1  0.66638943  0.58915677  0.30201626  1
  O2-  O511  1  0.66108018  0.57766688  0.64638389  1
  O2-  O512  1  0.68026514  0.62017667  0.98167361  1
  O2-  O513  1  0.67601395  0.84111533  0.31530586  1
  O2-  O514  1  0.66725685  0.83303433  0.64660387  1
  O2-  O515  1  0.69289038  0.88499526  0.96190995  1
  O2-  O516  1  0.92210716  0.08792917  0.31311918  1
  O2-  O517  1  0.91470790  0.08736459  0.64595954  1
  O2-  O518  1  0.91147431  0.08088945  0.97921188  1
  O2-  O519  1  0.91938527  0.34119829  0.31506485  1
  O2-  O520  1  0.88315829  0.32640847  0.63752175  1
  O2-  O521  1  0.95062360  0.30879108  0.96924378  1
  O2-  O522  1  0.91951055  0.58264085  0.29486254  1
  O2-  O523  1  0.91805459  0.58610220  0.64837522  1
  O2-  O524  1  0.92903894  0.59885892  0.96040119  1
  O2-  O525  1  0.92916270  0.85165491  0.31334727  1
  O2-  O526  1  0.92066885  0.84245706  0.64559565  1
  O2-  O527  1  0.92695478  0.83040804  0.97705654  1
  O2-  O528  1  0.06861281  0.15621355  0.01904716  1
  O2-  O529  1  0.09891222  0.18520052  0.35150361  1
  O2-  O530  1  0.07939509  0.16967314  0.69388775  1
  O2-  O531  1  0.09194869  0.39872671  0.03453234  1
  O2-  O532  1  0.08347486  0.40257671  0.36219516  1
  O2-  O533  1  0.10434581  0.42337147  0.70090229  1
  O2-  O534  1  0.09121792  0.67109867  0.01819427  1
  O2-  O535  1  0.07794325  0.66377348  0.34609052  1
  O2-  O536  1  0.08588141  0.67593713  0.68627852  1
  O2-  O537  1  0.08686666  0.91453084  0.02324586  1
  O2-  O538  1  0.08976041  0.92724300  0.35878775  1
  O2-  O539  1  0.07601704  0.92039021  0.68281962  1
  O2-  O540  1  0.32197323  0.15264726  0.02601472  1
  O2-  O541  1  0.34333416  0.17439929  0.36298567  1
  O2-  O542  1  0.32978289  0.16776672  0.67154330  1
  O2-  O543  1  0.31271887  0.38647623  0.04079644  1
  O2-  O544  1  0.33743887  0.41873724  0.34476820  1
  O2-  O545  1  0.33481600  0.41393816  0.68911945  1
  O2-  O546  1  0.33080566  0.66091303  0.02350889  1
  O2-  O547  1  0.33698663  0.69216109  0.35584240  1
  O2-  O548  1  0.30647502  0.60371164  0.70459398  1
  O2-  O549  1  0.34503521  0.93108286  0.02355212  1
  O2-  O550  1  0.40382591  0.95064511  0.37393222  1
  O2-  O551  1  0.32014996  0.91445948  0.69994125  1
  O2-  O552  1  0.59721993  0.17799437  0.01759926  1
  O2-  O553  1  0.61711871  0.17952400  0.33162556  1
  O2-  O554  1  0.57650705  0.17905871  0.66269493  1
  O2-  O555  1  0.56507531  0.38406810  0.01352416  1
  O2-  O556  1  0.58604658  0.42902712  0.35432657  1
  O2-  O557  1  0.58210280  0.41647402  0.67520153  1
  O2-  O558  1  0.61052157  0.71882729  0.01257202  1
  O2-  O559  1  0.58380751  0.67035044  0.35161689  1
  O2-  O560  1  0.58435974  0.66753873  0.68439493  1
  O2-  O561  1  0.56389689  0.90744205  0.02506794  1
  O2-  O562  1  0.58731338  0.91926965  0.34722792  1
  O2-  O563  1  0.58169165  0.91685027  0.67917760  1
  O2-  O564  1  0.83040520  0.17207228  0.03542744  1
  O2-  O565  1  0.79649760  0.18875070  0.36315697  1
  O2-  O566  1  0.81712500  0.15875693  0.68382752  1
  O2-  O567  1  0.82453688  0.39097424  0.00267556  1
  O2-  O568  1  0.83689639  0.42776663  0.35167660  1
  O2-  O569  1  0.81815387  0.41574532  0.68480988  1
  O2-  O570  1  0.84654692  0.67294024  0.02443338  1
  O2-  O571  1  0.84349955  0.68463998  0.28194938  1
  O2-  O572  1  0.83469087  0.67469779  0.68143725  1
  O2-  O573  1  0.84746971  0.91835052  0.01726475  1
  O2-  O574  1  0.84114958  0.92577436  0.35524850  1
  O2-  O575  1  0.83786824  0.92090962  0.68775388  1
