# generated using pymatgen
data_H2O
_symmetry_space_group_name_H-M   'P 1'
_cell_length_a   17.97880278
_cell_length_b   17.98365383
_cell_length_c   22.01675009
_cell_angle_alpha   90.02994199
_cell_angle_beta   89.98340104
_cell_angle_gamma   119.96275693
_symmetry_Int_Tables_number   1
_chemical_formula_structural   H2O
_chemical_formula_sum   'H384 O192'
_cell_volume   6167.16190133
_cell_formula_units_Z   192
loop_
 _symmetry_equiv_pos_site_id
 _symmetry_equiv_pos_as_xyz
  1  'x, y, z'
loop_
 _atom_type_symbol
 _atom_type_oxidation_number
  H+  1.0
  O2-  -2.0
loop_
 _atom_site_type_symbol
 _atom_site_label
 _atom_site_symmetry_multiplicity
 _atom_site_fract_x
 _atom_site_fract_y
 _atom_site_fract_z
 _atom_site_occupancy
  H+  H0  1  -0.01883513  0.36082169  0.83575045  1
  H+  H1  1  0.61243544  0.37339931  0.34900006  1
  H+  H2  1  0.01755579  0.87873485  0.15460380  1
  H+  H3  1  0.38884297  0.23476168  -0.00076449  1
  H+  H4  1  0.93226234  0.54365797  0.82771467  1
  H+  H5  1  0.90696965  0.79594223  0.33436548  1
  H+  H6  1  0.73537483  0.88347564  0.32944432  1
  H+  H7  1  0.17117525  0.82391771  0.93450058  1
  H+  H8  1  0.88164423  0.86907852  0.49772069  1
  H+  H9  1  0.13307547  0.35862443  0.51238238  1
  H+  H10  1  0.61373563  0.73325759  0.01523008  1
  H+  H11  1  0.34597782  0.70764141  0.62566562  1
  H+  H12  1  0.62828990  0.01878735  0.18267788  1
  H+  H13  1  0.76003473  0.88309095  0.00838352  1
  H+  H14  1  0.60663669  0.38468746  0.82291577  1
  H+  H15  1  0.39087237  0.86412685  0.32709330  1
  H+  H16  1  0.47057897  0.36432099  0.82935662  1
  H+  H17  1  0.88432187  0.65364183  0.35059130  1
  H+  H18  1  0.09857742  0.92354808  0.77798111  1
  H+  H19  1  0.38314740  0.27229482  0.82821162  1
  H+  H20  1  0.37102313  0.97871901  0.34200547  1
  H+  H21  1  0.21195818  0.34955873  0.84156726  1
  H+  H22  1  0.45873265  0.09273390  0.81947003  1
  H+  H23  1  0.38363949  0.10830962  0.33442923  1
  H+  H24  1  0.88109843  0.85783702  0.17782454  1
  H+  H25  1  0.93439519  0.49845709  0.41959196  1
  H+  H26  1  0.38454566  0.28205570  0.18413655  1
  H+  H27  1  0.41134279  0.08022505  0.27318472  1
  H+  H28  1  0.84953019  0.20600651  0.49241785  1
  H+  H29  1  0.24443544  0.11488467  0.99304883  1
  H+  H30  1  0.89750497  0.78034117  0.66297220  1
  H+  H31  1  0.42867130  0.58780040  0.42159315  1
  H+  H32  1  0.45818880  0.83868587  0.96632758  1
  H+  H33  1  0.47220337  0.37277779  -0.01823590  1
  H+  H34  1  0.61749888  0.42391328  0.00751234  1
  H+  H35  1  0.13924596  0.85603693  0.99085479  1
  H+  H36  1  0.39505061  0.78111300  0.51137960  1
  H+  H37  1  0.21831730  0.35158570  0.33416107  1
  H+  H38  1  0.38438502  0.11361668  0.17937017  1
  H+  H39  1  0.35728227  0.45444426  0.68296264  1
  H+  H40  1  0.27499057  0.65247293  0.49001727  1
  H+  H41  1  0.74597515  0.14784789  0.82453651  1
  H+  H42  1  0.61966234  0.37436907  0.67098153  1
  H+  H43  1  0.76795868  0.88312622  0.16439520  1
  H+  H44  1  0.51784336  0.63971424  0.16334115  1
  H+  H45  1  0.37485949  0.90032480  0.67078041  1
  H+  H46  1  0.52619337  0.88650571  0.49092588  1
  H+  H47  1  0.49094666  0.21747995  0.05403598  1
  H+  H48  1  1.07886311  0.90437623  1.05555912  1
  H+  H49  1  0.99497847  0.10642415  1.00746859  1
  H+  H50  1  0.67072183  0.94830192  0.66366060  1
  H+  H51  1  0.14416299  0.02195989  0.84508000  1
  H+  H52  1  0.09343463  0.75115827  0.45865496  1
  H+  H53  1  0.15276705  0.12340794  0.18099876  1
  H+  H54  1  0.38040949  0.88659823  0.00207514  1
  H+  H55  1  0.36306175  0.84810735  0.81911634  1
  H+  H56  1  0.89269552  0.28467120  0.18396202  1
  H+  H57  1  0.81158520  0.41086796  0.81358563  1
  H+  H58  1  0.35321425  0.38118261  0.82797171  1
  H+  H59  1  0.61184141  0.07825247  0.83184012  1
  H+  H60  1  0.46883750  0.34350667  0.34292627  1
  H+  H61  1  0.12124732  0.22042194  0.00561179  1
  H+  H62  1  0.20722511  0.59489761  0.83712431  1
  H+  H63  1  0.93486182  0.05887813  0.90846003  1
  H+  H64  1  0.74084642  0.60878314  0.83950744  1
  H+  H65  1  0.02040177  0.37764264  0.00530799  1
  H+  H66  1  0.23248917  0.50323817  0.69725038  1
  H+  H67  1  0.37637816  1.01977365  0.50849383  1
  H+  H68  1  0.26835978  0.13727493  0.49820332  1
  H+  H69  1  0.87690753  0.14940775  0.33462891  1
  H+  H70  1  0.22470405  0.84559717  0.83017224  1
  H+  H71  1  0.62497948  0.21070345  -0.05788051  1
  H+  H72  1  0.59257343  0.45011201  0.34303664  1
  H+  H73  1  0.96167842  0.11856154  0.66962352  1
  H+  H74  1  0.50582641  0.94237723  0.03130164  1
  H+  H75  1  0.08977488  0.87126147  0.49198302  1
  H+  H76  1  0.60321315  0.98728236  0.01052525  1
  H+  H77  1  0.86107114  0.70901912  0.01209985  1
  H+  H78  1  0.63890828  1.03177898  0.33752683  1
  H+  H79  1  0.32568874  0.90055689  0.73446730  1
  H+  H80  1  -0.04412321  0.34589877  0.50009026  1
  H+  H81  1  0.77791774  0.38306181  0.67276063  1
  H+  H82  1  0.84904219  0.67702213  0.73529052  1
  H+  H83  1  0.97451360  0.11403880  0.50157684  1
  H+  H84  1  0.12340334  0.51675701  1.00306965  1
  H+  H85  1  0.59637302  0.16636420  0.92901157  1
  H+  H86  1  0.89110738  0.85719416  0.84193726  1
  H+  H87  1  0.41840875  0.56876116  0.62435082  1
  H+  H88  1  0.88111410  0.40470955  0.34308533  1
  H+  H89  1  0.87859451  0.80097780  0.92939355  1
  H+  H90  1  0.47150689  0.11065494  0.18642210  1
  H+  H91  1  0.40279002  0.07484385  0.60220146  1
  H+  H92  1  0.62171674  0.86461207  0.99228161  1
  H+  H93  1  0.89249870  0.40366621  0.16326641  1
  H+  H94  1  0.79474261  0.40832767  0.35274868  1
  H+  H95  1  0.63260654  0.48896553  0.15551124  1
  H+  H96  1  0.84316860  0.92912056  0.42244155  1
  H+  H97  1  0.10967178  0.88818060  0.15464051  1
  H+  H98  1  0.11234595  0.59661448  0.48788552  1
  H+  H99  1  0.14007579  0.76674106  0.66583412  1
  H+  H100  1  0.63288455  0.76048654  0.84863562  1
  H+  H101  1  0.13285721  0.26353258  0.17916454  1
  H+  H102  1  0.51083337  0.12391739  0.66171665  1
  H+  H103  1  0.89370955  0.61586247  0.17914672  1
  H+  H104  1  0.35508287  0.13257728  0.50008350  1
  H+  H105  1  0.35916750  0.49762467  -0.01509180  1
  H+  H106  1  0.12906682  0.76462419  0.84040235  1
  H+  H107  1  0.83204413  0.11600488  0.69210628  1
  H+  H108  1  0.13935024  0.03235032  0.33460173  1
  H+  H109  1  0.23035130  0.11385745  0.83626128  1
  H+  H110  1  0.62304333  0.71281777  0.34624227  1
  H+  H111  1  0.81334306  0.18896891  0.67211615  1
  H+  H112  1  0.35386617  0.38462014  0.98477607  1
  H+  H113  1  0.38071658  0.71500622  0.64809733  1
  H+  H114  1  0.38343283  0.60756993  0.84133176  1
  H+  H115  1  0.38562678  0.14234810  0.99633949  1
  H+  H116  1  0.90115100  0.54171197  0.33352643  1
  H+  H117  1  0.61735196  0.66887226  0.41036529  1
  H+  H118  1  0.12722758  0.34924863  0.99176497  1
  H+  H119  1  0.60890344  0.13678311  0.17514448  1
  H+  H120  1  0.60384152  0.95191942  0.82253607  1
  H+  H121  1  0.09598366  0.36621265  0.82530247  1
  H+  H122  1  0.10434418  0.22110012  0.50147232  1
  H+  H123  1  0.74429772  0.11158941  -0.01967914  1
  H+  H124  1  0.11268007  0.63890426  0.01442410  1
  H+  H125  1  0.63233281  0.50498984  0.64953397  1
  H+  H126  1  0.08675715  0.54944468  0.19547755  1
  H+  H127  1  0.02672798  0.39196761  0.34791048  1
  H+  H128  1  0.23693484  0.87626348  0.32844020  1
  H+  H129  1  0.34903944  0.70935239  0.82002051  1
  H+  H130  1  1.02577294  0.13287329  0.15136366  1
  H+  H131  1  0.66524615  1.12614933  -0.01974186  1
  H+  H132  1  0.76627514  0.11681478  0.50570807  1
  H+  H133  1  0.86513397  0.33556814  0.65632479  1
  H+  H134  1  0.63230829  0.77584595  0.17822718  1
  H+  H135  1  0.36639811  0.98040650  0.15915404  1
  H+  H136  1  0.97108687  0.86575065  0.50086683  1
  H+  H137  1  0.54128071  0.38942844  0.49973259  1
  H+  H138  1  0.66144464  0.36463016  0.50929921  1
  H+  H139  1  0.61843755  0.89686423  0.33810857  1
  H+  H140  1  0.48156192  0.86705095  0.32480456  1
  H+  H141  1  0.60558497  0.19078378  0.80424791  1
  H+  H142  1  0.64158220  0.59510346  0.33094775  1
  H+  H143  1  0.23787611  0.60968657  0.32429011  1
  H+  H144  1  0.87650909  0.01820359  0.14566947  1
  H+  H145  1  0.15992854  0.08902062  0.60112386  1
  H+  H146  1  0.10134232  0.62267432  0.68371664  1
  H+  H147  1  0.89115189  0.36510481  0.98930899  1
  H+  H148  1  0.27364472  0.87283948  0.49359144  1
  H+  H149  1  0.37407204  0.73287815  0.33676958  1
  H+  H150  1  0.13794286  -0.00904642  0.68166334  1
  H+  H151  1  0.11892057  0.88535959  0.83599130  1
  H+  H152  1  0.37379178  0.52547702  0.19218173  1
  H+  H153  1  0.84147624  0.82707771  -0.01233531  1
  H+  H154  1  0.58358590  0.64930720  0.78302675  1
  H+  H155  1  0.37716508  0.25569484  0.34132180  1
  H+  H156  1  0.52640509  0.14490408  0.34165755  1
  H+  H157  1  0.39228177  0.27755875  0.50157648  1
  H+  H158  1  0.89153583  1.02423374  0.68663854  1
  H+  H159  1  0.63244577  0.59293205  0.65798295  1
  H+  H160  1  0.62725140  0.64046737  0.50258943  1
  H+  H161  1  0.13415589  0.12444166  0.65972188  1
  H+  H162  1  0.63634751  0.62086981  0.17165990  1
  H+  H163  1  0.87734466  0.28581032  0.83722636  1
  H+  H164  1  0.65758410  0.57897158  0.22803916  1
  H+  H165  1  0.14367457  0.78713674  0.17400316  1
  H+  H166  1  0.37622516  0.01785985  0.66350119  1
  H+  H167  1  0.77450147  0.64484096  0.50355276  1
  H+  H168  1  0.92077895  0.34122487  0.92533436  1
  H+  H169  1  0.48488097  0.35635194  0.64964276  1
  H+  H170  1  -0.01069950  0.62783377  0.17482721  1
  H+  H171  1  0.88406251  0.01707631  0.49399108  1
  H+  H172  1  0.89230877  1.00756338  0.84864464  1
  H+  H173  1  0.40631186  0.01851828  0.98571818  1
  H+  H174  1  0.36854788  0.57334132  0.68263054  1
  H+  H175  1  0.85270989  0.42456170  0.72388748  1
  H+  H176  1  0.87673676  0.23464279  -0.01616940  1
  H+  H177  1  0.16703420  0.68520614  0.52014283  1
  H+  H178  1  0.12961227  0.02080861  0.50816227  1
  H+  H179  1  0.78037647  0.89658008  0.48278092  1
  H+  H180  1  0.47805683  0.09592652  0.94834938  1
  H+  H181  1  0.63962342  0.27996178  0.19677277  1
  H+  H182  1  0.12566759  0.65881790  0.15645588  1
  H+  H183  1  0.12635513  0.25665542  0.83909930  1
  H+  H184  1  0.47339945  0.60424171  0.84636679  1
  H+  H185  1  0.35783609  0.38625384  0.20520053  1
  H+  H186  1  0.23265550  0.87411341  0.17151831  1
  H+  H187  1  0.12017845  0.96800734  0.00072540  1
  H+  H188  1  0.62009698  0.47846319  0.82631606  1
  H+  H189  1  0.80075201  0.90332136  0.67683272  1
  H+  H190  1  0.07591739  0.16536483  0.43810119  1
  H+  H191  1  0.85782775  0.95979884  0.01180740  1
  H+  H192  1  0.13603661  0.51011825  0.64101854  1
  H+  H193  1  0.12727470  0.10858607  0.50668721  1
  H+  H194  1  0.35527653  0.13440965  0.66937037  1
  H+  H195  1  0.16457401  0.57237060  0.24009738  1
  H+  H196  1  0.38210181  0.50257846  0.33957998  1
  H+  H197  1  0.74269409  0.61303159  0.00083642  1
  H+  H198  1  0.04791534  0.64468979  0.77543702  1
  H+  H199  1  0.39176223  0.27375749  0.64965687  1
  H+  H200  1  0.32162605  0.42076578  0.25665046  1
  H+  H201  1  0.36427883  0.60031980  0.98989114  1
  H+  H202  1  0.60014046  0.50131119  0.00453314  1
  H+  H203  1  1.01704078  0.62851606  0.67716083  1
  H+  H204  1  0.13511663  0.11913873  0.33873587  1
  H+  H205  1  0.14812448  0.52088998  0.33017542  1
  H+  H206  1  0.28468440  0.14857790  0.16762921  1
  H+  H207  1  0.26950002  0.14203361  0.66763000  1
  H+  H208  1  0.77173141  0.87394942  0.83404795  1
  H+  H209  1  0.35909814  0.13687030  0.81374074  1
  H+  H210  1  0.87205933  0.64480620  0.67541116  1
  H+  H211  1  0.80325238  0.66875328  0.35399416  1
  H+  H212  1  0.73760008  0.34074583  0.51228058  1
  H+  H213  1  0.89610690  0.40689848  0.82129367  1
  H+  H214  1  0.22428139  0.36116784  0.51210510  1
  H+  H215  1  0.61276147  0.97511321  0.49354966  1
  H+  H216  1  0.59940288  0.79414101  0.65893782  1
  H+  H217  1  0.61661382  0.62446871  0.84152236  1
  H+  H218  1  0.59636882  0.12136882  0.64643091  1
  H+  H219  1  0.09773131  0.45575504  0.81856494  1
  H+  H220  1  0.10589512  0.24026042  0.68049639  1
  H+  H221  1  0.91301020  0.07831508  0.08878222  1
  H+  H222  1  0.02311689  0.12272333  0.82993632  1
  H+  H223  1  0.25989621  0.37814509  -0.01212153  1
  H+  H224  1  0.67896726  1.02987431  0.69305936  1
  H+  H225  1  0.13079652  0.13542014  0.00760188  1
  H+  H226  1  0.71851468  0.10589271  0.19021709  1
  H+  H227  1  0.58398562  0.77399681  0.62805564  1
  H+  H228  1  0.88007787  1.00457935  0.34219503  1
  H+  H229  1  0.35164360  0.46968280  0.83064101  1
  H+  H230  1  0.35014436  0.71378258  -0.00833043  1
  H+  H231  1  0.77674482  0.63500315  0.16590290  1
  H+  H232  1  0.03428488  0.90050761  0.33999248  1
  H+  H233  1  0.88653665  0.49104893  0.00690067  1
  H+  H234  1  0.88635289  0.64614955  0.82652919  1
  H+  H235  1  0.21867662  0.35442977  0.19578491  1
  H+  H236  1  0.90930647  0.11178625  -0.00911023  1
  H+  H237  1  0.36848315  0.88903150  0.49450518  1
  H+  H238  1  0.87465547  0.90860280  0.33867019  1
  H+  H239  1  0.70460868  0.28969252  0.86465087  1
  H+  H240  1  0.89556396  0.41608880  0.48783697  1
  H+  H241  1  0.78728674  0.15084779  0.33494706  1
  H+  H242  1  0.11219912  0.37223936  0.16455506  1
  H+  H243  1  0.13854408  0.90251420  0.67937808  1
  H+  H244  1  0.12016705  0.76097796  0.36031999  1
  H+  H245  1  0.63626665  0.31670088  1.02893905  1
  H+  H246  1  0.34602261  -0.05452204  0.81350382  1
  H+  H247  1  0.37528067  0.64383608  0.34349471  1
  H+  H248  1  0.87331241  0.10862454  0.50074866  1
  H+  H249  1  0.11518694  0.12980396  0.82619647  1
  H+  H250  1  0.65271864  0.06111720  0.89259954  1
  H+  H251  1  0.54028355  0.64368423  0.48812679  1
  H+  H252  1  0.35839493  0.36701416  0.34591188  1
  H+  H253  1  0.85834957  0.13736306  0.15319923  1
  H+  H254  1  0.63888006  0.26102113  0.66016252  1
  H+  H255  1  0.01052667  0.13018356  0.35070612  1
  H+  H256  1  0.70283165  0.55643018  0.31171502  1
  H+  H257  1  0.88392999  0.77000216  0.18036301  1
  H+  H258  1  0.59970368  0.21697900  0.50000043  1
  H+  H259  1  0.23276118  0.85213384  0.65862327  1
  H+  H260  1  0.64483215  0.87163755  0.49811501  1
  H+  H261  1  0.59734861  0.91210117  0.75916518  1
  H+  H262  1  0.79287976  0.41045630  0.02087168  1
  H+  H263  1  0.39430875  0.61707323  0.47693740  1
  H+  H264  1  0.08920941  0.45296676  0.50110283  1
  H+  H265  1  0.11769679  0.46397640  0.16090067  1
  H+  H266  1  0.26824316  0.13204153  0.34808008  1
  H+  H267  1  0.87545891  0.72845058  0.83185202  1
  H+  H268  1  0.98339130  0.86183877  0.84662777  1
  H+  H269  1  0.46381369  0.11110085  0.50897849  1
  H+  H270  1  0.51696296  0.88404093  0.16608825  1
  H+  H271  1  0.62961634  0.65472691  1.01713654  1
  H+  H272  1  0.11206330  0.38430625  0.35023574  1
  H+  H273  1  0.89569494  0.28358669  0.32879980  1
  H+  H274  1  0.25689759  0.63492135  0.15192791  1
  H+  H275  1  0.79631075  0.99033473  0.61625909  1
  H+  H276  1  0.88528782  0.51598269  0.65425277  1
  H+  H277  1  0.53384864  0.92751944  0.65339912  1
  H+  H278  1  0.34384164  0.63288259  0.15452350  1
  H+  H279  1  0.37766916  0.77203170  0.17226034  1
  H+  H280  1  0.40580932  0.60626741  0.23297952  1
  H+  H281  1  0.65317679  0.52731210  0.50336400  1
  H+  H282  1  0.36208219  0.46781782  0.48252208  1
  H+  H283  1  1.03366523  0.67384352  0.36956031  1
  H+  H284  1  0.99684561  0.62345509  0.99530365  1
  H+  H285  1  0.09756172  0.16687117  0.10141654  1
  H+  H286  1  0.52017642  0.61481794  0.69266695  1
  H+  H287  1  0.92526951  0.84350250  0.27010053  1
  H+  H288  1  0.07805623  0.40048073  0.06618546  1
  H+  H289  1  0.65097063  0.37173033  0.18486081  1
  H+  H290  1  0.72531296  0.90447046  0.58209697  1
  H+  H291  1  0.63404699  0.86573684  0.17550785  1
  H+  H292  1  0.84221631  0.66093427  0.10991319  1
  H+  H293  1  0.08804818  0.68082536  0.09711514  1
  H+  H294  1  0.93322179  0.09365110  0.28340603  1
  H+  H295  1  0.08101865  0.17260426  0.73425924  1
  H+  H296  1  0.74445562  0.68500321  0.96504105  1
  H+  H297  1  0.66186919  0.08848852  0.27890942  1
  H+  H298  1  0.15311218  0.58506245  0.59445514  1
  H+  H299  1  0.57670213  0.18259135  0.12630220  1
  H+  H300  1  0.65076882  0.28391563  0.33932589  1
  H+  H301  1  0.82139635  0.89882280  0.10300839  1
  H+  H302  1  0.18529211  0.10373241  0.24266636  1
  H+  H303  1  0.17298846  0.35575516  0.60442938  1
  H+  H304  1  0.83477759  0.90505334  0.77568891  1
  H+  H305  1  0.12043404  0.73469572  0.00656926  1
  H+  H306  1  0.95896794  0.56287552  0.47340649  1
  H+  H307  1  0.58611387  0.42204214  0.10328341  1
  H+  H308  1  0.07445194  0.40595227  0.43721795  1
  H+  H309  1  0.68058646  0.34685822  0.28197158  1
  H+  H310  1  0.91750146  0.58395818  0.59973421  1
  H+  H311  1  0.37443511  0.92909796  0.06639932  1
  H+  H312  1  0.98721568  0.36612391  0.17545693  1
  H+  H313  1  0.33601716  0.67986464  0.43221315  1
  H+  H314  1  0.40999162  0.32537500  0.24950244  1
  H+  H315  1  0.93110902  0.35320520  0.27551503  1
  H+  H316  1  0.32854511  0.17123893  0.75759633  1
  H+  H317  1  0.24154578  0.37741349  0.67233902  1
  H+  H318  1  0.91526436  0.83863267  0.60428227  1
  H+  H319  1  0.61485186  0.14407803  0.34749009  1
  H+  H320  1  0.67580058  0.32497935  0.60425440  1
  H+  H321  1  0.33784256  0.91520471  0.39941217  1
  H+  H322  1  0.73995245  0.26032845  0.81023268  1
  H+  H323  1  0.16971413  0.79890170  0.57289601  1
  H+  H324  1  0.60866623  0.70119895  0.68981176  1
  H+  H325  1  0.43965916  0.85353514  0.56501563  1
  H+  H326  1  0.65445544  0.83378513  0.93466749  1
  H+  H327  1  0.89569454  0.50318703  0.16539124  1
  H+  H328  1  0.47498066  0.58174760  0.32246537  1
  H+  H329  1  0.40197763  0.57480581  0.92797421  1
  H+  H330  1  0.11713904  0.59224201  0.83734592  1
  H+  H331  1  0.86872095  0.75470256  0.50269633  1
  H+  H332  1  0.59417827  0.41128534  0.43953458  1
  H+  H333  1  0.67162682  0.57914263  0.56644947  1
  H+  H334  1  0.39571655  0.81259106  0.90871674  1
  H+  H335  1  0.45530832  0.84332316  0.82141718  1
  H+  H336  1  0.42429789  0.33611435  0.56099999  1
  H+  H337  1  0.12444958  0.90101598  0.34211558  1
  H+  H338  1  0.15242352  0.32140274  0.27790064  1
  H+  H339  1  0.88002582  0.88567759  0.68198397  1
  H+  H340  1  0.85923346  0.17438656  0.03976988  1
  H+  H341  1  0.56647999  0.12843311  0.74898910  1
  H+  H342  1  0.28823796  0.52577397  0.57435635  1
  H+  H343  1  0.07866399  0.91777598  0.43392178  1
  H+  H344  1  0.18497715  0.08911629  0.93350900  1
  H+  H345  1  0.58262257  0.67249804  0.10631792  1
  H+  H346  1  0.63010745  0.84719956  0.83646653  1
  H+  H347  1  0.53929203  0.17448325  0.02738285  1
  H+  H348  1  0.32509197  0.66472990  0.05679413  1
  H+  H349  1  0.94513376  0.59313866  0.93200272  1
  H+  H350  1  0.32801988  0.15727664  0.40809057  1
  H+  H351  1  0.58268644  0.92018409  0.39713461  1
  H+  H352  1  0.30955721  0.62497760  0.77533845  1
  H+  H353  1  0.30847665  0.49833017  0.57130267  1
  H+  H354  1  0.56742195  0.16671444  0.43771452  1
  H+  H355  1  0.17518840  0.84670354  0.26991467  1
  H+  H356  1  0.25912350  0.59702818  0.68158944  1
  H+  H357  1  0.41202563  0.82936964  0.23342955  1
  H+  H358  1  0.65291884  0.78704032  0.50806296  1
  H+  H359  1  0.88135585  0.63201762  0.01203545  1
  H+  H360  1  0.68663986  0.58443522  0.90056722  1
  H+  H361  1  0.58793965  0.41115820  0.72566437  1
  H+  H362  1  0.37309616  0.37155192  0.09534063  1
  H+  H363  1  0.31110985  0.39992163  0.74305561  1
  H+  H364  1  0.45708214  0.83568809  0.66365333  1
  H+  H365  1  0.10426218  0.22063952  0.35257792  1
  H+  H366  1  0.79400677  0.18099794  0.76200745  1
  H+  H367  1  0.93503153  0.60593931  0.27732849  1
  H+  H368  1  0.87842625  0.29471170  0.59752540  1
  H+  H369  1  0.32324238  0.39783632  0.40210894  1
  H+  H370  1  0.80520518  0.17858623  0.12533954  1
  H+  H371  1  0.34601832  0.17566255  0.10779553  1
  H+  H372  1  0.15114216  0.31610735  0.93006750  1
  H+  H373  1  0.84588458  0.67927232  0.44622150  1
  H+  H374  1  0.21135187  0.60448304  0.99663897  1
  H+  H375  1  0.41415938  0.33064852  0.92202651  1
  H+  H376  1  0.67359989  0.84758499  0.27187051  1
  H+  H377  1  0.36373363  0.38007376  0.49387575  1
  H+  H378  1  0.32712504  0.33655544  0.09606423  1
  H+  H379  1  0.86753662  0.44111390  0.09873414  1
  H+  H380  1  0.36562328  0.89087845  0.16022723  1
  H+  H381  1  0.67314421  0.35188574  0.96443066  1
  H+  H382  1  0.39568257  0.06403521  0.87651982  1
  H+  H383  1  0.57513406  0.92225273  0.10731082  1
  O2-  O384  1  0.08880670  0.16592996  0.14646258  1
  O2-  O385  1  0.07216049  0.16191748  0.48506938  1
  O2-  O386  1  0.08215747  0.15753437  0.81162539  1
  O2-  O387  1  0.08390869  0.40378689  0.14635466  1
  O2-  O388  1  0.06503797  0.39591819  0.48318213  1
  O2-  O389  1  0.06374874  0.39302614  0.80855813  1
  O2-  O390  1  0.08838387  0.68151287  0.14415088  1
  O2-  O391  1  0.09387227  0.77438020  0.50125463  1
  O2-  O392  1  0.05057955  0.64559520  0.82166393  1
  O2-  O393  1  0.07246768  0.90466874  0.13234105  1
  O2-  O394  1  0.07062923  0.91222705  0.47956347  1
  O2-  O395  1  0.08944458  0.91771762  0.82328175  1
  O2-  O396  1  0.34676405  0.17671442  0.15244220  1
  O2-  O397  1  0.32872767  0.16614154  0.48305859  1
  O2-  O398  1  0.33150353  0.17178943  0.80358347  1
  O2-  O399  1  0.32534250  0.42023925  0.21239655  1
  O2-  O400  1  0.32700158  0.40466672  0.47824723  1
  O2-  O401  1  0.31913252  0.40910356  0.81573072  1
  O2-  O402  1  0.31678029  0.66533277  0.13763889  1
  O2-  O403  1  0.33576548  0.67674737  0.47772082  1
  O2-  O404  1  0.32247676  0.64488979  0.81812026  1
  O2-  O405  1  0.34002872  0.92217854  0.13947971  1
  O2-  O406  1  0.33229882  0.91251609  0.47857711  1
  O2-  O407  1  0.31806306  0.88622214  0.79829768  1
  O2-  O408  1  0.57769005  0.16929707  0.16953039  1
  O2-  O409  1  0.55812640  0.16085916  0.48245722  1
  O2-  O410  1  0.56470689  0.12974349  0.79473547  1
  O2-  O411  1  0.61667967  0.43038237  0.14168078  1
  O2-  O412  1  0.60172281  0.41848781  0.48478341  1
  O2-  O413  1  0.58279010  0.41951603  0.80821219  1
  O2-  O414  1  0.57944199  0.67059766  0.15249240  1
  O2-  O415  1  0.60398525  0.67696039  0.48605776  1
  O2-  O416  1  0.58220598  0.65132104  0.82837658  1
  O2-  O417  1  0.57837710  0.91746541  0.15215346  1
  O2-  O418  1  0.58690428  0.91705302  0.47526706  1
  O2-  O419  1  0.57906421  0.89489027  0.80206391  1
  O2-  O420  1  0.83049161  0.17297876  0.16290734  1
  O2-  O421  1  0.82293582  0.14303286  0.48550136  1
  O2-  O422  1  0.78722396  0.20206130  0.80366333  1
  O2-  O423  1  0.86998980  0.44179917  0.14552275  1
  O2-  O424  1  0.84931146  0.35464615  0.49186073  1
  O2-  O425  1  0.87266394  0.44321601  0.80245651  1
  O2-  O426  1  0.83918542  0.66214767  0.15535977  1
  O2-  O427  1  0.83874876  0.68372473  0.49116859  1
  O2-  O428  1  0.84604083  0.66680258  0.81726970  1
  O2-  O429  1  0.82798380  0.91007238  0.14774994  1
  O2-  O430  1  0.84240164  0.92586223  0.47002120  1
  O2-  O431  1  0.83299951  0.90359409  0.82156643  1
  O2-  O432  1  0.19311594  0.10674905  0.19789755  1
  O2-  O433  1  0.16039388  0.08152394  0.52212469  1
  O2-  O434  1  0.17344553  0.08436620  0.85733262  1
  O2-  O435  1  0.15444775  0.32147286  0.19850096  1
  O2-  O436  1  0.16631768  0.33413984  0.53175715  1
  O2-  O437  1  0.15157065  0.31661126  0.85612740  1
  O2-  O438  1  0.14795490  0.56840926  0.19393889  1
  O2-  O439  1  0.16224956  0.62760962  0.51452127  1
  O2-  O440  1  0.14462598  0.55712855  0.84140055  1
  O2-  O441  1  0.17512861  0.84608672  0.19122875  1
  O2-  O442  1  0.17392228  0.78466723  0.52756067  1
  O2-  O443  1  0.16737477  0.82472421  0.85228350  1
  O2-  O444  1  0.40842811  0.07722281  0.19497122  1
  O2-  O445  1  0.40259030  0.07864190  0.52561501  1
  O2-  O446  1  0.39771222  0.06928077  0.83199446  1
  O2-  O447  1  0.40603405  0.33749880  0.20589710  1
  O2-  O448  1  0.42389213  0.33893185  0.51443833  1
  O2-  O449  1  0.41096372  0.33266236  0.84521626  1
  O2-  O450  1  0.40154900  0.58993821  0.19015711  1
  O2-  O451  1  0.42685184  0.58738577  0.46641985  1
  O2-  O452  1  0.41128502  0.57458034  0.85792123  1
  O2-  O453  1  0.41201727  0.83172576  0.18777514  1
  O2-  O454  1  0.42820716  0.84379270  0.52058845  1
  O2-  O455  1  0.39595926  0.81426691  0.83705223  1
  O2-  O456  1  0.65644898  0.07914376  0.19862020  1
  O2-  O457  1  0.65762918  0.07622116  0.53668928  1
  O2-  O458  1  0.64927899  0.05609245  0.84785554  1
  O2-  O459  1  0.67517495  0.34111859  0.20794083  1
  O2-  O460  1  0.68029355  0.32600237  0.52761349  1
  O2-  O461  1  0.70664050  0.29082124  0.82042792  1
  O2-  O462  1  0.66994757  0.59268123  0.18432791  1
  O2-  O463  1  0.68028150  0.58753697  0.51962500  1
  O2-  O464  1  0.68035762  0.57678423  0.85561513  1
  O2-  O465  1  0.66588417  0.83742371  0.19113186  1
  O2-  O466  1  0.68333975  0.85040898  0.51386599  1
  O2-  O467  1  0.66097964  0.82259420  0.85972056  1
  O2-  O468  1  0.90640958  0.08077346  0.13332704  1
  O2-  O469  1  0.91054405  0.07801784  0.51271382  1
  O2-  O470  1  0.92830981  0.06681652  0.86527061  1
  O2-  O471  1  0.92762340  0.34747585  0.19154348  1
  O2-  O472  1  0.89480050  0.31140934  0.51522900  1
  O2-  O473  1  0.91968270  0.34267838  0.85459034  1
  O2-  O474  1  0.93016954  0.59017444  0.19234816  1
  O2-  O475  1  0.96775080  0.51691788  0.45818335  1
  O2-  O476  1  0.96112119  0.60451190  0.84443607  1
  O2-  O477  1  0.91303747  0.83054196  0.19496960  1
  O2-  O478  1  0.90890010  0.83598399  0.51528817  1
  O2-  O479  1  0.92104031  0.82681735  0.85797361  1
  O2-  O480  1  0.16991533  0.09409431  0.32204480  1
  O2-  O481  1  0.16471548  0.09401913  0.64622591  1
  O2-  O482  1  0.18477686  0.08915100  0.97933654  1
  O2-  O483  1  0.15660500  0.32647764  0.32316119  1
  O2-  O484  1  0.17380937  0.35680721  0.65104499  1
  O2-  O485  1  0.15699470  0.31860163  0.97590376  1
  O2-  O486  1  0.17920814  0.57563981  0.30707588  1
  O2-  O487  1  0.15083260  0.57103479  0.63807177  1
  O2-  O488  1  0.14834778  0.57823770  0.99302884  1
  O2-  O489  1  0.17552459  0.85014859  0.31534847  1
  O2-  O490  1  0.17204222  0.82029943  0.64197890  1
  O2-  O491  1  0.16950126  0.82335984  0.97958216  1
  O2-  O492  1  0.41730138  0.08178145  0.31848835  1
  O2-  O493  1  0.40697344  0.07856353  0.64776284  1
  O2-  O494  1  0.41864735  0.07179658  0.96183155  1
  O2-  O495  1  0.40826904  0.31816505  0.32805494  1
  O2-  O496  1  0.42651286  0.33210436  0.63205761  1
  O2-  O497  1  0.41292143  0.33136979  0.96766779  1
  O2-  O498  1  0.41556360  0.56689202  0.33179410  1
  O2-  O499  1  0.41736921  0.56352377  0.66841934  1
  O2-  O500  1  0.39343492  0.56766180  0.97413748  1
  O2-  O501  1  0.42020132  0.83331126  0.31042005  1
  O2-  O502  1  0.47269915  0.88836771  0.64138203  1
  O2-  O503  1  0.39733708  0.81072797  0.95554704  1
  O2-  O504  1  0.66844998  0.09301773  0.32375812  1
  O2-  O505  1  0.64536883  0.07302556  0.59436834  1
  O2-  O506  1  0.68076069  0.08221868  0.97235224  1
  O2-  O507  1  0.68194563  0.34630208  0.32815671  1
  O2-  O508  1  0.67284052  0.32327391  0.64981618  1
  O2-  O509  1  0.67986862  0.36924994  1.00694498  1
  O2-  O510  1  0.64659158  0.55075375  0.30567168  1
  O2-  O511  1  0.65612723  0.56430755  0.63302507  1
  O2-  O512  1  0.70252978  0.62321798  0.97532571  1
  O2-  O513  1  0.67367773  0.84868253  0.31709144  1
  O2-  O514  1  0.74450634  0.93410352  0.62208574  1
  O2-  O515  1  0.65598950  0.83856339  0.98050407  1
  O2-  O516  1  0.92624470  0.09135517  0.32733890  1
  O2-  O517  1  0.89908185  0.07785284  0.66761878  1
  O2-  O518  1  0.92996293  0.07238935  1.00331725  1
  O2-  O519  1  0.92841841  0.34926312  0.32030766  1
  O2-  O520  1  0.87271703  0.28766787  0.64185770  1
  O2-  O521  1  0.91870281  0.33399749  0.97177949  1
  O2-  O522  1  0.92940410  0.60449771  0.32214317  1
  O2-  O523  1  0.91742992  0.57946020  0.64376592  1
  O2-  O524  1  0.93662814  0.58756860  0.97647592  1
  O2-  O525  1  0.93202195  0.85312530  0.31541286  1
  O2-  O526  1  0.92325969  0.84133365  0.64837316  1
  O2-  O527  1  0.84323005  0.77858100  0.96719383  1
  O2-  O528  1  0.09654001  0.16147125  0.02385442  1
  O2-  O529  1  0.07582425  0.16090636  0.36832968  1
  O2-  O530  1  0.07949516  0.17843303  0.68904625  1
  O2-  O531  1  0.08021950  0.40363361  0.02103525  1
  O2-  O532  1  0.08654605  0.41906316  0.36582426  1
  O2-  O533  1  0.15350223  0.42360950  0.67036100  1
  O2-  O534  1  0.08532073  0.67426450  0.02698927  1
  O2-  O535  1  0.08754180  0.71389791  0.39025217  1
  O2-  O536  1  0.07284363  0.65391713  0.69953701  1
  O2-  O537  1  0.08656817  0.90653565  0.01043016  1
  O2-  O538  1  0.09251891  0.92880997  0.35950258  1
  O2-  O539  1  0.13217274  0.94244391  0.70631488  1
  O2-  O540  1  0.37759498  0.18232771  0.02301844  1
  O2-  O541  1  0.32948604  0.15682986  0.36232250  1
  O2-  O542  1  0.33012438  0.17024637  0.68300053  1
  O2-  O543  1  0.32293566  0.41496651  -0.00220900  1
  O2-  O544  1  0.32687488  0.39967322  0.35627240  1
  O2-  O545  1  0.31159607  0.39659493  0.69688842  1
  O2-  O546  1  0.32376045  0.65614582  0.01200601  1
  O2-  O547  1  0.34324355  0.67313316  0.35463910  1
  O2-  O548  1  0.28176843  0.56643653  0.70567093  1
  O2-  O549  1  0.40501973  0.94059968  0.02605386  1
  O2-  O550  1  0.34016279  0.91632830  0.35406217  1
  O2-  O551  1  0.33119447  0.91328827  0.68598904  1
  O2-  O552  1  0.54780366  0.22058343  0.05499104  1
  O2-  O553  1  0.58541751  0.17692217  0.35918833  1
  O2-  O554  1  0.57333336  0.14871794  0.67359204  1
  O2-  O555  1  0.57289859  0.44010274  0.01408788  1
  O2-  O556  1  0.57289134  0.39483795  0.36426656  1
  O2-  O557  1  0.58854743  0.40615372  0.68100652  1
  O2-  O558  1  0.59265852  0.67587977  0.03352860  1
  O2-  O559  1  0.61585589  0.66005394  0.36512238  1
  O2-  O560  1  0.58186300  0.64265771  0.70551765  1
  O2-  O561  1  0.55655237  0.93373185  0.02872035  1
  O2-  O562  1  0.58302150  0.92308696  0.35184450  1
  O2-  O563  1  0.63726063  0.96769194  0.68886254  1
  O2-  O564  1  0.85123960  0.17133652  -0.00410624  1
  O2-  O565  1  0.85042907  0.18728720  0.33553447  1
  O2-  O566  1  0.78995988  0.13631077  0.69845463  1
  O2-  O567  1  0.85510135  0.43307255  0.02811712  1
  O2-  O568  1  0.85827225  0.44220825  0.35845817  1
  O2-  O569  1  0.84152302  0.41787826  0.67938339  1
  O2-  O570  1  0.84682609  0.65401712  0.03289536  1
  O2-  O571  1  0.86017102  0.68855289  0.37082924  1
  O2-  O572  1  0.85012731  0.68172409  0.69049223  1
  O2-  O573  1  0.81838735  0.89956695  0.02415729  1
  O2-  O574  1  0.84328244  0.93660744  0.35497373  1
  O2-  O575  1  0.85019373  0.91500268  0.70285489  1
