# generated using pymatgen
data_H2O
_symmetry_space_group_name_H-M   'P 1'
_cell_length_a   17.97193454
_cell_length_b   17.97768856
_cell_length_c   21.98447242
_cell_angle_alpha   89.99918434
_cell_angle_beta   90.01167358
_cell_angle_gamma   119.95634839
_symmetry_Int_Tables_number   1
_chemical_formula_structural   H2O
_chemical_formula_sum   'H384 O192'
_cell_volume   6154.12355130
_cell_formula_units_Z   192
loop_
 _symmetry_equiv_pos_site_id
 _symmetry_equiv_pos_as_xyz
  1  'x, y, z'
loop_
 _atom_type_symbol
 _atom_type_oxidation_number
  H+  1.0
  O2-  -2.0
loop_
 _atom_site_type_symbol
 _atom_site_label
 _atom_site_symmetry_multiplicity
 _atom_site_fract_x
 _atom_site_fract_y
 _atom_site_fract_z
 _atom_site_occupancy
  H+  H0  1  0.64818117  1.01741348  0.50666388  1
  H+  H1  1  0.47191693  0.32830382  0.31579115  1
  H+  H2  1  0.87936938  0.86071257  0.82024155  1
  H+  H3  1  0.89817704  0.50729798  1.06854393  1
  H+  H4  1  0.10905734  0.37361483  0.81763275  1
  H+  H5  1  0.40701007  0.25704050  0.82110670  1
  H+  H6  1  0.52559797  0.88476635  0.82111294  1
  H+  H7  1  0.48564811  0.37710821  0.83348998  1
  H+  H8  1  0.73572968  0.33118091  0.21806269  1
  H+  H9  1  0.64807731  0.34308510  0.29440865  1
  H+  H10  1  0.60427895  0.12616826  0.00544318  1
  H+  H11  1  0.12224562  0.46688109  0.82296020  1
  H+  H12  1  -0.10240868  0.85793341  0.16151337  1
  H+  H13  1  0.62450004  0.47615911  0.01495679  1
  H+  H14  1  0.48776175  0.13038379  0.66510726  1
  H+  H15  1  0.65458805  0.27521811  0.84182299  1
  H+  H16  1  0.37138299  0.64909538  0.66984034  1
  H+  H17  1  0.86583259  0.37350794  0.18211837  1
  H+  H18  1  0.86813210  0.49776289  0.35262039  1
  H+  H19  1  0.22140154  0.09698288  -0.03517768  1
  H+  H20  1  0.07673095  0.78793028  0.18587828  1
  H+  H21  1  0.37744510  0.38246564  0.32954448  1
  H+  H22  1  0.34500771  0.11043950  -0.01442791  1
  H+  H23  1  0.14228235  0.02924028  0.66982232  1
  H+  H24  1  0.16966409  0.63141058  0.49522369  1
  H+  H25  1  0.39268698  0.27967664  0.65106965  1
  H+  H26  1  0.90998681  0.85152066  0.62212861  1
  H+  H27  1  0.15304605  0.52347297  0.32169142  1
  H+  H28  1  0.33363987  0.12606460  0.35313276  1
  H+  H29  1  0.33510307  0.66844175  0.05266723  1
  H+  H30  1  0.87487571  0.77751816  0.52831683  1
  H+  H31  1  0.87657023  0.39630501  0.67229789  1
  H+  H32  1  0.04514532  0.40165425  0.49162079  1
  H+  H33  1  0.62535545  0.75548099  0.50005883  1
  H+  H34  1  0.98717081  0.83901337  0.31586991  1
  H+  H35  1  0.09365308  0.97225742  0.84009016  1
  H+  H36  1  0.38909913  0.01995776  0.98034955  1
  H+  H37  1  0.11302507  0.88514205  0.34537337  1
  H+  H38  1  0.73235802  0.34774240  0.49171519  1
  H+  H39  1  0.11816949  0.10100277  0.32437621  1
  H+  H40  1  0.84679715  0.63700477  0.50151560  1
  H+  H41  1  0.95587902  0.87012429  0.52041763  1
  H+  H42  1  0.72949876  0.61379900  0.99045258  1
  H+  H43  1  0.82981896  0.16966321  0.76673340  1
  H+  H44  1  0.64963365  0.77019678  0.67199980  1
  H+  H45  1  0.87313320  1.02843207  0.33373579  1
  H+  H46  1  0.63077098  0.85582440  0.51382175  1
  H+  H47  1  0.36741355  0.39530587  0.81910032  1
  H+  H48  1  0.23179616  0.87965654  0.66238483  1
  H+  H49  1  0.63523083  0.77849338  -0.01933242  1
  H+  H50  1  0.97291148  0.35525614  0.99888347  1
  H+  H51  1  0.85758179  0.22156810  0.16342828  1
  H+  H52  1  -0.02982368  0.62897675  0.67852550  1
  H+  H53  1  0.76126590  0.27014221  0.06486172  1
  H+  H54  1  0.61853412  0.64410110  0.15452852  1
  H+  H55  1  0.36732314  0.42656557  0.42295760  1
  H+  H56  1  0.93877569  0.58519071  0.20488710  1
  H+  H57  1  0.97140081  0.11157910  0.67644452  1
  H+  H58  1  0.92057177  0.38312467  0.48594358  1
  H+  H59  1  0.84268335  0.44998915  0.18391704  1
  H+  H60  1  0.87536210  0.32606315  0.90213422  1
  H+  H61  1  0.37157858  0.14485270  0.66839081  1
  H+  H62  1  0.39347863  0.78139108  0.66473794  1
  H+  H63  1  0.99521867  0.37820353  0.33404442  1
  H+  H64  1  0.85175055  0.14185120  0.67498518  1
  H+  H65  1  0.27837643  0.63691566  0.33273569  1
  H+  H66  1  0.98070822  0.33842546  0.18061729  1
  H+  H67  1  0.08986591  0.69781419  0.34816355  1
  H+  H68  1  0.63692948  0.01949161  0.83707588  1
  H+  H69  1  0.72643961  0.62455686  0.52140373  1
  H+  H70  1  0.42674859  0.13469874  0.83000139  1
  H+  H71  1  0.20288025  0.14083103  0.16676636  1
  H+  H72  1  -0.07437344  0.58968320  0.53994178  1
  H+  H73  1  0.48098292  0.10896694  0.51064226  1
  H+  H74  1  0.47334111  0.11073462  0.98890895  1
  H+  H75  1  0.10823799  0.46741361  0.01120186  1
  H+  H76  1  0.13255400  0.38828093  0.34087358  1
  H+  H77  1  0.06651821  0.28321268  0.13107026  1
  H+  H78  1  0.14191611  0.78922719  -0.01402149  1
  H+  H79  1  0.57775970  0.58281741  0.85796056  1
  H+  H80  1  0.11358146  0.89888343  -0.00046677  1
  H+  H81  1  0.51231703  0.90220574  0.67286525  1
  H+  H82  1  0.38574523  0.86860428  0.66223329  1
  H+  H83  1  0.62430576  0.13017422  0.66954659  1
  H+  H84  1  0.85870318  -0.02642131  0.99060228  1
  H+  H85  1  0.13867131  0.60374231  0.32178951  1
  H+  H86  1  0.72327173  0.86688465  0.98292502  1
  H+  H87  1  0.62616541  1.00266498  0.17187448  1
  H+  H88  1  0.84960500  0.62387931  0.16055050  1
  H+  H89  1  0.60581067  0.48454283  0.16213887  1
  H+  H90  1  0.44817087  0.93080301  0.29578988  1
  H+  H91  1  0.11993111  0.11876921  0.84723458  1
  H+  H92  1  0.90543354  0.28857099  0.49703226  1
  H+  H93  1  0.72242096  0.61300985  0.68296645  1
  H+  H94  1  0.51800642  0.62724223  0.67707545  1
  H+  H95  1  0.88871546  0.88729664  0.69412967  1
  H+  H96  1  0.36447345  0.64381538  0.99153572  1
  H+  H97  1  0.56533029  0.24159082  0.70197987  1
  H+  H98  1  0.02798714  0.91651258  0.13826755  1
  H+  H99  1  0.39796281  0.12137822  0.51057675  1
  H+  H100  1  0.52695686  0.64435313  -0.00011673  1
  H+  H101  1  0.72185723  0.85366369  0.50999826  1
  H+  H102  1  0.61898262  0.25928856  0.99280286  1
  H+  H103  1  0.18166396  0.75168909  0.84629674  1
  H+  H104  1  0.52943492  0.14132010  0.16296896  1
  H+  H105  1  0.77507670  0.12907340  0.82673791  1
  H+  H106  1  0.39240405  0.36835686  0.65153926  1
  H+  H107  1  0.87910590  0.34258579  0.01057588  1
  H+  H108  1  0.72366320  0.61450244  0.16547532  1
  H+  H109  1  0.71606155  0.61636433  0.32533049  1
  H+  H110  1  0.38603262  0.53614473  0.99093206  1
  H+  H111  1  0.11241409  0.80956277  0.51683734  1
  H+  H112  1  0.22887975  0.36821739  0.98696226  1
  H+  H113  1  0.96854024  0.09277277  0.51116127  1
  H+  H114  1  0.44616896  0.25060485  0.07587549  1
  H+  H115  1  0.38292611  0.86021317  0.34062921  1
  H+  H116  1  0.75972087  0.40110386  0.82340993  1
  H+  H117  1  0.47264160  0.61624325  0.83667986  1
  H+  H118  1  0.87875953  0.10544675  0.98143175  1
  H+  H119  1  0.84907062  0.27211015  0.84333053  1
  H+  H120  1  0.57942110  0.42039268  0.10552984  1
  H+  H121  1  0.39601121  0.61574836  0.16439786  1
  H+  H122  1  0.36522755  0.38935576  0.15851327  1
  H+  H123  1  0.22442501  0.61081863  0.98783719  1
  H+  H124  1  0.86419914  0.72847319  -0.00389854  1
  H+  H125  1  0.57650717  0.91468515  0.09062480  1
  H+  H126  1  0.36506631  0.64046887  0.82555225  1
  H+  H127  1  0.11132275  0.89822233  0.83149011  1
  H+  H128  1  0.47685541  0.25304229  0.78339030  1
  H+  H129  1  0.86794088  -0.01782835  0.70786961  1
  H+  H130  1  0.86579881  0.71916868  0.15077656  1
  H+  H131  1  0.96103223  0.75188387  0.28336232  1
  H+  H132  1  0.29559125  0.64730112  0.49013998  1
  H+  H133  1  0.19205026  0.33030100  0.52315854  1
  H+  H134  1  0.92481370  0.81979127  0.21895039  1
  H+  H135  1  0.58739403  0.49878391  0.85366995  1
  H+  H136  1  0.88634757  0.48753481  0.46168975  1
  H+  H137  1  0.40798519  0.78521321  0.50954855  1
  H+  H138  1  0.85500458  0.50654742  0.81664578  1
  H+  H139  1  0.87156937  0.97533655  0.14993514  1
  H+  H140  1  0.35093573  0.67392644  0.42892795  1
  H+  H141  1  0.10489453  -0.03018552  0.33271097  1
  H+  H142  1  1.01629824  0.13540573  0.98298017  1
  H+  H143  1  0.52480118  0.89252596  0.35060422  1
  H+  H144  1  0.39794325  0.26254971  0.13169139  1
  H+  H145  1  0.20592756  0.81992699  0.34138375  1
  H+  H146  1  0.61905176  0.38619179  0.82907467  1
  H+  H147  1  0.34895316  -0.00722094  0.48755642  1
  H+  H148  1  0.60557584  0.62322712  0.68255140  1
  H+  H149  1  0.94485404  0.59115040  0.33376152  1
  H+  H150  1  0.10294077  0.57865556  0.81546775  1
  H+  H151  1  0.39897075  0.61971746  0.50174389  1
  H+  H152  1  0.28216936  0.63011101  0.14935207  1
  H+  H153  1  0.84010422  0.66684734  0.05594536  1
  H+  H154  1  0.38656123  0.77649648  0.98539683  1
  H+  H155  1  0.37508576  1.00691429  0.15532713  1
  H+  H156  1  0.63406808  0.86208314  0.33115826  1
  H+  H157  1  0.47777529  0.86519638  0.98684095  1
  H+  H158  1  0.65784619  0.11874988  0.27293448  1
  H+  H159  1  0.65614233  0.83232249  0.26715667  1
  H+  H160  1  0.64690834  0.11368431  0.83482954  1
  H+  H161  1  0.74392169  0.11529466  0.49751396  1
  H+  H162  1  0.11219031  0.89151760  0.68029820  1
  H+  H163  1  0.82854239  0.51606337  0.55298182  1
  H+  H164  1  0.48718332  0.61953814  0.16721716  1
  H+  H165  1  0.26924129  0.37412143  0.67061498  1
  H+  H166  1  0.39251403  0.87029566  0.83374965  1
  H+  H167  1  0.61635518  0.97325785  0.35965839  1
  H+  H168  1  0.61747380  0.88756737  0.81444430  1
  H+  H169  1  1.02956529  0.64996461  0.98237939  1
  H+  H170  1  0.04630406  0.66630178  0.59935701  1
  H+  H171  1  0.53600750  0.37187477  0.49143757  1
  H+  H172  1  0.86008098  0.21676214  0.00202899  1
  H+  H173  1  0.87973164  0.12012800  0.32728744  1
  H+  H174  1  0.48587961  0.11819155  0.36286522  1
  H+  H175  1  0.03155652  0.12238930  0.83839696  1
  H+  H176  1  0.50166935  0.40751929  0.98543180  1
  H+  H177  1  0.14162425  0.41570494  0.49536949  1
  H+  H178  1  0.63520581  0.61484892  0.52203832  1
  H+  H179  1  0.85805223  0.23334107  0.67015625  1
  H+  H180  1  0.01537537  0.13245049  0.34164916  1
  H+  H181  1  0.29375572  0.92209862  0.83025099  1
  H+  H182  1  0.07176783  0.66267677  0.14863001  1
  H+  H183  1  0.08674988  0.91969544  0.49403524  1
  H+  H184  1  0.09310123  0.17001520  0.14492250  1
  H+  H185  1  0.38364785  0.52575958  0.83368702  1
  H+  H186  1  0.61530606  0.64249954  0.00501024  1
  H+  H187  1  0.42303314  0.37871878  0.49898875  1
  H+  H188  1  0.54961078  0.14446109  0.82287000  1
  H+  H189  1  0.93158779  0.33330026  0.24319360  1
  H+  H190  1  0.25930528  0.40197042  0.18260757  1
  H+  H191  1  0.14445055  0.78912296  0.66192843  1
  H+  H192  1  0.63330562  0.62495124  0.31886428  1
  H+  H193  1  0.61317076  0.38134642  0.01105787  1
  H+  H194  1  0.41155390  0.15302069  0.14562272  1
  H+  H195  1  0.53054113  0.38703358  0.67461426  1
  H+  H196  1  0.96257364  0.85153326  0.83075479  1
  H+  H197  1  0.84868479  0.88109853  0.50613287  1
  H+  H198  1  0.23521862  0.61254376  0.83646014  1
  H+  H199  1  0.37224789  0.71898039  0.32706928  1
  H+  H200  1  0.96712626  0.86118573  0.97196224  1
  H+  H201  1  0.19749833  0.90386441  0.91023344  1
  H+  H202  1  0.42015057  0.83858594  0.89298842  1
  H+  H203  1  0.08853840  0.24537781  0.49980612  1
  H+  H204  1  0.64603867  0.11171194  0.50136423  1
  H+  H205  1  0.13595886  0.61058708  0.98059485  1
  H+  H206  1  0.84624211  0.08359594  0.17480234  1
  H+  H207  1  0.61730262  0.85553173  0.17534499  1
  H+  H208  1  0.89069543  0.02146121  0.82203923  1
  H+  H209  1  0.11332966  0.38530343  0.67262894  1
  H+  H210  1  0.72021892  0.10961883  -0.00965217  1
  H+  H211  1  0.62608868  0.21640906  0.49711894  1
  H+  H212  1  0.70950245  0.33598613  1.00611234  1
  H+  H213  1  0.24738646  0.92597006  0.48218508  1
  H+  H214  1  0.60453326  1.00779794  0.67594515  1
  H+  H215  1  0.57520679  0.65659507  0.76983158  1
  H+  H216  1  0.28600254  0.92532206  0.14258846  1
  H+  H217  1  0.30473384  0.87650422  0.41921145  1
  H+  H218  1  0.76155572  0.88428931  0.34123636  1
  H+  H219  1  0.18856753  0.76265343  0.81302459  1
  H+  H220  1  0.89039793  0.62630991  0.97834505  1
  H+  H221  1  0.51044882  0.88452931  0.14755087  1
  H+  H222  1  0.86807130  0.48213703  0.67360630  1
  H+  H223  1  0.38119467  0.52009163  0.65601944  1
  H+  H224  1  0.71087383  0.12531326  0.66770944  1
  H+  H225  1  0.73478669  0.85265780  0.68887937  1
  H+  H226  1  0.64386306  0.25127272  0.20806403  1
  H+  H227  1  0.14564861  0.58938200  0.15912349  1
  H+  H228  1  0.15488176  0.53662777  0.49908371  1
  H+  H229  1  0.48067606  0.37608364  0.16842460  1
  H+  H230  1  0.85430406  0.70757812  0.34574319  1
  H+  H231  1  0.16444536  0.79349551  0.17574755  1
  H+  H232  1  0.37622148  0.48476295  0.15720167  1
  H+  H233  1  0.21043780  0.98832176  0.87636374  1
  H+  H234  1  0.24028871  0.35169130  0.32971839  1
  H+  H235  1  0.10852626  0.51303346  0.65081265  1
  H+  H236  1  0.60679564  0.73104930  0.33913199  1
  H+  H237  1  0.61185441  0.72345680  0.82505120  1
  H+  H238  1  0.36618068  0.73078045  0.82513284  1
  H+  H239  1  0.37375380  0.25869941  0.31895001  1
  H+  H240  1  0.38555527  0.60185355  0.31883753  1
  H+  H241  1  0.24862439  0.17071468  0.52816615  1
  H+  H242  1  0.85379664  0.89303891  0.34291028  1
  H+  H243  1  0.58605872  0.15602151  0.34331310  1
  H+  H244  1  0.61079718  0.97647029  -0.00052057  1
  H+  H245  1  0.77799090  0.17347303  0.33808206  1
  H+  H246  1  0.76468434  0.13869762  0.15486153  1
  H+  H247  1  0.73596036  0.87003797  0.82155246  1
  H+  H248  1  0.52539789  0.64247251  0.49344286  1
  H+  H249  1  0.37347505  0.47058698  0.32882970  1
  H+  H250  1  0.33816321  0.01131313  0.39396341  1
  H+  H251  1  0.11146184  0.25380768  0.46967225  1
  H+  H252  1  0.37997465  0.41975199  -0.00236144  1
  H+  H253  1  0.53064068  0.89092617  0.51043106  1
  H+  H254  1  0.85517048  0.50508082  0.06802995  1
  H+  H255  1  0.36889230  0.88801083  -0.00103877  1
  H+  H256  1  0.10528006  0.13633579  0.97705416  1
  H+  H257  1  0.83622681  0.61349821  0.35694878  1
  H+  H258  1  0.38845787  0.99332160  0.82060704  1
  H+  H259  1  0.36978797  0.98799286  0.67280795  1
  H+  H260  1  0.37783236  0.86704292  0.16835421  1
  H+  H261  1  0.31713151  0.41119101  0.48561059  1
  H+  H262  1  0.89532960  0.61830490  0.63447326  1
  H+  H263  1  0.38374535  0.23782596  0.49537463  1
  H+  H264  1  0.62808871  0.36136543  0.49071535  1
  H+  H265  1  -0.01580199  0.88116262  0.67722731  1
  H+  H266  1  -0.02368397  0.58002407  0.82537176  1
  H+  H267  1  0.23234213  0.11876208  0.67289063  1
  H+  H268  1  0.62282232  0.76985021  0.17755744  1
  H+  H269  1  0.61216941  0.88754961  0.99676077  1
  H+  H270  1  0.15174793  0.37621071  0.17825931  1
  H+  H271  1  0.36575365  0.72249677  0.14661442  1
  H+  H272  1  0.90802352  0.38303651  0.34432787  1
  H+  H273  1  0.11359211  1.05616896  0.15566231  1
  H+  H274  1  0.74612335  0.35012956  0.64451236  1
  H+  H275  1  0.61947480  0.47275361  0.67965611  1
  H+  H276  1  0.11323351  0.12567568  0.50048759  1
  H+  H277  1  0.12222147  0.00783653  0.96530772  1
  H+  H278  1  0.16937291  0.33205520  0.89111007  1
  H+  H279  1  0.14540647  0.26563535  0.32708724  1
  H+  H280  1  0.60567670  0.12034576  0.16520322  1
  H+  H281  1  0.07816263  0.65472546  0.72941450  1
  H+  H282  1  0.55691168  0.26533227  0.36088699  1
  H+  H283  1  0.12944230  0.25442520  0.67912618  1
  H+  H284  1  0.84457275  0.72326715  0.80835175  1
  H+  H285  1  0.87322153  0.01931522  0.51498884  1
  H+  H286  1  0.28260445  0.78010094  0.40796885  1
  H+  H287  1  0.85371638  0.63840426  0.72202304  1
  H+  H288  1  0.79704742  0.35854550  0.09760949  1
  H+  H289  1  0.68771344  0.21610341  0.28294290  1
  H+  H290  1  0.02911550  0.51971269  0.76953808  1
  H+  H291  1  0.86913928  0.05272032  0.23554208  1
  H+  H292  1  0.07289333  0.18121123  0.07626796  1
  H+  H293  1  0.82773848  0.15581665  0.05992408  1
  H+  H294  1  0.58698002  0.91210006  0.44921617  1
  H+  H295  1  0.14744112  0.79712145  0.28100709  1
  H+  H296  1  0.14957732  0.57907526  0.59514252  1
  H+  H297  1  0.57857377  0.15616499  0.06712553  1
  H+  H298  1  0.05192907  0.03476488  0.47207447  1
  H+  H299  1  0.33270144  0.41474669  0.72660911  1
  H+  H300  1  0.34180571  0.67692313  0.72938582  1
  H+  H301  1  0.23180354  0.87537279  0.99822998  1
  H+  H302  1  0.58010260  0.15478980  0.44084398  1
  H+  H303  1  0.50038662  0.46916458  0.93509078  1
  H+  H304  1  0.42666861  0.84030766  0.57076151  1
  H+  H305  1  0.13906891  0.28840555  0.61325905  1
  H+  H306  1  0.82116034  0.90799542  0.44258312  1
  H+  H307  1  0.68883826  0.31810514  0.56243100  1
  H+  H308  1  0.87087844  0.14078176  0.48929963  1
  H+  H309  1  0.42673869  0.08908235  0.60519382  1
  H+  H310  1  0.32942330  0.17213442  0.44294647  1
  H+  H311  1  0.31665281  0.15597851  0.03638357  1
  H+  H312  1  0.18137834  0.58299332  0.22399426  1
  H+  H313  1  0.90048908  0.82419068  0.91658450  1
  H+  H314  1  0.57999094  0.93182184  0.73374924  1
  H+  H315  1  0.87490574  0.24833232  0.34127253  1
  H+  H316  1  0.92154377  0.58950900  0.88108836  1
  H+  H317  1  0.14881728  0.08043902  0.26204058  1
  H+  H318  1  0.08432076  0.66438128  0.04227843  1
  H+  H319  1  0.11167113  0.38183853  0.00228001  1
  H+  H320  1  0.51952203  0.63850762  0.33750100  1
  H+  H321  1  0.15978010  0.87061828  0.57058325  1
  H+  H322  1  0.44221726  0.34556362  0.56247658  1
  H+  H323  1  0.33647843  0.42469772  0.06038998  1
  H+  H324  1  0.41154017  0.32424135  0.22206840  1
  H+  H325  1  0.18790041  0.14019717  0.58554612  1
  H+  H326  1  0.17351524  0.57539896  0.89648775  1
  H+  H327  1  0.08211740  0.92163916  0.74083147  1
  H+  H328  1  0.66774879  0.59448432  0.22729229  1
  H+  H329  1  -0.00775687  0.97004302  0.11132020  1
  H+  H330  1  0.13982707  0.27766723  0.98234350  1
  H+  H331  1  0.19192322  0.36060037  0.24584935  1
  H+  H332  1  0.35231755  0.93058307  0.05835255  1
  H+  H333  1  0.08591285  0.41617047  0.73248758  1
  H+  H334  1  0.25129714  0.13361505  0.34000343  1
  H+  H335  1  0.58104240  0.36638063  0.42579121  1
  H+  H336  1  0.67895334  0.84498690  0.88324977  1
  H+  H337  1  0.60324791  0.18339614  0.76207496  1
  H+  H338  1  0.43811263  0.09224477  0.89100253  1
  H+  H339  1  0.92748957  0.34622870  0.59750764  1
  H+  H340  1  0.67470745  0.58883681  0.61680107  1
  H+  H341  1  0.98300461  0.36786779  0.65848235  1
  H+  H342  1  0.01516560  0.56981084  0.11945970  1
  H+  H343  1  0.66128987  0.08070214  0.93063553  1
  H+  H344  1  0.14289543  0.26247730  0.83872361  1
  H+  H345  1  0.36029840  0.19006571  0.72606792  1
  H+  H346  1  0.05172957  0.61824217  0.39404382  1
  H+  H347  1  0.58844111  0.67693226  0.09586990  1
  H+  H348  1  0.34898877  0.01394659  0.32200529  1
  H+  H349  1  0.42983396  0.36232579  0.89248749  1
  H+  H350  1  0.81666373  0.43005766  0.75719066  1
  H+  H351  1  0.41921033  0.58341095  0.59902509  1
  H+  H352  1  0.87112507  0.55148962  0.25739749  1
  H+  H353  1  0.04861160  0.91634811  0.42909217  1
  H+  H354  1  0.84045401  0.17308598  0.42921618  1
  H+  H355  1  0.33698211  0.92756307  0.73147583  1
  H+  H356  1  0.08154505  0.37174477  0.10077645  1
  H+  H357  1  0.86037031  0.92964188  0.08408074  1
  H+  H358  1  0.23687354  0.40839168  0.56805089  1
  H+  H359  1  0.70443914  0.04337246  0.21654937  1
  H+  H360  1  0.65156026  0.26031016  0.64740052  1
  H+  H361  1  0.08420154  0.15550670  0.75078987  1
  H+  H362  1  0.89131599  0.11179448  0.82851942  1
  H+  H363  1  0.41655326  0.58807392  0.92798535  1
  H+  H364  1  0.27415239  0.38658020  0.82036481  1
  H+  H365  1  0.67525567  0.33144440  0.90323712  1
  H+  H366  1  0.40788778  0.53419967  0.49812207  1
  H+  H367  1  0.85448338  0.88237099  0.99011534  1
  H+  H368  1  0.10879760  0.42819269  0.39783295  1
  H+  H369  1  0.09830769  0.63262946  0.66579993  1
  H+  H370  1  0.41546472  0.12939507  0.21498643  1
  H+  H371  1  0.07188327  0.13876300  0.39974129  1
  H+  H372  1  0.07173289  0.94290567  0.04346725  1
  H+  H373  1  0.82504424  0.67584542  0.44454927  1
  H+  H374  1  0.06266989  0.65050835  0.53337977  1
  H+  H375  1  0.11174951  0.13047416  0.68860704  1
  H+  H376  1  0.42166758  0.58012377  0.25879551  1
  H+  H377  1  0.64739249  0.57028327  0.94431605  1
  H+  H378  1  0.40680087  0.83071530  0.22358587  1
  H+  H379  1  0.89356214  0.53996009  0.97223935  1
  H+  H380  1  0.58320977  0.67235003  0.43133866  1
  H+  H381  1  0.90842852  0.07694232  0.91990041  1
  H+  H382  1  0.59093897  0.41427153  0.76599427  1
  H+  H383  1  0.91189225  0.07624750  0.61774438  1
  O2-  O384  1  0.06517192  0.19359577  0.11902640  1
  O2-  O385  1  0.06076347  0.09368193  0.47392870  1
  O2-  O386  1  0.09378852  0.15121685  0.82753372  1
  O2-  O387  1  0.07467033  0.34230181  0.14076181  1
  O2-  O388  1  0.10608224  0.43761035  0.47676298  1
  O2-  O389  1  0.08573700  0.41033172  0.80324102  1
  O2-  O390  1  0.07187787  0.62137649  0.11906847  1
  O2-  O391  1  0.02961031  0.66948755  0.55729274  1
  O2-  O392  1  0.05477578  0.57607912  0.78884239  1
  O2-  O393  1  0.04799005  0.96852368  0.11288666  1
  O2-  O394  1  0.04330549  0.92848849  0.47258982  1
  O2-  O395  1  0.07028234  0.91632888  0.81701522  1
  O2-  O396  1  0.39624155  0.21741023  0.10193770  1
  O2-  O397  1  0.34441736  0.17558239  0.48662117  1
  O2-  O398  1  0.41722529  0.21585507  0.79598412  1
  O2-  O399  1  0.33640883  0.42286516  0.14535229  1
  O2-  O400  1  0.37529370  0.43348855  0.46840439  1
  O2-  O401  1  0.33390777  0.42231446  0.80386957  1
  O2-  O402  1  0.34202673  0.66319083  0.13144778  1
  O2-  O403  1  0.35548671  0.67801990  0.47407702  1
  O2-  O404  1  0.33423455  0.67033771  0.81002848  1
  O2-  O405  1  0.34743740  0.94546252  0.14213837  1
  O2-  O406  1  0.30272230  0.94999300  0.45962499  1
  O2-  O407  1  0.34724224  0.93174426  0.80994326  1
  O2-  O408  1  0.59041731  0.16287798  0.15124433  1
  O2-  O409  1  0.59335800  0.15393623  0.48508793  1
  O2-  O410  1  0.61005190  0.17670714  0.80751358  1
  O2-  O411  1  0.57302108  0.42240284  0.15034142  1
  O2-  O412  1  0.59350320  0.38769362  0.46954512  1
  O2-  O413  1  0.58582222  0.41228325  0.81229510  1
  O2-  O414  1  0.58597063  0.67352351  0.14121827  1
  O2-  O415  1  0.58661238  0.67480140  0.47742791  1
  O2-  O416  1  0.57433239  0.66150737  0.81593126  1
  O2-  O417  1  0.57213366  0.91453289  0.13639936  1
  O2-  O418  1  0.59373584  0.91899006  0.49420212  1
  O2-  O419  1  0.58496526  0.91787238  0.80352034  1
  O2-  O420  1  0.82462613  0.16683141  0.14033924  1
  O2-  O421  1  0.83877870  0.16988836  0.47497970  1
  O2-  O422  1  0.83511029  0.16349461  0.81127960  1
  O2-  O423  1  0.82082331  0.38892215  0.17209385  1
  O2-  O424  1  0.91513563  0.46128301  0.43927276  1
  O2-  O425  1  0.80044297  0.44986329  0.79532616  1
  O2-  O426  1  0.83178100  0.65839826  0.13597101  1
  O2-  O427  1  0.83069998  0.68043692  0.49002658  1
  O2-  O428  1  0.80914185  0.66135515  0.79546406  1
  O2-  O429  1  0.88971313  0.94079287  0.12453398  1
  O2-  O430  1  0.81717266  0.90879151  0.48780350  1
  O2-  O431  1  0.84506434  0.92224936  0.79013416  1
  O2-  O432  1  0.14439669  0.10841013  0.18231349  1
  O2-  O433  1  0.20011676  0.17344358  0.54709038  1
  O2-  O434  1  0.16429903  0.06274449  0.87934237  1
  O2-  O435  1  0.20587748  0.39565851  0.20673598  1
  O2-  O436  1  0.22234997  0.39316654  0.52528134  1
  O2-  O437  1  0.16955247  0.32556807  0.84601029  1
  O2-  O438  1  0.18646950  0.57655956  0.17969579  1
  O2-  O439  1  0.19051674  0.59727333  0.51558412  1
  O2-  O440  1  0.17478594  0.57299637  0.85102781  1
  O2-  O441  1  0.11056518  0.76146767  0.19811805  1
  O2-  O442  1  0.14849258  0.87075702  0.52594396  1
  O2-  O443  1  0.21167944  0.93395986  0.87031201  1
  O2-  O444  1  0.42324205  0.11472677  0.17362196  1
  O2-  O445  1  0.42012902  0.08257029  0.52359867  1
  O2-  O446  1  0.44597846  0.09494885  0.84579132  1
  O2-  O447  1  0.41506844  0.33691180  0.17759003  1
  O2-  O448  1  0.44812795  0.34456378  0.51655455  1
  O2-  O449  1  0.42413918  0.34962859  0.84784852  1
  O2-  O450  1  0.42566365  0.58612587  0.18215530  1
  O2-  O451  1  0.42958337  0.59069232  0.51896107  1
  O2-  O452  1  0.41147007  0.58475686  0.85178178  1
  O2-  O453  1  0.40405053  0.83164231  0.17897670  1
  O2-  O454  1  0.43602060  0.84451838  0.52570430  1
  O2-  O455  1  0.42184671  0.83831489  0.84746994  1
  O2-  O456  1  0.66365310  0.05692461  0.19680335  1
  O2-  O457  1  0.68158222  0.08301774  0.51419861  1
  O2-  O458  1  0.66918306  0.07833481  0.85484962  1
  O2-  O459  1  0.68171613  0.29022623  0.24039016  1
  O2-  O460  1  0.67698737  0.32206083  0.51250193  1
  O2-  O461  1  0.67521266  0.33466946  0.85801667  1
  O2-  O462  1  0.66423203  0.58989363  0.18113946  1
  O2-  O463  1  0.66890039  0.59132092  0.54048876  1
  O2-  O464  1  0.57878546  0.53647312  0.88258653  1
  O2-  O465  1  0.64264534  0.82621652  0.19801311  1
  O2-  O466  1  0.65816500  0.81920096  0.52148611  1
  O2-  O467  1  0.67593849  0.84142142  0.83798061  1
  O2-  O468  1  0.83827631  0.03194519  0.19637558  1
  O2-  O469  1  0.91133869  0.08023545  0.52697566  1
  O2-  O470  1  0.91928960  0.07885684  0.84361378  1
  O2-  O471  1  0.92404850  0.32353578  0.19818566  1
  O2-  O472  1  0.93924686  0.34894566  0.51108033  1
  O2-  O473  1  0.84867350  0.32146562  0.86240394  1
  O2-  O474  1  0.87679686  0.55510157  0.21064247  1
  O2-  O475  1  0.86774587  0.55295718  0.52141116  1
  O2-  O476  1  0.92201997  0.57960424  0.83661514  1
  O2-  O477  1  0.92479858  0.82335124  0.17386196  1
  O2-  O478  1  0.90124474  0.83784044  0.54398925  1
  O2-  O479  1  0.90003128  0.82300484  0.84036349  1
  O2-  O480  1  0.14941144  0.07224799  0.30671466  1
  O2-  O481  1  0.17113823  0.09130659  0.65911288  1
  O2-  O482  1  0.15750882  0.07095928  0.94624819  1
  O2-  O483  1  0.17977402  0.32684441  0.31423560  1
  O2-  O484  1  0.15712738  0.31016270  0.65437962  1
  O2-  O485  1  0.16905446  0.33954089  0.97060339  1
  O2-  O486  1  0.17854108  0.58453285  0.30710296  1
  O2-  O487  1  0.10965262  0.56271883  0.62971639  1
  O2-  O488  1  0.16332958  0.57501966  0.97395512  1
  O2-  O489  1  0.14839927  0.80528424  0.32550311  1
  O2-  O490  1  0.17002098  0.84941631  0.64801436  1
  O2-  O491  1  0.17223882  0.85319732  0.98254106  1
  O2-  O492  1  0.36959481  0.04932806  0.35850056  1
  O2-  O493  1  0.42513995  0.09187419  0.65026576  1
  O2-  O494  1  0.41706303  0.08137335  0.96689199  1
  O2-  O495  1  0.41491881  0.31617704  0.30099035  1
  O2-  O496  1  0.42484721  0.34042910  0.63611549  1
  O2-  O497  1  0.46129181  0.41731412  0.95964361  1
  O2-  O498  1  0.41813158  0.57414050  0.30445823  1
  O2-  O499  1  0.41433285  0.58168511  0.64411340  1
  O2-  O500  1  0.42018843  0.59518160  0.97353578  1
  O2-  O501  1  0.43111199  0.87350123  0.31133511  1
  O2-  O502  1  0.42217417  0.84383042  0.64924513  1
  O2-  O503  1  0.41702772  0.83809138  0.97157417  1
  O2-  O504  1  0.67383450  0.16157518  0.30551009  1
  O2-  O505  1  0.64880166  0.09431935  0.65640372  1
  O2-  O506  1  0.65890327  0.08100807  0.97651314  1
  O2-  O507  1  0.64518114  0.37803942  0.32863507  1
  O2-  O508  1  0.70077156  0.30372044  0.61945681  1
  O2-  O509  1  0.65674307  0.32123565  0.98243437  1
  O2-  O510  1  0.66418066  0.59797920  0.30022100  1
  O2-  O511  1  0.66656139  0.57934942  0.66202719  1
  O2-  O512  1  0.66560692  0.58035963  0.98789259  1
  O2-  O513  1  0.66423264  0.83373950  0.31376086  1
  O2-  O514  1  0.68923654  0.82921649  0.65830455  1
  O2-  O515  1  0.66398157  0.83882683  0.96516367  1
  O2-  O516  1  0.90695161  0.08601686  0.31478682  1
  O2-  O517  1  0.91031159  0.07980928  0.66264531  1
  O2-  O518  1  0.91100662  0.07745281  0.96568966  1
  O2-  O519  1  0.93412147  0.35184384  0.32128019  1
  O2-  O520  1  0.92269622  0.34215160  0.64238512  1
  O2-  O521  1  0.91138207  0.32214994  0.98613053  1
  O2-  O522  1  0.88193339  0.55626652  0.32897038  1
  O2-  O523  1  0.90633016  0.59654284  0.67200061  1
  O2-  O524  1  0.92315644  0.59965631  0.95888686  1
  O2-  O525  1  0.93840312  0.78969383  0.29345488  1
  O2-  O526  1  0.92007308  0.85657489  0.66745064  1
  O2-  O527  1  0.90515420  0.82662576  0.96250002  1
  O2-  O528  1  0.07849911  0.16687409  -0.00409670  1
  O2-  O529  1  0.07579392  0.15540001  0.35584892  1
  O2-  O530  1  0.07965842  0.15856635  0.70539705  1
  O2-  O531  1  0.08021911  0.40653266  0.02475796  1
  O2-  O532  1  0.10705129  0.42429814  0.35255523  1
  O2-  O533  1  0.08458641  0.41712404  0.68566786  1
  O2-  O534  1  0.08973310  0.67782341  -0.00170039  1
  O2-  O535  1  0.06224180  0.63403962  0.35112302  1
  O2-  O536  1  0.08065119  0.67258376  0.68608969  1
  O2-  O537  1  0.07939061  0.92952577  0.00031572  1
  O2-  O538  1  0.07590896  0.91069135  0.35146384  1
  O2-  O539  1  0.08116115  0.92157092  0.69503424  1
  O2-  O540  1  0.29847628  0.12271154  -0.00160686  1
  O2-  O541  1  0.31043803  0.16545790  0.35776346  1
  O2-  O542  1  0.34263327  0.17750701  0.68269494  1
  O2-  O543  1  0.33461121  0.43004962  0.01560230  1
  O2-  O544  1  0.34714014  0.41146627  0.34709831  1
  O2-  O545  1  0.33088103  0.41138378  0.68081754  1
  O2-  O546  1  0.33177370  0.67189533  0.00742084  1
  O2-  O547  1  0.33948440  0.66459242  0.34855044  1
  O2-  O548  1  0.34662120  0.68430297  0.68445604  1
  O2-  O549  1  0.34090283  0.92148441  0.01430535  1
  O2-  O550  1  0.29790472  0.83339587  0.38643306  1
  O2-  O551  1  0.33452866  0.92618242  0.68592148  1
  O2-  O552  1  0.57245181  0.15470997  0.02227899  1
  O2-  O553  1  0.54590547  0.16410019  0.37049794  1
  O2-  O554  1  0.57952419  0.19746023  0.69110263  1
  O2-  O555  1  0.58612239  0.41458966  0.02669039  1
  O2-  O556  1  0.56081627  0.32313325  0.35739510  1
  O2-  O557  1  0.58821047  0.41142481  0.69319032  1
  O2-  O558  1  0.58718827  0.67663142  0.01556449  1
  O2-  O559  1  0.57743488  0.67162658  0.35670471  1
  O2-  O560  1  0.57541606  0.65409521  0.69694586  1
  O2-  O561  1  0.58032641  0.91546587  0.01431428  1
  O2-  O562  1  0.58202623  0.91245766  0.36987342  1
  O2-  O563  1  0.57487150  0.94107785  0.68821895  1
  O2-  O564  1  0.82553916  0.15470414  0.01470532  1
  O2-  O565  1  0.83539048  0.18610292  0.35239710  1
  O2-  O566  1  0.82219176  0.17397843  0.68619191  1
  O2-  O567  1  0.78510785  0.33107842  0.05628976  1
  O2-  O568  1  0.86036492  0.42438438  0.38448484  1
  O2-  O569  1  0.84024037  0.42119491  0.68619672  1
  O2-  O570  1  0.83895441  0.66752979  0.01050582  1
  O2-  O571  1  0.81619387  0.65472542  0.36854749  1
  O2-  O572  1  0.82164416  0.66922121  0.72922190  1
  O2-  O573  1  0.82796039  0.91433173  0.00863653  1
  O2-  O574  1  0.82066416  0.91691754  0.36090984  1
  O2-  O575  1  0.84695047  0.92163557  0.72170715  1
