# generated using pymatgen
data_H2O
_symmetry_space_group_name_H-M   'P 1'
_cell_length_a   17.99571666
_cell_length_b   17.99862342
_cell_length_c   22.01055817
_cell_angle_alpha   90.02052200
_cell_angle_beta   89.98405794
_cell_angle_gamma   119.99886523
_symmetry_Int_Tables_number   1
_chemical_formula_structural   H2O
_chemical_formula_sum   'H384 O192'
_cell_volume   6174.11991408
_cell_formula_units_Z   192
loop_
 _symmetry_equiv_pos_site_id
 _symmetry_equiv_pos_as_xyz
  1  'x, y, z'
loop_
 _atom_type_symbol
 _atom_type_oxidation_number
  H+  1.0
  O2-  -2.0
loop_
 _atom_site_type_symbol
 _atom_site_label
 _atom_site_symmetry_multiplicity
 _atom_site_fract_x
 _atom_site_fract_y
 _atom_site_fract_z
 _atom_site_occupancy
  H+  H0  1  0.74003506  0.12960132  0.31838136  1
  H+  H1  1  0.62563760  0.27677585  0.66597575  1
  H+  H2  1  0.65492959  0.57942773  0.93466848  1
  H+  H3  1  0.29538790  0.29137414  0.69529557  1
  H+  H4  1  0.11473201  0.98282160  0.16023474  1
  H+  H5  1  0.63530961  0.01690193  0.84183248  1
  H+  H6  1  0.60822127  0.23126805  0.82706018  1
  H+  H7  1  0.25745702  0.36813197  0.15649654  1
  H+  H8  1  0.38379344  0.78122995  0.66296377  1
  H+  H9  1  0.87611253  0.35077875  0.84054181  1
  H+  H10  1  0.35519674  0.42348703  0.43184334  1
  H+  H11  1  0.63101491  0.51864355  0.84317919  1
  H+  H12  1  0.61687582  0.65817983  0.15773573  1
  H+  H13  1  0.77298643  0.89487801  1.00552934  1
  H+  H14  1  0.61073888  0.73115679  0.34857555  1
  H+  H15  1  0.64380657  0.38178635  0.99885949  1
  H+  H16  1  0.06132662  0.67513892  0.81740546  1
  H+  H17  1  0.92116257  0.09321636  0.22818538  1
  H+  H18  1  0.60802237  0.88945352  0.67629487  1
  H+  H19  1  0.14108546  0.12047633  0.32189114  1
  H+  H20  1  0.11799394  -0.01241340  0.33010413  1
  H+  H21  1  0.11465107  0.89735042  0.33031577  1
  H+  H22  1  0.35168602  0.63944073  0.34870250  1
  H+  H23  1  0.37905663  0.86761890  0.65500662  1
  H+  H24  1  0.88923841  0.62344661  0.50874592  1
  H+  H25  1  0.13451480  0.10440998  0.83909290  1
  H+  H26  1  0.37937622  0.65530726  0.17280629  1
  H+  H27  1  0.87055457  0.76937688  0.51047756  1
  H+  H28  1  0.38269295  0.01825133  0.65073586  1
  H+  H29  1  0.74917556  0.64101532  0.00290759  1
  H+  H30  1  0.11208505  0.26036691  0.49978267  1
  H+  H31  1  0.12261139  0.72418632  0.00552072  1
  H+  H32  1  0.58517535  0.91654163  0.38005924  1
  H+  H33  1  0.21818901  0.33981116  0.65446095  1
  H+  H34  1  0.47493075  0.61895721  0.99256229  1
  H+  H35  1  0.70703962  0.86016408  0.52107003  1
  H+  H36  1  -0.01969264  0.62019355  0.66125423  1
  H+  H37  1  0.95596861  0.56555925  0.83862123  1
  H+  H38  1  0.32198428  0.41222376  0.05608941  1
  H+  H39  1  0.61877679  0.13993796  0.49175190  1
  H+  H40  1  0.78261361  0.40728689  0.52294980  1
  H+  H41  1  0.21928875  0.86066585  0.16761600  1
  H+  H42  1  0.47825294  0.36313363  0.85602543  1
  H+  H43  1  0.88669881  0.48791958  0.67817321  1
  H+  H44  1  0.46664509  0.87237118  0.17865267  1
  H+  H45  1  0.63697854  0.77529038  -0.00741941  1
  H+  H46  1  0.39350314  0.52564412  0.49137695  1
  H+  H47  1  0.62791534  0.23549376  0.00663533  1
  H+  H48  1  0.14492319  0.88215426  0.83767686  1
  H+  H49  1  0.38823218  0.86558810  1.00805628  1
  H+  H50  1  0.37322355  0.23269495  0.33518033  1
  H+  H51  1  0.36898879  0.03112932  0.86456984  1
  H+  H52  1  0.37786625  0.89670200  0.49866242  1
  H+  H53  1  0.43015888  0.33822518  0.26833963  1
  H+  H54  1  0.01410826  0.12183889  0.48674500  1
  H+  H55  1  0.10995466  0.60280080  0.81927541  1
  H+  H56  1  0.55175118  0.63963982  0.50090474  1
  H+  H57  1  0.49519815  0.36644731  0.32908469  1
  H+  H58  1  0.61528408  0.45890759  0.33778924  1
  H+  H59  1  0.77090364  0.88440813  0.82663614  1
  H+  H60  1  0.97980779  0.36018087  0.50424741  1
  H+  H61  1  0.11703593  0.37494376  0.66924808  1
  H+  H62  1  0.13879842  0.26592473  0.32820925  1
  H+  H63  1  0.14199740  0.91152255  0.48415137  1
  H+  H64  1  0.52874939  -0.01818996  0.12484342  1
  H+  H65  1  0.76993605  0.39821315  0.17295933  1
  H+  H66  1  0.38332311  0.61194628  0.83796457  1
  H+  H67  1  0.62496669  0.02520488  0.65681707  1
  H+  H68  1  0.72897615  0.12140344  0.50770980  1
  H+  H69  1  0.37422614  0.23166129  0.48515992  1
  H+  H70  1  0.88823549  0.86909713  0.83812341  1
  H+  H71  1  0.08666699  0.41380424  0.28954685  1
  H+  H72  1  0.56831108  0.40729594  0.77302744  1
  H+  H73  1  0.87182572  0.78773880  0.99040543  1
  H+  H74  1  0.11345714  0.38172509  0.00708388  1
  H+  H75  1  0.62438050  0.35561099  0.33002572  1
  H+  H76  1  0.33053688  0.48827365  0.68508151  1
  H+  H77  1  1.00638417  0.38047213  0.33271342  1
  H+  H78  1  0.11951940  0.52391123  0.17703170  1
  H+  H79  1  0.02893366  0.13920912  0.15577907  1
  H+  H80  1  0.77731726  0.13309332  -0.00411961  1
  H+  H81  1  0.87860419  0.11074211  0.83530197  1
  H+  H82  1  0.34749970  0.63084732  0.49147853  1
  H+  H83  1  0.88223945  0.90429772  0.33468836  1
  H+  H84  1  0.90269328  0.59092841  1.00587087  1
  H+  H85  1  0.47265634  0.10557331  0.32749650  1
  H+  H86  1  0.09246412  0.62899357  0.16501113  1
  H+  H87  1  0.10516706  0.38565898  0.82481861  1
  H+  H88  1  0.63351225  0.52424662  0.99757743  1
  H+  H89  1  0.48992597  0.11416997  0.00055685  1
  H+  H90  1  1.01891795  0.14117117  0.33164725  1
  H+  H91  1  0.11212339  0.97396875  0.82241568  1
  H+  H92  1  1.01909804  0.65073913  0.32600475  1
  H+  H93  1  0.35165013  0.88468368  0.16392739  1
  H+  H94  1  0.88768581  0.11011962  0.66116495  1
  H+  H95  1  0.89184079  0.11587126  0.98493466  1
  H+  H96  1  0.88647048  0.86222035  0.66343501  1
  H+  H97  1  0.14419293  0.11897210  0.16726109  1
  H+  H98  1  0.12548462  0.25657655  0.65334757  1
  H+  H99  1  0.37414937  0.74581136  0.16574177  1
  H+  H100  1  0.65135811  0.87279248  0.32156851  1
  H+  H101  1  0.40369273  0.55705398  0.19904920  1
  H+  H102  1  0.86178596  0.64062058  0.67284434  1
  H+  H103  1  0.86899352  0.52166963  0.16440509  1
  H+  H104  1  0.63631335  0.86265774  0.83728576  1
  H+  H105  1  0.22003180  0.37015744  0.83457261  1
  H+  H106  1  0.76741102  0.13436455  0.82784823  1
  H+  H107  1  0.13099840  0.77468287  0.31819624  1
  H+  H108  1  0.84254303  0.44519382  0.83367019  1
  H+  H109  1  0.77547353  0.38189575  0.01990897  1
  H+  H110  1  0.85763003  0.22275185  0.83119314  1
  H+  H111  1  0.73925775  0.37058998  0.53136841  1
  H+  H112  1  0.61530112  -0.02579695  1.00799801  1
  H+  H113  1  0.51864607  0.89008416  0.67676957  1
  H+  H114  1  0.59925368  0.38434261  0.68614968  1
  H+  H115  1  0.85933888  0.38905501  0.33559078  1
  H+  H116  1  0.59694486  0.38676287  0.48779110  1
  H+  H117  1  0.24540933  0.15853741  0.66583714  1
  H+  H118  1  0.58951417  0.24975027  0.50805364  1
  H+  H119  1  0.52425657  0.88213433  0.82499913  1
  H+  H120  1  0.47700443  0.36639324  0.49665549  1
  H+  H121  1  0.34739349  0.45160314  0.14606805  1
  H+  H122  1  0.75488555  0.35413181  0.82224915  1
  H+  H123  1  0.52784302  0.27485969  0.54215261  1
  H+  H124  1  0.72328410  0.63452201  0.17712994  1
  H+  H125  1  -0.01721976  0.87621182  0.32048556  1
  H+  H126  1  1.02595097  0.14264662  1.00037502  1
  H+  H127  1  0.38821942  0.27660384  0.86113570  1
  H+  H128  1  0.27973156  0.13506619  0.16127704  1
  H+  H129  1  0.13290465  0.26883969  0.17301969  1
  H+  H130  1  0.90337864  0.37027480  0.65738482  1
  H+  H131  1  0.63149525  0.14587959  0.15876975  1
  H+  H132  1  0.74670177  0.12254240  0.16021707  1
  H+  H133  1  0.85846722  -0.02447327  0.82449788  1
  H+  H134  1  0.27814515  0.63004113  0.02586280  1
  H+  H135  1  -0.02422886  0.86491193  0.83837402  1
  H+  H136  1  0.87634617  0.27118701  0.33773879  1
  H+  H137  1  0.14539781  0.58472799  0.23551869  1
  H+  H138  1  0.27555854  0.63768000  0.66942055  1
  H+  H139  1  0.40851989  0.38118766  1.00254705  1
  H+  H140  1  0.26688829  0.63182746  0.81522279  1
  H+  H141  1  0.78754751  0.18979983  0.38624011  1
  H+  H142  1  0.36250554  0.53390967  0.67675158  1
  H+  H143  1  0.36003504  0.48293443  1.00226568  1
  H+  H144  1  0.60546634  0.37685812  0.82751507  1
  H+  H145  1  0.86728321  0.94331784  0.39563029  1
  H+  H146  1  0.97685642  0.86816488  0.17073102  1
  H+  H147  1  0.12759929  0.77145309  0.16838439  1
  H+  H148  1  0.35186191  0.97623139  0.32896858  1
  H+  H149  1  0.14221113  0.35559979  0.33154681  1
  H+  H150  1  0.84607316  0.87123159  0.50065398  1
  H+  H151  1  0.53369311  0.07234498  0.78178608  1
  H+  H152  1  0.91726950  0.84123543  0.26389653  1
  H+  H153  1  0.65057169  0.62584297  0.49435967  1
  H+  H154  1  0.12387516  0.52878640  0.33029180  1
  H+  H155  1  0.38503242  0.35185589  0.16935102  1
  H+  H156  1  0.73850395  0.87030586  0.32919074  1
  H+  H157  1  0.60670256  0.22028066  0.33585998  1
  H+  H158  1  0.52364315  0.88627457  0.01225657  1
  H+  H159  1  0.86865960  0.73905820  0.15658293  1
  H+  H160  1  0.66579300  0.07680218  0.93292658  1
  H+  H161  1  0.97833361  0.37738921  0.18239252  1
  H+  H162  1  0.38070036  0.39474769  0.33408084  1
  H+  H163  1  0.87992671  0.12670410  0.32780723  1
  H+  H164  1  0.01135516  0.86552381  0.01018368  1
  H+  H165  1  0.85152186  0.41856305  0.73257439  1
  H+  H166  1  0.61344597  0.13511710  0.33172458  1
  H+  H167  1  0.99493124  0.60096461  1.00279731  1
  H+  H168  1  0.29011279  0.89593427  0.48962628  1
  H+  H169  1  0.86706386  0.22384939  -0.00329101  1
  H+  H170  1  0.72311644  0.86677384  0.66410282  1
  H+  H171  1  0.13615813  0.77993182  0.62271926  1
  H+  H172  1  0.89629876  0.02760769  0.17185031  1
  H+  H173  1  0.25364075  0.87592852  0.65286823  1
  H+  H174  1  0.65506671  0.83019894  0.60837350  1
  H+  H175  1  0.86363627  0.89848520  0.00328740  1
  H+  H176  1  0.84534611  0.43318689  0.39166857  1
  H+  H177  1  0.46593141  0.86088477  0.33087795  1
  H+  H178  1  0.62979640  0.76347683  0.51081567  1
  H+  H179  1  0.88784598  0.35470256  0.99840816  1
  H+  H180  1  0.65186185  0.79341102  0.17004336  1
  H+  H181  1  0.38000841  0.39457057  0.49368202  1
  H+  H182  1  0.72649009  0.62674268  0.65140628  1
  H+  H183  1  0.78249037  0.89582968  0.16150104  1
  H+  H184  1  0.82946027  0.42114438  0.11131899  1
  H+  H185  1  0.13127652  0.27921792  0.84546225  1
  H+  H186  1  0.87362013  0.22927860  0.49721280  1
  H+  H187  1  0.88417021  0.03993974  0.32483597  1
  H+  H188  1  0.39300510  0.53464736  0.33345496  1
  H+  H189  1  0.37011051  0.13630952  0.16179694  1
  H+  H190  1  0.28882902  0.38952592  0.33657438  1
  H+  H191  1  0.12804672  0.84664251  1.00119363  1
  H+  H192  1  0.85949180  0.97288889  0.67200587  1
  H+  H193  1  0.28309565  0.90335740  0.81918484  1
  H+  H194  1  0.27461227  0.89134222  0.01064022  1
  H+  H195  1  0.24529251  0.87695298  0.32042484  1
  H+  H196  1  0.62270931  0.11227193  0.65575334  1
  H+  H197  1  0.87748399  0.62801903  0.15944102  1
  H+  H198  1  0.65120034  0.27680846  0.17821106  1
  H+  H199  1  0.37617400  0.76862587  0.51334159  1
  H+  H200  1  0.87355988  0.73888872  0.34321358  1
  H+  H201  1  0.24561431  0.14661384  0.50181649  1
  H+  H202  1  0.36732900  0.13800459  0.48668393  1
  H+  H203  1  0.38957342  0.85423621  0.82475411  1
  H+  H204  1  0.36810795  0.14924550  0.84556328  1
  H+  H205  1  0.64582424  0.11376194  0.99334974  1
  H+  H206  1  0.84654709  0.17234902  0.73196404  1
  H+  H207  1  0.16304319  0.07284376  0.89661578  1
  H+  H208  1  0.22100497  0.10107416  -0.01297356  1
  H+  H209  1  0.34931634  0.88270826  0.33293382  1
  H+  H210  1  0.14096388  0.51258103  0.66298470  1
  H+  H211  1  0.60484928  0.63616857  0.00593347  1
  H+  H212  1  0.63050644  0.27943910  0.88863516  1
  H+  H213  1  0.87762601  0.01570176  0.50482828  1
  H+  H214  1  0.12739341  1.00775515  0.65059294  1
  H+  H215  1  0.70352569  0.38259925  0.94421853  1
  H+  H216  1  0.88850250  0.10958424  0.50655497  1
  H+  H217  1  0.16029649  0.80279223  0.84206199  1
  H+  H218  1  0.33980564  0.17080876  0.39330854  1
  H+  H219  1  0.63649428  0.86343575  -0.00456598  1
  H+  H220  1  0.50616521  0.36709797  0.67728853  1
  H+  H221  1  0.41269566  0.59053910  0.93370190  1
  H+  H222  1  0.13642078  0.60018592  0.66444132  1
  H+  H223  1  0.49729965  0.65320399  0.64686859  1
  H+  H224  1  0.65051849  0.03931722  0.16758103  1
  H+  H225  1  0.43403750  0.34273894  0.94690676  1
  H+  H226  1  0.22664556  0.20437241  0.54462255  1
  H+  H227  1  0.45379946  0.62156235  0.46579402  1
  H+  H228  1  0.89597487  0.38822475  0.18645355  1
  H+  H229  1  0.87139496  0.46078838  0.02103128  1
  H+  H230  1  0.37772926  0.97502435  0.79673386  1
  H+  H231  1  0.90613842  0.41047274  0.48338925  1
  H+  H232  1  0.87925112  0.23048304  0.67183598  1
  H+  H233  1  0.88740644  0.86806735  0.16813360  1
  H+  H234  1  0.10748602  0.65021612  0.33153681  1
  H+  H235  1  0.03262026  0.65035392  0.50556128  1
  H+  H236  1  0.13636948  0.50781817  1.01247902  1
  H+  H237  1  0.47850473  0.62868896  0.34318324  1
  H+  H238  1  0.53898544  0.14133249  0.16057765  1
  H+  H239  1  0.21460621  0.61600904  0.33222272  1
  H+  H240  1  0.64975786  0.59686245  0.22849005  1
  H+  H241  1  1.02340728  0.38133855  1.00869046  1
  H+  H242  1  0.84403512  0.66173554  -0.01075240  1
  H+  H243  1  0.47285167  0.61287152  0.84044280  1
  H+  H244  1  0.76464903  0.64115705  0.82471189  1
  H+  H245  1  0.51028836  0.13350149  0.66896937  1
  H+  H246  1  0.86999610  0.13395703  0.14950659  1
  H+  H247  1  0.12997546  0.51180130  0.50928491  1
  H+  H248  1  0.37052707  0.63740872  0.01448287  1
  H+  H249  1  0.59503271  0.41924534  0.06875080  1
  H+  H250  1  0.25686292  0.62790109  0.49883378  1
  H+  H251  1  0.62642187  -0.01319215  0.32579097  1
  H+  H252  1  0.10269094  0.12672366  0.66399841  1
  H+  H253  1  0.10301701  0.47329942  0.81947512  1
  H+  H254  1  0.38962406  0.26666665  0.17296325  1
  H+  H255  1  0.50289919  0.86007262  0.47610607  1
  H+  H256  1  0.34526522  0.23467001  0.65698393  1
  H+  H257  1  0.98591382  0.36067072  0.65137563  1
  H+  H258  1  0.85270052  0.72993494  0.82374267  1
  H+  H259  1  0.52497939  0.37521065  0.15630215  1
  H+  H260  1  0.11441637  0.87857516  0.66547432  1
  H+  H261  1  0.61683082  0.64509441  0.66914521  1
  H+  H262  1  0.38994713  0.02412778  0.50215715  1
  H+  H263  1  0.64065840  0.53078832  0.49438218  1
  H+  H264  1  0.77585228  0.63618315  0.49241983  1
  H+  H265  1  0.58412900  0.16341878  0.43022839  1
  H+  H266  1  -0.02999727  0.35925493  0.83865364  1
  H+  H267  1  0.39233761  0.02589407  0.17353777  1
  H+  H268  1  0.10646579  0.37437526  0.49127701  1
  H+  H269  1  0.53299989  0.39611792  0.00951809  1
  H+  H270  1  0.97013536  0.61953914  0.16152363  1
  H+  H271  1  0.61070944  0.72322196  0.82621082  1
  H+  H272  1  0.71660921  0.35692894  0.32976039  1
  H+  H273  1  0.36738607  0.97956749  0.01134946  1
  H+  H274  1  0.90495368  0.54246393  0.50516226  1
  H+  H275  1  0.61425140  0.37688381  0.16058171  1
  H+  H276  1  0.62304067  0.09847676  0.84398115  1
  H+  H277  1  0.11410073  0.23430331  -0.00021291  1
  H+  H278  1  0.15277802  0.78351464  0.50189426  1
  H+  H279  1  0.08222863  0.16268541  0.89824610  1
  H+  H280  1  0.55210754  0.51147160  0.30028930  1
  H+  H281  1  0.59840168  0.60484357  0.32743676  1
  H+  H282  1  0.11070430  0.89140780  0.16239983  1
  H+  H283  1  0.47718175  0.09795237  0.84101209  1
  H+  H284  1  0.36259874  0.38269020  0.67144968  1
  H+  H285  1  0.12684035  0.63609342  0.01277844  1
  H+  H286  1  0.88066332  0.52367096  0.32003582  1
  H+  H287  1  0.27736015  0.14232422  0.83709239  1
  H+  H288  1  0.38922798  0.77737939  1.00948830  1
  H+  H289  1  0.11368821  0.63704896  0.50540259  1
  H+  H290  1  0.58606411  0.91916773  0.76740514  1
  H+  H291  1  0.23309006  0.12414195  0.32272918  1
  H+  H292  1  0.17213044  0.84029996  0.93940036  1
  H+  H293  1  0.02418609  0.87844753  0.67178850  1
  H+  H294  1  0.22705356  0.37003894  0.98557387  1
  H+  H295  1  0.01615203  0.12934521  0.66663162  1
  H+  H296  1  0.56738177  0.92857130  0.09712820  1
  H+  H297  1  0.08491592  0.91048569  0.76369999  1
  H+  H298  1  0.14639610  0.31797016  0.56080327  1
  H+  H299  1  0.58577922  0.67618786  0.41394079  1
  H+  H300  1  0.66224009  0.08946205  0.56274580  1
  H+  H301  1  0.96772451  0.49355074  0.44633827  1
  H+  H302  1  0.31945773  0.40028247  0.76743620  1
  H+  H303  1  0.66551687  0.83366512  0.89733499  1
  H+  H304  1  0.60220031  0.17825052  0.06682013  1
  H+  H305  1  0.66888140  0.59899646  0.59167522  1
  H+  H306  1  0.06848205  0.89285390  0.07078985  1
  H+  H307  1  0.88462923  0.77229114  0.66174013  1
  H+  H308  1  0.07533155  0.66298449  0.10132520  1
  H+  H309  1  0.15666800  0.07341780  0.59257599  1
  H+  H310  1  0.42436289  0.08482472  0.23262522  1
  H+  H311  1  0.89035348  0.02671003  0.98915445  1
  H+  H312  1  0.58126825  0.41542445  0.42175107  1
  H+  H313  1  0.32615957  0.15001645  0.06425101  1
  H+  H314  1  0.08308392  0.40523781  0.72789247  1
  H+  H315  1  0.06782953  0.63724114  0.73688174  1
  H+  H316  1  0.63967609  0.33186016  0.60829443  1
  H+  H317  1  0.33355616  0.66231659  0.76021563  1
  H+  H318  1  0.10078994  0.93644382  0.43179909  1
  H+  H319  1  0.32898265  0.91882305  0.10261398  1
  H+  H320  1  0.16401722  0.34309985  0.92741298  1
  H+  H321  1  0.66908938  0.33130443  0.24084093  1
  H+  H322  1  0.82530110  0.66942948  0.72957259  1
  H+  H323  1  0.61725875  0.73394498  0.67949944  1
  H+  H324  1  0.47791228  0.11356458  0.50083360  1
  H+  H325  1  0.16661891  0.32646688  0.23441652  1
  H+  H326  1  0.14166391  0.11678592  0.98510824  1
  H+  H327  1  0.91479573  0.84464018  0.93102525  1
  H+  H328  1  0.18581950  0.56626632  0.95682100  1
  H+  H329  1  0.16412633  0.83723065  0.25714612  1
  H+  H330  1  0.11379709  0.14444940  0.48598027  1
  H+  H331  1  0.91852897  0.59140431  0.60351292  1
  H+  H332  1  0.91113056  0.33835197  0.27642056  1
  H+  H333  1  0.45745247  0.25949417  0.62413351  1
  H+  H334  1  0.07412475  0.15921229  0.39257020  1
  H+  H335  1  0.35794310  0.11785140  1.00861407  1
  H+  H336  1  0.01675108  0.13641057  0.84501702  1
  H+  H337  1  0.85007201  0.17237649  0.43745510  1
  H+  H338  1  0.41795298  0.08210881  0.59466713  1
  H+  H339  1  0.42597555  0.61452698  0.25723308  1
  H+  H340  1  0.38662567  0.11289922  0.32548931  1
  H+  H341  1  0.35212405  0.47252570  0.82111055  1
  H+  H342  1  0.77966884  0.87172160  0.44935242  1
  H+  H343  1  0.37576424  0.77176155  0.33610691  1
  H+  H344  1  0.91006331  0.07361653  0.60045456  1
  H+  H345  1  0.16018974  0.56781396  0.57150171  1
  H+  H346  1  0.62675020  0.60601452  0.84167388  1
  H+  H347  1  0.41756893  0.83212616  0.57050187  1
  H+  H348  1  0.34959867  0.67577282  0.10162556  1
  H+  H349  1  0.42744014  0.31845926  0.56210802  1
  H+  H350  1  0.86990565  0.64889052  0.34208413  1
  H+  H351  1  0.12292206  0.71578276  0.69012587  1
  H+  H352  1  0.58036709  0.66353619  0.76701705  1
  H+  H353  1  0.31544241  0.90424690  0.71405342  1
  H+  H354  1  0.53177028  0.66486909  0.16316387  1
  H+  H355  1  0.90471381  0.58572464  0.26235579  1
  H+  H356  1  0.37489332  0.66152599  0.66187595  1
  H+  H357  1  0.89938597  0.83009430  0.56994992  1
  H+  H358  1  0.11152918  0.38588127  0.16586380  1
  H+  H359  1  0.57811712  0.67296692  0.06392067  1
  H+  H360  1  0.84268021  0.67477281  0.43655994  1
  H+  H361  1  0.90798799  0.07872649  0.89436702  1
  H+  H362  1  0.83959040  0.92638915  0.09994685  1
  H+  H363  1  0.44416734  0.63001328  0.58376047  1
  H+  H364  1  0.38898196  0.76621074  0.82831661  1
  H+  H365  1  0.08825352  0.17260241  0.09575234  1
  H+  H366  1  0.31562662  0.66587262  0.40636876  1
  H+  H367  1  0.91856861  0.33439312  0.93404031  1
  H+  H368  1  0.83844811  0.15833192  0.08832138  1
  H+  H369  1  0.16707448  0.60698430  0.87817636  1
  H+  H370  1  0.17225817  0.09108969  0.22851185  1
  H+  H371  1  0.08138715  0.41248507  0.10591912  1
  H+  H372  1  0.82855061  0.67737962  0.09715988  1
  H+  H373  1  0.43044237  0.08706716  0.94105622  1
  H+  H374  1  0.08464283  0.41243656  0.43131452  1
  H+  H375  1  0.40849406  0.83166952  0.24032787  1
  H+  H376  1  0.58819248  0.85734344  0.47507078  1
  H+  H377  1  0.68637852  0.84297280  0.23281052  1
  H+  H378  1  0.83007674  0.91399709  0.73198865  1
  H+  H379  1  0.91624235  0.54429407  0.90541944  1
  H+  H380  1  0.18424968  0.85346080  0.55497432  1
  H+  H381  1  0.56533473  0.16409196  0.73063455  1
  H+  H382  1  0.92014315  0.33667544  0.56403386  1
  H+  H383  1  0.68423637  0.10045696  0.25709236  1
  O2-  O384  1  0.09011029  0.17184311  0.14117977  1
  O2-  O385  1  0.07135506  0.15778562  0.46679254  1
  O2-  O386  1  0.08008990  0.16784085  0.85418883  1
  O2-  O387  1  0.08279547  0.41754342  0.15108109  1
  O2-  O388  1  0.08082125  0.41158674  0.47557559  1
  O2-  O389  1  0.07169633  0.41181332  0.80717742  1
  O2-  O390  1  0.06459544  0.66180330  0.14596260  1
  O2-  O391  1  0.09205452  0.67439239  0.49007792  1
  O2-  O392  1  0.04925707  0.61996037  0.80138133  1
  O2-  O393  1  0.07965832  0.92095790  0.14811716  1
  O2-  O394  1  0.12154424  0.95183419  0.47365344  1
  O2-  O395  1  0.08399065  0.91153111  0.80960360  1
  O2-  O396  1  0.34041113  0.16684217  0.14671488  1
  O2-  O397  1  0.34021243  0.17058819  0.46923721  1
  O2-  O398  1  0.33966515  0.18093076  0.83151561  1
  O2-  O399  1  0.31502328  0.39144550  0.13508625  1
  O2-  O400  1  0.35838736  0.43179715  0.47633894  1
  O2-  O401  1  0.31110480  0.41261793  0.81011307  1
  O2-  O402  1  0.35059640  0.68340330  0.14972503  1
  O2-  O403  1  0.31617310  0.66185562  0.48072848  1
  O2-  O404  1  0.32927577  0.65838100  0.80585242  1
  O2-  O405  1  0.32492353  0.91771759  0.14867161  1
  O2-  O406  1  0.35291975  0.92960916  0.47999615  1
  O2-  O407  1  0.33585721  0.91379596  0.79675225  1
  O2-  O408  1  0.59854967  0.17458911  0.14441793  1
  O2-  O409  1  0.58308992  0.16563367  0.47529731  1
  O2-  O410  1  0.54748457  0.11674212  0.81222023  1
  O2-  O411  1  0.58429234  0.40323730  0.13993402  1
  O2-  O412  1  0.58100146  0.42630256  0.46785961  1
  O2-  O413  1  0.58120690  0.41395793  0.81890938  1
  O2-  O414  1  0.58572521  0.68817367  0.14028031  1
  O2-  O415  1  0.60218634  0.67887277  0.47744558  1
  O2-  O416  1  0.57828185  0.66205970  0.81285063  1
  O2-  O417  1  0.55110616  0.94477305  0.13749770  1
  O2-  O418  1  0.55030849  0.86815384  0.44865319  1
  O2-  O419  1  0.58709420  0.91641430  0.81322965  1
  O2-  O420  1  0.83593829  0.15919337  0.13337227  1
  O2-  O421  1  0.84662179  0.16839506  0.48272383  1
  O2-  O422  1  0.82840500  0.16339188  0.81397277  1
  O2-  O423  1  0.83101877  0.43689143  0.15551230  1
  O2-  O424  1  0.90835969  0.45993984  0.45982513  1
  O2-  O425  1  0.81660591  0.38743192  0.81231456  1
  O2-  O426  1  0.83720166  0.67674541  0.14183062  1
  O2-  O427  1  0.83926213  0.66985348  0.48219519  1
  O2-  O428  1  0.82170457  0.67234358  0.80503369  1
  O2-  O429  1  0.84413199  0.92539284  0.14515775  1
  O2-  O430  1  0.81839205  0.90654931  0.48164590  1
  O2-  O431  1  0.83139490  0.91420541  0.81103223  1
  O2-  O432  1  0.17272996  0.08744102  0.18303235  1
  O2-  O433  1  0.19797700  0.14859372  0.52459021  1
  O2-  O434  1  0.16237201  0.07086359  0.84997197  1
  O2-  O435  1  0.16425912  0.32958254  0.18910275  1
  O2-  O436  1  0.14049137  0.31996232  0.51576621  1
  O2-  O437  1  0.15917227  0.34204566  0.85322352  1
  O2-  O438  1  0.13980950  0.58375405  0.19051876  1
  O2-  O439  1  0.15887466  0.57129295  0.52600762  1
  O2-  O440  1  0.15851056  0.58566832  0.83674351  1
  O2-  O441  1  0.15887518  0.83175020  0.18348620  1
  O2-  O442  1  0.18683429  0.84677438  0.50966980  1
  O2-  O443  1  0.18481849  0.86180593  0.85587553  1
  O2-  O444  1  0.42852645  0.08645202  0.18722170  1
  O2-  O445  1  0.41744888  0.08717473  0.51543979  1
  O2-  O446  1  0.41835142  0.08821622  0.86816949  1
  O2-  O447  1  0.41893930  0.32809931  0.18720774  1
  O2-  O448  1  0.41872490  0.32863464  0.51425464  1
  O2-  O449  1  0.42305225  0.33627984  0.87817995  1
  O2-  O450  1  0.42763107  0.61711717  0.20979215  1
  O2-  O451  1  0.41528716  0.59033135  0.49941343  1
  O2-  O452  1  0.41318414  0.58366783  0.85731351  1
  O2-  O453  1  0.40733128  0.83187153  0.19447228  1
  O2-  O454  1  0.41491586  0.82934727  0.52493505  1
  O2-  O455  1  0.42183514  0.82760578  0.84065177  1
  O2-  O456  1  0.68662807  0.09990393  0.17965916  1
  O2-  O457  1  0.66756236  0.09551052  0.51721310  1
  O2-  O458  1  0.66292393  0.07750485  0.85783948  1
  O2-  O459  1  0.67798827  0.33632506  0.19483031  1
  O2-  O460  1  0.58742320  0.29830824  0.52973114  1
  O2-  O461  1  0.64005997  0.28978426  0.84510248  1
  O2-  O462  1  0.66184485  0.61134385  0.18465116  1
  O2-  O463  1  0.67575559  0.59024757  0.51089153  1
  O2-  O464  1  0.65831057  0.57866126  0.85971823  1
  O2-  O465  1  0.68903450  0.85105879  0.18797140  1
  O2-  O466  1  0.64625313  0.82208789  0.53132199  1
  O2-  O467  1  0.66649061  0.83163076  0.85205811  1
  O2-  O468  1  0.92803865  0.08997495  0.18358479  1
  O2-  O469  1  0.91545537  0.07482921  0.51981388  1
  O2-  O470  1  0.90886070  0.07913805  0.84875451  1
  O2-  O471  1  0.92219914  0.35594950  0.20281141  1
  O2-  O472  1  0.91877250  0.33532264  0.51772212  1
  O2-  O473  1  0.91211622  0.32733235  0.85848176  1
  O2-  O474  1  0.90587137  0.59163120  0.17469738  1
  O2-  O475  1  0.92211407  0.59664793  0.52708203  1
  O2-  O476  1  0.90064475  0.53795412  0.86234334  1
  O2-  O477  1  0.91496504  0.83452877  0.18363283  1
  O2-  O478  1  0.88827740  0.82850585  0.52533667  1
  O2-  O479  1  0.91696171  0.83855056  0.85598697  1
  O2-  O480  1  0.17331917  0.09282183  0.30586274  1
  O2-  O481  1  0.14920666  0.06822577  0.63696397  1
  O2-  O482  1  0.16367226  0.08115926  0.96755031  1
  O2-  O483  1  0.17284808  0.32782061  0.31430343  1
  O2-  O484  1  0.15900183  0.31907889  0.63853979  1
  O2-  O485  1  0.16472948  0.33965006  0.97345566  1
  O2-  O486  1  0.15479484  0.58904231  0.31575241  1
  O2-  O487  1  0.16946518  0.57353660  0.64787421  1
  O2-  O488  1  0.17388437  0.57110741  0.99940649  1
  O2-  O489  1  0.16772879  0.83952137  0.30312724  1
  O2-  O490  1  0.16723295  0.84072543  0.63236280  1
  O2-  O491  1  0.16906074  0.82833008  0.98350577  1
  O2-  O492  1  0.41215369  0.07721692  0.31127815  1
  O2-  O493  1  0.41784369  0.08003795  0.63996678  1
  O2-  O494  1  0.42946284  0.08020697  0.98681322  1
  O2-  O495  1  0.43022840  0.34137093  0.31343306  1
  O2-  O496  1  0.43490592  0.29860063  0.62237071  1
  O2-  O497  1  0.44207945  0.35322034  0.99305450  1
  O2-  O498  1  0.41762159  0.59750181  0.32489534  1
  O2-  O499  1  0.44874596  0.65317184  0.62476911  1
  O2-  O500  1  0.41296394  0.59053960  0.97969308  1
  O2-  O501  1  0.40499697  0.83109671  0.31763368  1
  O2-  O502  1  0.41673553  0.84122484  0.64716995  1
  O2-  O503  1  0.42258869  0.83805799  0.99752319  1
  O2-  O504  1  0.67918665  0.09629553  0.30240044  1
  O2-  O505  1  0.65091564  0.08242278  0.63745522  1
  O2-  O506  1  0.67053079  0.07826032  0.97876362  1
  O2-  O507  1  0.65731402  0.32409981  0.31337622  1
  O2-  O508  1  0.65359332  0.33738818  0.65191125  1
  O2-  O509  1  0.67901901  0.35349549  0.98254292  1
  O2-  O510  1  0.60771321  0.56388693  0.30189396  1
  O2-  O511  1  0.66713333  0.60484371  0.63640187  1
  O2-  O512  1  0.65688797  0.58432203  0.98065494  1
  O2-  O513  1  0.67915684  0.83733614  0.31343883  1
  O2-  O514  1  0.66048317  0.83694556  0.65376583  1
  O2-  O515  1  0.66831683  0.83603113  0.97798609  1
  O2-  O516  1  0.91127844  0.10004108  0.30934730  1
  O2-  O517  1  0.91030545  0.07177836  0.64559981  1
  O2-  O518  1  0.92314706  0.08562549  0.97072895  1
  O2-  O519  1  0.91184737  0.33801975  0.32217782  1
  O2-  O520  1  0.92522604  0.33399842  0.63718371  1
  O2-  O521  1  0.92221961  0.33140567  0.97975429  1
  O2-  O522  1  0.91160987  0.58548526  0.30655552  1
  O2-  O523  1  0.91891173  0.59184977  0.64908907  1
  O2-  O524  1  0.93221755  0.56103620  0.99249088  1
  O2-  O525  1  0.92008848  0.84618500  0.30906088  1
  O2-  O526  1  0.91772736  0.83367155  0.64719007  1
  O2-  O527  1  0.91217362  0.84698531  0.97683190  1
  O2-  O528  1  0.08675379  0.17396368  0.01511039  1
  O2-  O529  1  0.07887970  0.16413879  0.34676346  1
  O2-  O530  1  0.07803380  0.16239051  0.67805364  1
  O2-  O531  1  0.08273225  0.41011536  0.02659459  1
  O2-  O532  1  0.07410776  0.41238697  0.33283461  1
  O2-  O533  1  0.08893724  0.40868728  0.68273867  1
  O2-  O534  1  0.09307835  0.66434768  0.02324943  1
  O2-  O535  1  0.08087363  0.68675853  0.33663754  1
  O2-  O536  1  0.08498739  0.65353381  0.69059721  1
  O2-  O537  1  0.05842664  0.86264251  0.03133912  1
  O2-  O538  1  0.08315541  0.92649421  0.34349042  1
  O2-  O539  1  0.08498774  0.90830455  0.68629120  1
  O2-  O540  1  0.31530745  0.13432375  0.02090171  1
  O2-  O541  1  0.33911794  0.17067134  0.34738993  1
  O2-  O542  1  0.29395156  0.20863538  0.68540289  1
  O2-  O543  1  0.32767978  0.42022259  0.01146813  1
  O2-  O544  1  0.34992240  0.42603938  0.34795444  1
  O2-  O545  1  0.30924727  0.35541352  0.69456340  1
  O2-  O546  1  0.34013362  0.66451950  0.03709454  1
  O2-  O547  1  0.31859324  0.66814605  0.36022727  1
  O2-  O548  1  0.33500557  0.67551789  0.68511371  1
  O2-  O549  1  0.33346021  0.91982687  0.02862660  1
  O2-  O550  1  0.31520009  0.91255323  0.33844712  1
  O2-  O551  1  0.31882424  0.90726272  0.66942608  1
  O2-  O552  1  0.60152985  0.17582641  0.02121692  1
  O2-  O553  1  0.57767020  0.15835354  0.34896988  1
  O2-  O554  1  0.57111877  0.16807363  0.68614027  1
  O2-  O555  1  0.59800206  0.42603185  0.02265313  1
  O2-  O556  1  0.58064733  0.39989938  0.35224192  1
  O2-  O557  1  0.55829326  0.40113861  0.70327310  1
  O2-  O558  1  0.57628318  0.66940220  0.01836637  1
  O2-  O559  1  0.57346542  0.67283842  0.36556548  1
  O2-  O560  1  0.58480088  0.67147398  0.69015201  1
  O2-  O561  1  0.58565283  0.91567808  0.02669931  1
  O2-  O562  1  0.59252023  0.92401652  0.33493511  1
  O2-  O563  1  0.57904072  0.92063110  0.69240337  1
  O2-  O564  1  0.83885609  0.16222748  0.00912261  1
  O2-  O565  1  0.82993587  0.18774855  0.35971082  1
  O2-  O566  1  0.85711473  0.17169608  0.68803602  1
  O2-  O567  1  0.83356304  0.40202851  0.03790162  1
  O2-  O568  1  0.82997874  0.42247187  0.34792267  1
  O2-  O569  1  0.87935810  0.43231862  0.69236252  1
  O2-  O570  1  0.81239850  0.67748825  0.01723077  1
  O2-  O571  1  0.84448999  0.68070272  0.36118587  1
  O2-  O572  1  0.83019767  0.67117708  0.68394178  1
  O2-  O573  1  0.83355827  0.92819375  0.02054158  1
  O2-  O574  1  0.85454436  0.93729465  0.35192640  1
  O2-  O575  1  0.82813226  0.91150813  0.68667393  1
