# generated using pymatgen
data_H2O
_symmetry_space_group_name_H-M   'P 1'
_cell_length_a   17.96832024
_cell_length_b   17.95805290
_cell_length_c   21.98514721
_cell_angle_alpha   89.98821971
_cell_angle_beta   89.98637966
_cell_angle_gamma   120.02969937
_symmetry_Int_Tables_number   1
_chemical_formula_structural   H2O
_chemical_formula_sum   'H384 O192'
_cell_volume   6141.81376295
_cell_formula_units_Z   192
loop_
 _symmetry_equiv_pos_site_id
 _symmetry_equiv_pos_as_xyz
  1  'x, y, z'
loop_
 _atom_type_symbol
 _atom_type_oxidation_number
  H+  1.0
  O2-  -2.0
loop_
 _atom_site_type_symbol
 _atom_site_label
 _atom_site_symmetry_multiplicity
 _atom_site_fract_x
 _atom_site_fract_y
 _atom_site_fract_z
 _atom_site_occupancy
  H+  H0  1  0.77507232  0.63129135  0.49227053  1
  H+  H1  1  0.83625060  0.48162771  0.01067179  1
  H+  H2  1  0.88421924  0.25620851  0.97113790  1
  H+  H3  1  0.43807035  0.85721788  0.60791998  1
  H+  H4  1  0.13567472  0.62079090  0.17547279  1
  H+  H5  1  0.49886184  0.09589598  0.83392129  1
  H+  H6  1  -0.04010411  0.09704669  0.18476535  1
  H+  H7  1  0.16928349  0.84742433  0.25712221  1
  H+  H8  1  0.86450813  -0.02276109  0.68288121  1
  H+  H9  1  0.08800388  0.08372686  0.36096392  1
  H+  H10  1  0.21507276  0.18805529  0.07536052  1
  H+  H11  1  0.61243405  0.62347150  0.49869580  1
  H+  H12  1  0.74916032  0.28013335  0.55569641  1
  H+  H13  1  0.92612043  0.05964083  0.90112957  1
  H+  H14  1  0.11800031  0.15826188  0.67107983  1
  H+  H15  1  0.89711120  0.23448186  0.12962437  1
  H+  H16  1  0.06343193  0.44993934  0.75424491  1
  H+  H17  1  0.77172721  0.63972154  0.00942247  1
  H+  H18  1  0.48709367  0.13347943  0.50942772  1
  H+  H19  1  0.73004052  0.11204637  0.99210233  1
  H+  H20  1  0.27097516  0.78719127  0.77562966  1
  H+  H21  1  0.02435575  0.22427785  0.05315633  1
  H+  H22  1  -0.04217908  0.08196488  0.34175295  1
  H+  H23  1  0.08195055  0.11853917  0.52269892  1
  H+  H24  1  0.06949884  0.32037244  0.16396120  1
  H+  H25  1  0.39080504  0.10051125  0.84675851  1
  H+  H26  1  0.09823956  0.48192527  0.34295179  1
  H+  H27  1  0.62875538  0.48040375  0.66702429  1
  H+  H28  1  0.52500733  0.14199533  0.68220977  1
  H+  H29  1  0.13869365  0.85968228  0.84226108  1
  H+  H30  1  0.22585019  0.10846393  0.81412891  1
  H+  H31  1  0.88310113  0.77159167  1.00052283  1
  H+  H32  1  0.88544567  0.85604862  0.34082011  1
  H+  H33  1  0.86529328  0.71731696  0.33975933  1
  H+  H34  1  0.87357644  0.85648807  0.18513148  1
  H+  H35  1  0.12923894  0.62307226  0.33025506  1
  H+  H36  1  0.24156494  0.34898383  0.84091582  1
  H+  H37  1  0.89118901  0.84485202  0.84404505  1
  H+  H38  1  0.87043100  0.22900506  0.65917519  1
  H+  H39  1  0.49620250  0.36822282  0.18547296  1
  H+  H40  1  0.73635437  0.61239136  0.66844420  1
  H+  H41  1  0.65691608  0.75145490  0.52206632  1
  H+  H42  1  0.15924157  0.08424694  0.72090280  1
  H+  H43  1  0.77638373  0.88656346  0.68251759  1
  H+  H44  1  0.77658259  0.36985911  0.69522960  1
  H+  H45  1  0.67181745  0.82968253  0.93810512  1
  H+  H46  1  0.05958801  1.02096979  -0.07488240  1
  H+  H47  1  0.64892908  0.36423376  0.81941968  1
  H+  H48  1  0.61051024  0.72163911  0.35084667  1
  H+  H49  1  0.63062393  0.39173607  0.15901585  1
  H+  H50  1  0.00574447  0.86897967  0.17022322  1
  H+  H51  1  0.33142529  0.91078685  0.72165939  1
  H+  H52  1  0.38566283  0.75677959  0.83497804  1
  H+  H53  1  0.85865506  0.63282379  0.16289931  1
  H+  H54  1  0.51477678  0.38950169  0.00564862  1
  H+  H55  1  0.63410498  0.23236046  0.50024977  1
  H+  H56  1  0.13509938  0.49688311  0.49768737  1
  H+  H57  1  0.13602505  0.27164794  0.99590317  1
  H+  H58  1  0.87916084  0.33107159  0.80723030  1
  H+  H59  1  0.38147104  0.08415680  0.99700171  1
  H+  H60  1  0.35246605  0.90105926  0.65294655  1
  H+  H61  1  0.33860836  0.72355435  0.47905346  1
  H+  H62  1  0.88183201  0.75335024  0.49490646  1
  H+  H63  1  0.62673687  0.72036764  0.83053810  1
  H+  H64  1  0.67354348  0.10815149  0.07812003  1
  H+  H65  1  0.38875072  0.85314032  0.17160628  1
  H+  H66  1  0.88732808  0.85246191  0.50284514  1
  H+  H67  1  0.51534207  0.59264017  0.00107095  1
  H+  H68  1  0.21834354  0.34925189  0.48889247  1
  H+  H69  1  0.00299979  0.62473007  0.00351880  1
  H+  H70  1  0.43939156  0.38024089  0.70526844  1
  H+  H71  1  0.27271840  -0.13314886  0.16589448  1
  H+  H72  1  0.76409832  0.36207976  0.52052250  1
  H+  H73  1  0.85562258  0.11563752  -0.00792677  1
  H+  H74  1  0.62178333  0.99927512  0.13473113  1
  H+  H75  1  0.39748250  0.75888136  -0.00685273  1
  H+  H76  1  0.04256145  0.65359053  0.49828702  1
  H+  H77  1  0.38125359  0.60717390  0.17823506  1
  H+  H78  1  0.60953090  0.63200163  0.34392829  1
  H+  H79  1  0.49047460  0.14583659  0.18491283  1
  H+  H80  1  0.22718878  0.60054899  0.49952802  1
  H+  H81  1  0.63929966  0.52108055  0.17388602  1
  H+  H82  1  0.67995971  0.32946930  0.23101302  1
  H+  H83  1  0.72548558  0.61053540  0.32692732  1
  H+  H84  1  0.38453177  0.61691592  0.32921967  1
  H+  H85  1  0.52732004  0.87171170  0.83388680  1
  H+  H86  1  0.43140405  0.33454525  0.27418125  1
  H+  H87  1  0.90310201  0.48050683  0.16543685  1
  H+  H88  1  0.73454319  0.35124429  0.32529281  1
  H+  H89  1  0.56874562  0.17336011  0.09852903  1
  H+  H90  1  0.22072354  0.92804228  0.21057991  1
  H+  H91  1  0.59545617  0.91308840  0.77984270  1
  H+  H92  1  0.11433286  0.37773554  0.48212661  1
  H+  H93  1  0.60103132  0.82963508  0.20288164  1
  H+  H94  1  0.97187709  0.61466708  0.17291215  1
  H+  H95  1  0.63789228  0.60686724  0.98235253  1
  H+  H96  1  0.84716903  0.96893373  0.17254934  1
  H+  H97  1  0.29552777  0.28214902  1.06388888  1
  H+  H98  1  0.39211972  0.26409628  0.32795044  1
  H+  H99  1  0.00847410  0.38524765  0.34386342  1
  H+  H100  1  0.38379433  0.24524868  0.46506285  1
  H+  H101  1  0.97204139  0.61048884  0.65482230  1
  H+  H102  1  0.63471829  0.02519530  0.99354213  1
  H+  H103  1  0.87192459  0.95244052  0.83559841  1
  H+  H104  1  0.61050583  0.47401273  0.00935682  1
  H+  H105  1  0.21823259  0.84183123  0.83863624  1
  H+  H106  1  0.08629162  0.38367525  0.70629025  1
  H+  H107  1  0.96473590  0.10557393  1.00160537  1
  H+  H108  1  0.14210431  0.40097877  0.30718138  1
  H+  H109  1  0.23244582  0.38257028  0.63244704  1
  H+  H110  1  0.11219780  0.96518437  0.34699299  1
  H+  H111  1  0.26120065  0.88993037  0.44125746  1
  H+  H112  1  0.82720334  0.90786994  0.07693952  1
  H+  H113  1  0.08478970  0.21045368  0.17135800  1
  H+  H114  1  0.62126577  0.27106878  -0.00268772  1
  H+  H115  1  0.74250641  0.39300697  0.01463005  1
  H+  H116  1  0.72925282  0.86709815  -0.00096855  1
  H+  H117  1  -0.00866690  0.35916607  0.65082808  1
  H+  H118  1  0.85448949  -0.03458848  0.35421397  1
  H+  H119  1  0.27429316  0.35769520  1.00960513  1
  H+  H120  1  0.22651667  0.10004246  0.33185065  1
  H+  H121  1  0.10757142  0.00448986  0.18572843  1
  H+  H122  1  0.63476503  0.86157186  0.34268167  1
  H+  H123  1  0.12184635  0.60941815  0.83709982  1
  H+  H124  1  0.61638214  0.23678375  0.15658422  1
  H+  H125  1  0.46565998  0.57299431  0.66545294  1
  H+  H126  1  0.63489200  0.10885424  0.66894852  1
  H+  H127  1  0.77859213  0.14036193  0.66780256  1
  H+  H128  1  0.51618824  0.62762999  0.17552559  1
  H+  H129  1  0.54643766  0.38981506  0.65235318  1
  H+  H130  1  -0.03322836  0.10292527  0.51773230  1
  H+  H131  1  0.47273068  0.85505506  0.98492983  1
  H+  H132  1  0.11121737  0.87452381  0.67797611  1
  H+  H133  1  0.79550174  0.16268399  0.13693280  1
  H+  H134  1  0.88425481  0.61017842  0.65541654  1
  H+  H135  1  0.86084293  0.87987463  1.01731749  1
  H+  H136  1  0.11232327  0.50395123  0.98385322  1
  H+  H137  1  0.25933973  0.62976790  0.81962816  1
  H+  H138  1  0.37360753  0.98984948  -0.00270642  1
  H+  H139  1  0.61486508  0.89352519  -0.00421179  1
  H+  H140  1  0.26251970  0.85779968  1.00686588  1
  H+  H141  1  0.43830730  0.86618561  0.47926705  1
  H+  H142  1  0.39908232  0.36031717  0.84164792  1
  H+  H143  1  0.78633223  0.86715974  0.51148180  1
  H+  H144  1  0.15359622  0.06709669  0.27910460  1
  H+  H145  1  0.64459503  0.60734389  0.66253582  1
  H+  H146  1  0.10410740  0.37440852  0.99844113  1
  H+  H147  1  0.97380472  0.85431755  0.67596443  1
  H+  H148  1  0.41127578  0.58034063  0.23914493  1
  H+  H149  1  1.02914773  0.68021489  0.38515453  1
  H+  H150  1  0.31088441  0.18411172  0.14740371  1
  H+  H151  1  0.86840803  0.23514419  0.34960921  1
  H+  H152  1  0.60288132  0.10183609  0.83601714  1
  H+  H153  1  0.34695793  0.40697243  0.11313275  1
  H+  H154  1  -0.02191812  0.09488173  0.83803293  1
  H+  H155  1  0.59674728  0.77374293  0.03776904  1
  H+  H156  1  0.11121199  0.59140627  0.98796165  1
  H+  H157  1  0.06312844  0.04527000  0.95375564  1
  H+  H158  1  0.31913935  0.41585125  0.41716274  1
  H+  H159  1  0.62091556  0.98226831  0.34583672  1
  H+  H160  1  0.63221049  0.01090224  0.85066983  1
  H+  H161  1  0.60520204  0.13631835  0.00748406  1
  H+  H162  1  0.62209165  0.75523485  0.19172387  1
  H+  H163  1  0.11834385  0.24622786  0.65761601  1
  H+  H164  1  0.86492588  0.72409865  0.68763342  1
  H+  H165  1  0.26602013  0.64407360  0.33348837  1
  H+  H166  1  0.40714041  0.88954731  0.31337280  1
  H+  H167  1  0.62331302  0.98196093  0.68160316  1
  H+  H168  1  0.89967355  0.61828985  0.50275241  1
  H+  H169  1  0.68238345  0.89059042  0.45071828  1
  H+  H170  1  0.88071742  0.39904355  0.49171393  1
  H+  H171  1  0.38667224  0.04409929  0.66412687  1
  H+  H172  1  0.41052303  0.28302778  0.98282428  1
  H+  H173  1  0.02897192  0.88173383  0.83398771  1
  H+  H174  1  0.35188747  0.25603384  0.68896227  1
  H+  H175  1  0.85819773  0.72257866  0.16823460  1
  H+  H176  1  0.43904803  0.59722771  0.75535686  1
  H+  H177  1  0.39295506  0.37801804  0.46018957  1
  H+  H178  1  0.88231106  1.00266651  0.52087172  1
  H+  H179  1  0.63430837  0.91837603  0.14072013  1
  H+  H180  1  0.72777945  0.35316824  0.80438394  1
  H+  H181  1  0.35127747  0.47284762  0.47890361  1
  H+  H182  1  -0.02044584  0.36214918  0.50209978  1
  H+  H183  1  0.50841543  0.11617120  0.00557817  1
  H+  H184  1  0.10465723  0.74238349  0.33683633  1
  H+  H185  1  0.87661736  0.10457734  0.17862387  1
  H+  H186  1  0.38046044  0.15686120  0.48579499  1
  H+  H187  1  0.10862791  0.04894271  0.60553228  1
  H+  H188  1  0.72522340  0.61311724  0.17452738  1
  H+  H189  1  0.11491966  0.27108447  0.37527579  1
  H+  H190  1  0.38171037  0.60896141  0.49435737  1
  H+  H191  1  0.53925369  0.40207248  0.47494582  1
  H+  H192  1  0.83580859  0.89789185  0.77476685  1
  H+  H193  1  0.18979192  0.09131501  0.48245454  1
  H+  H194  1  0.87814839  0.61684084  0.99242950  1
  H+  H195  1  0.34512071  0.62501860  0.80409295  1
  H+  H196  1  0.58405761  0.65853301  0.44183399  1
  H+  H197  1  0.71899889  0.11308300  0.51194417  1
  H+  H198  1  0.20817769  0.59989790  0.64972790  1
  H+  H199  1  0.74736681  0.60510446  0.84471081  1
  H+  H200  1  0.85947714  0.62400818  0.33569199  1
  H+  H201  1  0.85046998  0.22787923  0.49878827  1
  H+  H202  1  0.83202619  0.65790067  0.42961457  1
  H+  H203  1  0.65329403  0.36327760  0.66904223  1
  H+  H204  1  0.89906785  0.35724887  0.66090807  1
  H+  H205  1  0.91692126  0.32817988  0.28378435  1
  H+  H206  1  -0.02611879  0.85835458  0.00282893  1
  H+  H207  1  0.32876787  0.72793416  0.65463753  1
  H+  H208  1  0.61447742  0.13718650  0.49886997  1
  H+  H209  1  0.91498882  0.31436637  0.91182972  1
  H+  H210  1  0.96964901  0.37599113  0.13596826  1
  H+  H211  1  0.35955484  0.41741051  0.67208016  1
  H+  H212  1  0.20943068  0.08997047  0.51221355  1
  H+  H213  1  0.36339156  0.47649391  0.32892467  1
  H+  H214  1  0.58842859  0.65552140  0.74505415  1
  H+  H215  1  0.35840013  0.38451416  0.32800584  1
  H+  H216  1  0.20892984  0.85036347  0.34172822  1
  H+  H217  1  0.40700638  0.36804197  0.18595947  1
  H+  H218  1  0.37244807  0.36331398  1.00232650  1
  H+  H219  1  0.22251855  0.61788552  0.17826817  1
  H+  H220  1  0.08927463  0.96230307  0.49564214  1
  H+  H221  1  0.97578702  0.35361636  0.81777605  1
  H+  H222  1  0.13103239  0.84718002  -0.00158387  1
  H+  H223  1  0.61468505  0.42634434  0.43165656  1
  H+  H224  1  0.73125344  0.11193730  0.33885218  1
  H+  H225  1  0.40364516  0.24754735  0.83247463  1
  H+  H226  1  0.10104962  0.87894980  0.17575160  1
  H+  H227  1  0.10158561  0.62498683  0.66946908  1
  H+  H228  1  0.63243906  0.63345930  0.82838728  1
  H+  H229  1  0.00939584  0.36304429  -0.01410121  1
  H+  H230  1  0.14506053  0.27198609  0.84154228  1
  H+  H231  1  0.64489767  0.85194589  0.84516414  1
  H+  H232  1  0.36893061  0.72226805  0.16391508  1
  H+  H233  1  0.73400887  0.84934685  0.84477697  1
  H+  H234  1  0.70555916  0.92919183  0.47086980  1
  H+  H235  1  0.10025854  0.21384126  0.50112899  1
  H+  H236  1  0.13743029  0.01815488  0.81252670  1
  H+  H237  1  0.43426194  0.35553186  0.40497278  1
  H+  H238  1  0.01680316  0.35912647  0.08122187  1
  H+  H239  1  0.46694413  0.18332889  0.24158873  1
  H+  H240  1  0.33624648  0.18307340  0.04634307  1
  H+  H241  1  0.87994353  0.50523630  0.32373298  1
  H+  H242  1  0.11063824  0.87256237  0.34575012  1
  H+  H243  1  0.19884626  0.08959028  0.19075605  1
  H+  H244  1  0.73653172  0.35051313  0.16882296  1
  H+  H245  1  0.52859473  0.89337992  0.33978228  1
  H+  H246  1  0.53096709  0.39484589  0.82789894  1
  H+  H247  1  0.63723233  0.76647777  0.67565390  1
  H+  H248  1  0.81932975  0.40191118  0.08790758  1
  H+  H249  1  0.88276790  1.00966383  -0.00028959  1
  H+  H250  1  0.62469805  1.02482264  0.51047702  1
  H+  H251  1  0.01489457  -0.01575828  0.58468219  1
  H+  H252  1  0.10454151  0.73058916  0.15259438  1
  H+  H253  1  0.13248117  0.76946055  0.66316474  1
  H+  H254  1  0.90964151  0.07227360  0.58573392  1
  H+  H255  1  0.54722735  0.60611073  1.02684639  1
  H+  H256  1  0.39314595  0.13683236  0.66369534  1
  H+  H257  1  0.36712077  0.45681317  0.80207701  1
  H+  H258  1  0.97955361  0.12494299  0.65782636  1
  H+  H259  1  0.11082343  0.14085471  0.80591369  1
  H+  H260  1  0.47407068  0.61565422  0.33372548  1
  H+  H261  1  0.87914567  0.48792080  0.49321584  1
  H+  H262  1  0.34793370  0.85371680  0.45655644  1
  H+  H263  1  0.61285627  0.21914998  0.34100337  1
  H+  H264  1  0.37038097  0.47017387  0.16931679  1
  H+  H265  1  0.90632065  0.82749210  0.24416426  1
  H+  H266  1  0.12444279  0.50241111  0.64881099  1
  H+  H267  1  0.56708607  0.88152919  0.49364124  1
  H+  H268  1  -0.02407873  0.85753495  0.33629378  1
  H+  H269  1  0.00102331  0.64040711  0.82083460  1
  H+  H270  1  0.35042090  0.84470647  0.81624455  1
  H+  H271  1  0.88539776  0.11892761  0.65870121  1
  H+  H272  1  0.75936349  0.87835442  0.17201562  1
  H+  H273  1  0.15510243  0.88013109  0.49564068  1
  H+  H274  1  0.64879884  0.51991879  0.50463881  1
  H+  H275  1  0.87082625  0.37609746  0.34152222  1
  H+  H276  1  0.09643521  0.71991763  0.82500465  1
  H+  H277  1  0.35877542  0.48312822  0.99941526  1
  H+  H278  1  0.76826585  0.87503743  0.35735397  1
  H+  H279  1  0.61818413  0.35791469  0.99907951  1
  H+  H280  1  0.34945844  0.13726793  0.18790485  1
  H+  H281  1  0.23365266  0.13082608  0.67439036  1
  H+  H282  1  0.48360550  0.86603023  0.16826638  1
  H+  H283  1  0.37605103  0.62243782  1.01245209  1
  H+  H284  1  0.07739063  0.25223311  0.35383620  1
  H+  H285  1  0.09171593  0.12116245  0.17402210  1
  H+  H286  1  0.53629277  0.89288366  0.69000408  1
  H+  H287  1  0.53790754  0.38159529  0.33763672  1
  H+  H288  1  0.33925334  0.16155973  0.39458248  1
  H+  H289  1  0.68768670  0.81124784  0.58280570  1
  H+  H290  1  0.32176776  0.88445287  0.10204204  1
  H+  H291  1  0.96625668  0.59907573  0.31917078  1
  H+  H292  1  0.66092373  0.08153274  0.90423292  1
  H+  H293  1  0.34563490  0.66259129  0.10584461  1
  H+  H294  1  0.15868871  0.82019590  0.93600988  1
  H+  H295  1  0.84305250  0.65521447  0.74185110  1
  H+  H296  1  0.43368461  0.34175065  0.90716543  1
  H+  H297  1  0.07660960  0.18305180  0.75936133  1
  H+  H298  1  0.42200895  0.04535245  0.25933321  1
  H+  H299  1  0.17886151  0.32503776  0.93344861  1
  H+  H300  1  0.58493457  0.42320266  0.76476937  1
  H+  H301  1  0.41270670  0.81354132  0.89642618  1
  H+  H302  1  0.88654737  0.85710718  0.67660088  1
  H+  H303  1  0.67847013  0.57934686  0.92907371  1
  H+  H304  1  0.86726255  0.19412908  0.76447637  1
  H+  H305  1  0.08347032  0.41679729  0.42520337  1
  H+  H306  1  0.89990428  0.59271303  0.92734648  1
  H+  H307  1  0.23778152  0.20069326  0.92056503  1
  H+  H308  1  0.44573076  0.20756761  0.79104526  1
  H+  H309  1  0.22708914  0.39523710  0.29893354  1
  H+  H310  1  0.05266743  0.11100716  0.41894477  1
  H+  H311  1  0.67986336  0.57994875  0.56551459  1
  H+  H312  1  0.64847313  0.35651570  0.32211698  1
  H+  H313  1  0.86371260  0.14140446  0.35135063  1
  H+  H314  1  0.66538779  0.58286706  0.26778248  1
  H+  H315  1  0.57146114  0.14284597  0.77430936  1
  H+  H316  1  0.43160875  0.20351248  0.05171420  1
  H+  H317  1  0.45293068  0.70117697  0.04746717  1
  H+  H318  1  0.61895303  0.22362087  0.69068805  1
  H+  H319  1  0.32414819  0.47982839  0.69199566  1
  H+  H320  1  0.56932370  0.71551646  0.09827189  1
  H+  H321  1  0.48088326  0.09416192  0.35225878  1
  H+  H322  1  0.07512915  0.89888582  0.07970801  1
  H+  H323  1  0.42829553  0.84112149  0.26309625  1
  H+  H324  1  0.69180401  0.32804758  0.61711100  1
  H+  H325  1  0.66305747  0.82705260  0.28526862  1
  H+  H326  1  0.13481177  0.37099892  0.63713745  1
  H+  H327  1  0.46815561  0.60289368  0.82150344  1
  H+  H328  1  0.56590450  0.92246194  0.43019337  1
  H+  H329  1  0.21807615  0.86322699  0.66081685  1
  H+  H330  1  0.98153546  0.85109085  0.49557317  1
  H+  H331  1  0.92412347  0.82751121  0.90715174  1
  H+  H332  1  0.31341478  0.67535894  0.71688810  1
  H+  H333  1  0.13852634  0.33867831  0.21625512  1
  H+  H334  1  0.35186023  0.85680879  0.00482585  1
  H+  H335  1  0.64049415  0.13135782  0.13741900  1
  H+  H336  1  0.59136341  0.17117816  0.40591769  1
  H+  H337  1  0.92577654  0.58976709  0.56441970  1
  H+  H338  1  0.90138313  0.07016498  0.28119739  1
  H+  H339  1  0.83675355  0.41422035  0.39661263  1
  H+  H340  1  0.90804592  0.57233561  0.23043386  1
  H+  H341  1  0.07284005  0.65694847  0.72938151  1
  H+  H342  1  0.64067789  0.10753720  0.33660388  1
  H+  H343  1  0.81939034  0.16721850  0.44099608  1
  H+  H344  1  0.10286900  0.48328216  0.81847232  1
  H+  H345  1  0.11566232  0.96670702  0.68238046  1
  H+  H346  1  0.58839390  0.41687614  0.10314299  1
  H+  H347  1  0.65164342  0.52304823  0.83725083  1
  H+  H348  1  0.82909507  0.66782530  0.07088516  1
  H+  H349  1  0.83830464  0.90904018  0.44715335  1
  H+  H350  1  0.05493271  0.16706726  0.08547822  1
  H+  H351  1  0.65964629  0.07781129  0.60719313  1
  H+  H352  1  0.46659780  0.32855795  0.57181544  1
  H+  H353  1  0.25632677  0.17170006  0.92436306  1
  H+  H354  1  0.40677989  0.05352370  0.90263347  1
  H+  H355  1  0.31118053  0.50475833  0.94957141  1
  H+  H356  1  0.83952095  0.15725217  0.05120036  1
  H+  H357  1  0.16122547  0.56212987  0.56398528  1
  H+  H358  1  0.62289619  0.47377469  0.33267497  1
  H+  H359  1  0.16328206  0.79735210  0.49746822  1
  H+  H360  1  0.35748935  0.73219833  0.33462679  1
  H+  H361  1  0.15866709  0.59340083  0.27028649  1
  H+  H362  1  0.89228520  0.71676899  0.84368996  1
  H+  H363  1  0.36414428  0.83230983  0.56218883  1
  H+  H364  1  0.42656773  0.10944550  0.56703387  1
  H+  H365  1  0.57753313  0.91814965  0.05309106  1
  H+  H366  1  0.34420200  0.18424100  0.73347228  1
  H+  H367  1  0.31749167  0.65981483  0.42430400  1
  H+  H368  1  0.46672958  0.60289312  0.50135587  1
  H+  H369  1  0.16510939  0.33045645  0.55161796  1
  H+  H370  1  0.06903312  0.66361708  0.09699322  1
  H+  H371  1  0.60868823  0.63004114  0.17074296  1
  H+  H372  1  0.08235683  0.90406285  0.77097347  1
  H+  H373  1  0.07596507  0.90962832  0.43035384  1
  H+  H374  1  0.35184056  0.37427275  0.76062502  1
  H+  H375  1  0.15016931  0.57593323  0.89608429  1
  H+  H376  1  0.64002455  0.85718245  0.67126601  1
  H+  H377  1  0.09606007  0.70902421  0.00456048  1
  H+  H378  1  0.35993357  0.11752178  0.33917552  1
  H+  H379  1  0.34027384  0.95394550  0.39680159  1
  H+  H380  1  0.92483059  0.33876969  0.56422550  1
  H+  H381  1  0.11202985  0.96123621  0.02292820  1
  H+  H382  1  0.10774372  0.67606269  0.44370570  1
  H+  H383  1  0.44091717  0.33032992  0.59845689  1
  O2-  O384  1  0.05817594  0.14722928  0.15735607  1
  O2-  O385  1  0.06076654  0.14933739  0.49705004  1
  O2-  O386  1  0.07932824  0.17285016  0.80347786  1
  O2-  O387  1  -0.01194541  0.33570186  0.12164515  1
  O2-  O388  1  0.08728589  0.41371388  0.47220858  1
  O2-  O389  1  0.07086150  0.42938082  0.79363381  1
  O2-  O390  1  0.07278825  0.66942390  0.14292806  1
  O2-  O391  1  0.10442327  0.68832837  0.48661089  1
  O2-  O392  1  0.06260120  0.66090244  0.80784566  1
  O2-  O393  1  0.06598934  0.90012956  0.15385960  1
  O2-  O394  1  0.06912154  0.90542862  0.47757517  1
  O2-  O395  1  0.08872253  0.91260382  0.81653938  1
  O2-  O396  1  0.29662330  0.13074454  0.16903647  1
  O2-  O397  1  0.35027484  0.18167254  0.46203263  1
  O2-  O398  1  0.39020373  0.19145947  0.80941882  1
  O2-  O399  1  0.35107116  0.40977193  0.15779155  1
  O2-  O400  1  0.32120930  0.41186587  0.46257638  1
  O2-  O401  1  0.34135178  0.39372758  0.80308857  1
  O2-  O402  1  0.33372993  0.66120951  0.15047047  1
  O2-  O403  1  0.31674018  0.66123072  0.47005053  1
  O2-  O404  1  0.31790698  0.66125948  0.80036043  1
  O2-  O405  1  0.32964916  0.88873602  0.14698355  1
  O2-  O406  1  0.30210844  0.89327907  0.40766538  1
  O2-  O407  1  0.30317313  0.84546450  0.79195375  1
  O2-  O408  1  0.57652398  0.17497791  0.14382628  1
  O2-  O409  1  0.59389454  0.17569314  0.48177018  1
  O2-  O410  1  0.56263765  0.12640406  0.81891442  1
  O2-  O411  1  0.59750435  0.42088711  0.14845205  1
  O2-  O412  1  0.60276318  0.42684913  0.47561107  1
  O2-  O413  1  0.59016642  0.42914337  0.80936684  1
  O2-  O414  1  0.57873674  0.66380217  0.16353871  1
  O2-  O415  1  0.58310169  0.65626858  0.48723149  1
  O2-  O416  1  0.59889114  0.66041118  0.81304337  1
  O2-  O417  1  0.59053113  0.93416622  0.13325299  1
  O2-  O418  1  0.55111327  0.92110178  0.47559946  1
  O2-  O419  1  0.59044918  0.90597028  0.82475636  1
  O2-  O420  1  0.85345593  0.17157040  0.12880437  1
  O2-  O421  1  0.81237970  0.16723675  0.48627189  1
  O2-  O422  1  0.88219244  0.18639365  0.80682475  1
  O2-  O423  1  0.82217937  0.36861901  0.12789452  1
  O2-  O424  1  0.84625821  0.42652066  0.47893402  1
  O2-  O425  1  0.83836784  0.38894860  0.77069541  1
  O2-  O426  1  0.82872480  0.66424390  0.14906197  1
  O2-  O427  1  0.83585396  0.66367769  0.47521395  1
  O2-  O428  1  0.86050028  0.65617474  0.82709438  1
  O2-  O429  1  0.81911684  0.90784812  0.15673405  1
  O2-  O430  1  0.84643740  0.90815876  0.49263550  1
  O2-  O431  1  0.83492658  0.89070146  0.81979814  1
  O2-  O432  1  0.13639921  0.06379130  0.20288361  1
  O2-  O433  1  0.07096108  0.02737046  0.56924449  1
  O2-  O434  1  0.16657280  0.08071990  0.79971543  1
  O2-  O435  1  0.11248598  0.30527490  0.17776713  1
  O2-  O436  1  0.15826083  0.31934347  0.50572664  1
  O2-  O437  1  0.18581767  0.32633502  0.86246041  1
  O2-  O438  1  0.16452366  0.59366742  0.19645464  1
  O2-  O439  1  0.16696571  0.56003850  0.51690766  1
  O2-  O440  1  0.15629393  0.58272631  0.84986876  1
  O2-  O441  1  0.17969551  0.86638746  0.20901824  1
  O2-  O442  1  0.19802766  0.86153661  0.49766218  1
  O2-  O443  1  0.16199376  0.82312181  0.85853632  1
  O2-  O444  1  0.44282133  0.13294672  0.21520177  1
  O2-  O445  1  0.42613988  0.10736463  0.52218414  1
  O2-  O446  1  0.40952268  0.05876148  0.85717825  1
  O2-  O447  1  0.43786333  0.33905508  0.20383531  1
  O2-  O448  1  0.43345986  0.35640076  0.44973529  1
  O2-  O449  1  0.43505776  0.33695161  0.85897320  1
  O2-  O450  1  0.41339798  0.57851279  0.19373932  1
  O2-  O451  1  0.40354202  0.57084302  0.50717057  1
  O2-  O452  1  0.41503819  0.57862408  0.79730138  1
  O2-  O453  1  0.42687194  0.83014989  0.18750381  1
  O2-  O454  1  0.37503573  0.83137449  0.48617700  1
  O2-  O455  1  0.41837432  0.81729896  0.85077094  1
  O2-  O456  1  0.67515913  0.10469702  0.12284150  1
  O2-  O457  1  0.65799440  0.08197840  0.53015013  1
  O2-  O458  1  0.65475631  0.07310521  0.85953341  1
  O2-  O459  1  0.67769592  0.33250662  0.18545928  1
  O2-  O460  1  0.71970787  0.31189311  0.54592545  1
  O2-  O461  1  0.66582298  0.32064028  0.81312647  1
  O2-  O462  1  0.66469834  0.58154265  0.19016939  1
  O2-  O463  1  0.67868865  0.58190060  0.52039924  1
  O2-  O464  1  0.68601539  0.58280910  0.85552583  1
  O2-  O465  1  0.64838165  0.81800843  0.20635098  1
  O2-  O466  1  0.70523414  0.80313570  0.54176435  1
  O2-  O467  1  0.67269699  0.81912421  0.86008085  1
  O2-  O468  1  0.89797206  0.06926925  0.19879433  1
  O2-  O469  1  0.90625543  0.06434238  0.53590758  1
  O2-  O470  1  0.93037143  0.04454668  0.85846413  1
  O2-  O471  1  0.90337869  0.42503266  0.15877773  1
  O2-  O472  1  0.92025250  0.33825470  0.51827390  1
  O2-  O473  1  0.91499664  0.31412704  0.83216843  1
  O2-  O474  1  0.91032494  0.57606316  0.18468593  1
  O2-  O475  1  0.93280170  0.59165378  0.51801908  1
  O2-  O476  1  0.90488016  0.61262978  0.85132670  1
  O2-  O477  1  0.90409466  0.82561157  0.19854031  1
  O2-  O478  1  0.91710203  0.81693994  0.51109608  1
  O2-  O479  1  0.92754450  0.82198360  0.86208639  1
  O2-  O480  1  0.16302372  0.06625342  0.32392210  1
  O2-  O481  1  0.16834903  0.09244493  0.67593815  1
  O2-  O482  1  0.27720338  0.22214145  1.07933515  1
  O2-  O483  1  0.18178586  0.39921823  0.27653752  1
  O2-  O484  1  0.17149736  0.34244340  0.62201127  1
  O2-  O485  1  0.17631081  0.32943252  0.97985524  1
  O2-  O486  1  0.15969597  0.59326639  0.31657610  1
  O2-  O487  1  0.14862328  0.56365385  0.63246787  1
  O2-  O488  1  0.14121023  0.56405262  0.96845931  1
  O2-  O489  1  0.15434770  0.82796492  0.31945931  1
  O2-  O490  1  0.15613116  0.83064326  0.65092203  1
  O2-  O491  1  0.15859381  0.81567579  0.98150709  1
  O2-  O492  1  0.41608709  0.05301338  0.34658513  1
  O2-  O493  1  0.42398848  0.10569247  0.65258233  1
  O2-  O494  1  0.40581096  0.04966240  0.97988481  1
  O2-  O495  1  0.42422822  0.32769669  0.32086067  1
  O2-  O496  1  0.37727736  0.35042040  0.70088638  1
  O2-  O497  1  0.42953133  0.34314968  0.97264720  1
  O2-  O498  1  0.41478830  0.58580740  0.31616033  1
  O2-  O499  1  0.49229841  0.62973563  0.68648908  1
  O2-  O500  1  0.36203000  0.53151503  0.97531199  1
  O2-  O501  1  0.42516988  0.84645802  0.30855303  1
  O2-  O502  1  0.37636377  0.83524382  0.60729503  1
  O2-  O503  1  0.41161080  0.81510373  0.97314625  1
  O2-  O504  1  0.67047948  0.07610227  0.32421725  1
  O2-  O505  1  0.66399777  0.07780862  0.65285670  1
  O2-  O506  1  0.66574186  0.08939532  0.98738526  1
  O2-  O507  1  0.67404931  0.32100178  0.30845327  1
  O2-  O508  1  0.68153284  0.32843754  0.66181325  1
  O2-  O509  1  0.65220698  0.33159430  0.98399350  1
  O2-  O510  1  0.66421564  0.58135914  0.31346236  1
  O2-  O511  1  0.67805697  0.58093757  0.64788973  1
  O2-  O512  1  0.67379037  0.58127204  0.97504375  1
  O2-  O513  1  0.66378626  0.82823659  0.33056937  1
  O2-  O514  1  0.67049101  0.82604523  0.65947816  1
  O2-  O515  1  0.66968183  0.84161013  0.98234236  1
  O2-  O516  1  0.89928974  0.06765031  0.32635566  1
  O2-  O517  1  0.91729116  0.08628795  0.64647769  1
  O2-  O518  1  0.91072268  0.06704813  0.97909083  1
  O2-  O519  1  0.91758252  0.33219036  0.32797952  1
  O2-  O520  1  0.92528390  0.32916208  0.63766531  1
  O2-  O521  1  0.91760105  0.31638034  0.95687859  1
  O2-  O522  1  0.90480828  0.56606698  0.30660400  1
  O2-  O523  1  0.91438936  0.58334849  0.63540852  1
  O2-  O524  1  0.90286718  0.58417553  0.97255811  1
  O2-  O525  1  0.91438069  0.82642378  0.32202638  1
  O2-  O526  1  0.91254293  0.82242641  0.66325443  1
  O2-  O527  1  0.91495574  0.83319805  0.98577324  1
  O2-  O528  1  0.04741295  0.18657829  0.04365672  1
  O2-  O529  1  0.03603520  0.07996138  0.37988882  1
  O2-  O530  1  0.08395439  0.18742519  0.67659713  1
  O2-  O531  1  0.06404065  0.39389348  0.01189049  1
  O2-  O532  1  0.07441301  0.42155363  0.35671755  1
  O2-  O533  1  0.08215138  0.40120332  0.66495321  1
  O2-  O534  1  0.06188746  0.65010888  0.02208550  1
  O2-  O535  1  0.06529438  0.67605426  0.35385883  1
  O2-  O536  1  0.07821154  0.66143717  0.68406577  1
  O2-  O537  1  0.07915209  0.90052429  0.03358004  1
  O2-  O538  1  0.07855349  0.90417892  0.36234680  1
  O2-  O539  1  0.08197628  0.90682541  0.69636657  1
  O2-  O540  1  0.38148251  0.17541988  0.02529170  1
  O2-  O541  1  0.33435483  0.15392208  0.34761630  1
  O2-  O542  1  0.33548044  0.19123534  0.68975605  1
  O2-  O543  1  0.33047239  0.37623392  0.03049783  1
  O2-  O544  1  0.32694614  0.41438979  0.33994982  1
  O2-  O545  1  0.34716805  0.46508765  0.65682301  1
  O2-  O546  1  0.39128695  0.67706717  0.03430952  1
  O2-  O547  1  0.32744583  0.67118129  0.34785704  1
  O2-  O548  1  0.30694601  0.67031061  0.67209210  1
  O2-  O549  1  0.32284703  0.88708387  0.02258778  1
  O2-  O550  1  0.41220803  1.00295414  0.29253252  1
  O2-  O551  1  0.33219504  0.93188706  0.67987436  1
  O2-  O552  1  0.56672059  0.15764872  0.02206069  1
  O2-  O553  1  0.58229621  0.16111547  0.36083809  1
  O2-  O554  1  0.58291700  0.16096556  0.70059386  1
  O2-  O555  1  0.57431045  0.41645942  0.02738319  1
  O2-  O556  1  0.60042970  0.41342661  0.34729485  1
  O2-  O557  1  0.59543918  0.41766295  0.68000356  1
  O2-  O558  1  0.55422953  0.75013345  0.07128837  1
  O2-  O559  1  0.57807086  0.65928872  0.36226012  1
  O2-  O560  1  0.58260568  0.65409983  0.69711948  1
  O2-  O561  1  0.57955598  0.92049122  0.00779559  1
  O2-  O562  1  0.58539558  0.91921984  0.36093060  1
  O2-  O563  1  0.59746808  0.92133006  0.69913279  1
  O2-  O564  1  0.82869922  0.15022645  0.00635967  1
  O2-  O565  1  0.83388140  0.17245027  0.36477442  1
  O2-  O566  1  0.84101873  0.16866707  0.67664900  1
  O2-  O567  1  0.79597477  0.43539020  0.03826362  1
  O2-  O568  1  0.83575334  0.40867435  0.35159828  1
  O2-  O569  1  0.83848047  0.39234512  0.70824792  1
  O2-  O570  1  0.83181534  0.67219881  0.02544783  1
  O2-  O571  1  0.83182365  0.65589155  0.35328753  1
  O2-  O572  1  0.83344548  0.66033892  0.69818742  1
  O2-  O573  1  0.82933656  0.90961741  0.03155650  1
  O2-  O574  1  0.82957995  0.90537513  0.37114226  1
  O2-  O575  1  0.83697318  0.91709534  0.69745330  1
