# generated using pymatgen
data_H2O
_symmetry_space_group_name_H-M   'P 1'
_cell_length_a   17.98664494
_cell_length_b   17.98606433
_cell_length_c   21.99847371
_cell_angle_alpha   89.98573042
_cell_angle_beta   89.98425707
_cell_angle_gamma   120.02448654
_symmetry_Int_Tables_number   1
_chemical_formula_structural   H2O
_chemical_formula_sum   'H384 O192'
_cell_volume   6161.72361719
_cell_formula_units_Z   192
loop_
 _symmetry_equiv_pos_site_id
 _symmetry_equiv_pos_as_xyz
  1  'x, y, z'
loop_
 _atom_type_symbol
 _atom_type_oxidation_number
  H+  1.0
  O2-  -2.0
loop_
 _atom_site_type_symbol
 _atom_site_label
 _atom_site_symmetry_multiplicity
 _atom_site_fract_x
 _atom_site_fract_y
 _atom_site_fract_z
 _atom_site_occupancy
  H+  H0  1  0.16316977  0.62760766  0.50040168  1
  H+  H1  1  0.52961706  0.87779604  0.99163263  1
  H+  H2  1  0.99314676  0.36928408  0.64140980  1
  H+  H3  1  0.88735012  0.77606731  0.16805981  1
  H+  H4  1  0.62353622  0.10785033  0.49197823  1
  H+  H5  1  0.40205900  0.77640195  0.83006563  1
  H+  H6  1  0.37277596  0.76620423  0.32545908  1
  H+  H7  1  0.63717405  0.54359593  0.32773494  1
  H+  H8  1  0.86566553  0.22557958  0.62558660  1
  H+  H9  1  0.36283757  0.71756574  0.00354513  1
  H+  H10  1  0.08326473  0.15659642  0.42921167  1
  H+  H11  1  0.26930277  0.39849358  0.31413689  1
  H+  H12  1  0.19561549  0.85762064  0.98903557  1
  H+  H13  1  0.25155764  0.08429584  0.51964656  1
  H+  H14  1  0.10308325  0.66974750  0.10592118  1
  H+  H15  1  0.12660228  0.12835158  0.66892286  1
  H+  H16  1  0.11063745  0.23596391  0.66619739  1
  H+  H17  1  0.18909710  0.85868825  0.81775489  1
  H+  H18  1  0.88692644  0.12421434  0.99538107  1
  H+  H19  1  0.37382721  0.86359343  0.17195207  1
  H+  H20  1  0.25983674  0.89692383  0.49632635  1
  H+  H21  1  0.13346549  0.63509376  0.32190159  1
  H+  H22  1  0.37273399  0.48477987  0.00834133  1
  H+  H23  1  0.47362986  0.61551155  0.99758116  1
  H+  H24  1  0.35448150  0.97588896  0.16071519  1
  H+  H25  1  0.07870674  0.32424007  0.86108794  1
  H+  H26  1  0.64683881  0.73937903  0.81954597  1
  H+  H27  1  0.91006197  0.59129406  0.35684292  1
  H+  H28  1  0.15239598  0.03124737  0.78274183  1
  H+  H29  1  0.21931312  0.60660211  0.65230531  1
  H+  H30  1  0.92815532  0.34248196  0.54971235  1
  H+  H31  1  0.13836169  0.03621606  1.04247006  1
  H+  H32  1  0.51973316  0.65679836  0.34440818  1
  H+  H33  1  0.14225786  0.02590566  0.17453718  1
  H+  H34  1  0.13179222  0.26301454  0.49673712  1
  H+  H35  1  0.85859337  0.38240411  0.16220498  1
  H+  H36  1  0.11680415  0.24025459  1.01544894  1
  H+  H37  1  0.64437748  0.15500548  0.67211025  1
  H+  H38  1  0.82855547  0.43267144  0.67316767  1
  H+  H39  1  0.82336316  0.06559311  0.33398596  1
  H+  H40  1  0.37960457  0.36350904  0.65443805  1
  H+  H41  1  0.49084972  0.63274265  0.84320044  1
  H+  H42  1  0.12379739  0.36466215  0.64833332  1
  H+  H43  1  0.77016671  0.62965374  0.67082844  1
  H+  H44  1  0.14045160  0.62318337  0.83903233  1
  H+  H45  1  0.64490166  0.85143282  0.66755041  1
  H+  H46  1  1.02742192  0.14051806  0.82752268  1
  H+  H47  1  0.13846264  0.76697909  0.32710721  1
  H+  H48  1  0.46728216  0.36076335  0.66267622  1
  H+  H49  1  0.43334063  0.60362679  0.59969534  1
  H+  H50  1  0.48657385  0.36344032  0.50764356  1
  H+  H51  1  0.72959326  0.62078114  0.50549537  1
  H+  H52  1  0.39868014  0.12498787  1.00415836  1
  H+  H53  1  0.36900729  0.22571694  0.16678690  1
  H+  H54  1  0.65486760  0.12470805  0.19319313  1
  H+  H55  1  0.47131738  0.86928585  0.65200756  1
  H+  H56  1  0.50343530  0.65113423  0.51082961  1
  H+  H57  1  0.18270621  0.58822449  0.55794420  1
  H+  H58  1  0.97754780  0.61103987  0.99628095  1
  H+  H59  1  0.61425048  0.71340980  0.67769430  1
  H+  H60  1  0.11189684  0.49961423  0.47241111  1
  H+  H61  1  0.21407418  0.36197978  0.65006545  1
  H+  H62  1  0.01184048  0.62320191  0.82584325  1
  H+  H63  1  0.86390621  0.63395514  0.00040942  1
  H+  H64  1  0.85881731  0.64607278  0.47113209  1
  H+  H65  1  0.76893376  0.38150198  0.33178167  1
  H+  H66  1  0.57187960  0.89855424  0.09404795  1
  H+  H67  1  0.97672327  0.86675646  0.16915262  1
  H+  H68  1  0.83085942  0.41047192  0.42376439  1
  H+  H69  1  0.41413976  0.64890712  0.50692559  1
  H+  H70  1  0.38134662  0.86252359  0.65132710  1
  H+  H71  1  0.29506849  0.92450531  0.06974520  1
  H+  H72  1  0.35994243  0.72497019  0.66449539  1
  H+  H73  1  0.91754024  0.58291341  0.93580766  1
  H+  H74  1  0.65784710  0.96480362  0.81862175  1
  H+  H75  1  0.07928156  0.44015555  0.37946460  1
  H+  H76  1  0.66818413  0.58537028  0.22693654  1
  H+  H77  1  0.88379161  0.35674248  0.32024700  1
  H+  H78  1  0.86452025  0.13563467  0.15231615  1
  H+  H79  1  0.39035709  0.61457830  0.65940312  1
  H+  H80  1  0.89051117  0.87099057  0.51293854  1
  H+  H81  1  0.70564914  0.09790174  0.49293855  1
  H+  H82  1  0.39003744  0.54177472  0.31196425  1
  H+  H83  1  0.15499684  0.11911751  0.32803924  1
  H+  H84  1  0.58565088  -0.03987283  0.49267099  1
  H+  H85  1  0.09426430  0.71566697  0.82081509  1
  H+  H86  1  0.85861089  -0.00662647  0.17251790  1
  H+  H87  1  0.77782368  0.39597632  0.00096968  1
  H+  H88  1  0.37901516  0.74597565  0.47341843  1
  H+  H89  1  0.60902930  1.01219052  0.67112830  1
  H+  H90  1  0.77780404  0.89971335  0.01431330  1
  H+  H91  1  0.53204678  0.39365871  1.00172443  1
  H+  H92  1  0.40188435  0.32576569  0.90692162  1
  H+  H93  1  0.52116777  0.37924344  0.82854746  1
  H+  H94  1  0.85441038  0.85512455  0.82783604  1
  H+  H95  1  0.31377249  0.89062498  0.84437020  1
  H+  H96  1  0.64461552  0.51865769  -0.00990367  1
  H+  H97  1  0.42215012  0.87317722  0.83236675  1
  H+  H98  1  0.02238935  0.38828947  0.15669302  1
  H+  H99  1  0.43436226  0.92066282  0.06305374  1
  H+  H100  1  0.13087164  0.85363767  0.32962395  1
  H+  H101  1  0.38426158  0.11317020  0.33026003  1
  H+  H102  1  0.83990560  0.23087578  0.35344564  1
  H+  H103  1  0.63086256  0.62897490  0.32219031  1
  H+  H104  1  0.14939380  0.06328635  0.97472722  1
  H+  H105  1  -0.03798544  0.33851059  0.78860545  1
  H+  H106  1  0.22172944  0.12165484  0.66645291  1
  H+  H107  1  0.98022763  0.38154652  0.80391154  1
  H+  H108  1  0.23756206  0.11659641  0.80089075  1
  H+  H109  1  0.13318458  0.65244259  0.17115724  1
  H+  H110  1  0.12734756  0.77084308  0.66033686  1
  H+  H111  1  0.82960011  0.25721491  0.86825154  1
  H+  H112  1  0.61378730  0.23273117  0.17469538  1
  H+  H113  1  0.25587189  0.35839922  0.84100687  1
  H+  H114  1  0.39298587  0.41914594  0.16681576  1
  H+  H115  1  0.36699193  0.23385635  0.34154797  1
  H+  H116  1  0.88527400  0.00291682  0.50622505  1
  H+  H117  1  0.68583111  0.31768219  0.65037286  1
  H+  H118  1  0.32477379  0.92429624  0.43467969  1
  H+  H119  1  0.50780186  0.36010510  0.17648482  1
  H+  H120  1  0.12596417  0.02985810  0.66634723  1
  H+  H121  1  0.16202111  0.54800888  0.83240853  1
  H+  H122  1  0.11113459  0.15003018  0.02463921  1
  H+  H123  1  0.10382828  0.62686102  0.66590690  1
  H+  H124  1  0.39228497  0.63248358  0.31904569  1
  H+  H125  1  0.11081646  0.13506907  0.80739042  1
  H+  H126  1  0.00847728  0.11984178  0.16701496  1
  H+  H127  1  0.73132459  0.61256713  0.16979756  1
  H+  H128  1  0.60144612  0.77691658  0.34627427  1
  H+  H129  1  0.69511984  0.86908488  0.33944545  1
  H+  H130  1  0.26603598  0.88336786  0.34403383  1
  H+  H131  1  0.67416803  0.57910192  0.92663635  1
  H+  H132  1  0.36040371  0.99677694  0.49701407  1
  H+  H133  1  0.33012487  0.43006328  0.25787958  1
  H+  H134  1  0.35855603  0.38125220  0.49961445  1
  H+  H135  1  0.37707375  0.77533090  0.17501483  1
  H+  H136  1  0.14255380  0.77789758  0.17418019  1
  H+  H137  1  0.86123913  0.23316134  1.00945036  1
  H+  H138  1  0.86500933  0.57979988  0.68988881  1
  H+  H139  1  0.59342741  0.37018688  0.67477176  1
  H+  H140  1  0.48898525  0.11542122  0.84127900  1
  H+  H141  1  -0.05502003  0.85267524  -0.02175198  1
  H+  H142  1  0.61972775  0.48373259  0.49593071  1
  H+  H143  1  0.13421221  0.36845945  0.32598791  1
  H+  H144  1  0.14087024  0.38211035  0.17435673  1
  H+  H145  1  0.08259961  0.85444798  0.00511281  1
  H+  H146  1  0.88355342  0.53094884  0.45845207  1
  H+  H147  1  0.06709540  0.94636636  0.84380832  1
  H+  H148  1  0.88611731  0.09619719  0.50486859  1
  H+  H149  1  0.38318422  0.65765182  0.15934051  1
  H+  H150  1  0.86370868  0.97396298  0.67104320  1
  H+  H151  1  0.45976986  0.96352820  1.04765086  1
  H+  H152  1  0.61264447  0.84202008  0.16688455  1
  H+  H153  1  0.12889988  0.86103048  0.66176379  1
  H+  H154  1  0.96733067  0.10967014  0.65395502  1
  H+  H155  1  0.69579500  0.83175319  0.16915945  1
  H+  H156  1  0.38208895  0.98686889  0.82864148  1
  H+  H157  1  0.88065007  0.01947095  0.84432437  1
  H+  H158  1  0.74886340  0.38739176  0.80816074  1
  H+  H159  1  0.91336870  0.85725794  0.25508603  1
  H+  H160  1  0.13300094  0.10994987  0.17636102  1
  H+  H161  1  0.17365928  0.26205274  0.84423753  1
  H+  H162  1  0.24118835  0.62302196  0.21336982  1
  H+  H163  1  0.77786568  0.13825959  0.16600973  1
  H+  H164  1  0.94308451  0.94122909  0.29532787  1
  H+  H165  1  0.60991283  0.37491320  0.81885323  1
  H+  H166  1  1.02422427  0.89327468  0.33322822  1
  H+  H167  1  0.39637633  0.37150501  1.00152011  1
  H+  H168  1  0.84494080  0.13028416  0.86158505  1
  H+  H169  1  -0.02317224  0.12631397  0.00001980  1
  H+  H170  1  0.85847716  0.76224195  0.82754592  1
  H+  H171  1  0.14163317  0.41311640  0.80447398  1
  H+  H172  1  0.88199809  0.61117618  0.84185476  1
  H+  H173  1  0.36547476  0.22224632  0.82794263  1
  H+  H174  1  0.57404331  0.71307684  0.17525175  1
  H+  H175  1  0.65233529  0.29267023  0.96013893  1
  H+  H176  1  0.12856366  0.86068868  0.50437876  1
  H+  H177  1  0.37999695  0.50093182  0.82112325  1
  H+  H178  1  0.37480256  0.13769484  0.82365824  1
  H+  H179  1  0.35537535  0.97406514  0.34292258  1
  H+  H180  1  0.86466010  0.48273380  0.01048455  1
  H+  H181  1  0.35357387  0.22821144  0.66771308  1
  H+  H182  1  0.89174448  0.36973030  1.00791899  1
  H+  H183  1  0.23298681  0.38959625  0.17764791  1
  H+  H184  1  0.60195626  0.72171304  0.02338761  1
  H+  H185  1  0.16433996  -0.00152902  0.51857864  1
  H+  H186  1  0.86275641  0.63870810  0.16111241  1
  H+  H187  1  0.63691207  0.30577408  0.77362839  1
  H+  H188  1  0.68038180  0.08222957  0.24556885  1
  H+  H189  1  0.73692044  0.85744829  0.66809016  1
  H+  H190  1  0.52759058  0.40208072  0.34380691  1
  H+  H191  1  0.83037561  0.88024780  0.33462223  1
  H+  H192  1  0.61894870  0.96858371  -0.00617088  1
  H+  H193  1  0.86262205  0.71641497  0.67099250  1
  H+  H194  1  0.84498851  0.06968795  0.36448024  1
  H+  H195  1  0.27957342  0.64942721  0.32651472  1
  H+  H196  1  -0.14562692  0.72012308  -0.00742740  1
  H+  H197  1  0.88834250  0.36801206  0.49332078  1
  H+  H198  1  0.32250865  0.97337206  0.00519536  1
  H+  H199  1  0.11103358  0.62860431  1.00617907  1
  H+  H200  1  0.28454537  0.14281282  1.01708102  1
  H+  H201  1  0.82385889  0.69394922  0.43222816  1
  H+  H202  1  0.94842212  0.57176757  0.68941526  1
  H+  H203  1  0.61255042  0.94138292  0.63361212  1
  H+  H204  1  0.76618937  0.62592779  0.82414021  1
  H+  H205  1  0.88565049  0.27269092  0.16932062  1
  H+  H206  1  0.38644479  0.37447012  0.31990024  1
  H+  H207  1  0.84973853  0.12990272  0.63278549  1
  H+  H208  1  0.39598387  0.28169961  1.00191147  1
  H+  H209  1  0.76877890  0.67180132  0.33755244  1
  H+  H210  1  0.92674649  0.05369491  0.32037436  1
  H+  H211  1  0.27201675  0.89343882  0.67205201  1
  H+  H212  1  0.84313193  0.35117423  0.85029007  1
  H+  H213  1  0.12826739  0.23631865  0.33381839  1
  H+  H214  1  0.63706755  0.60949766  0.84070466  1
  H+  H215  1  0.62167145  0.39466023  -0.00720567  1
  H+  H216  1  0.11476609  0.48206338  0.31428093  1
  H+  H217  1  0.61438297  0.39910212  0.33929259  1
  H+  H218  1  0.06425399  0.34231172  0.88642911  1
  H+  H219  1  0.63964908  0.85983750  0.99535651  1
  H+  H220  1  0.01782102  0.41499433  0.46954756  1
  H+  H221  1  0.89242147  0.35337791  0.64215700  1
  H+  H222  1  0.70607689  0.87098542  0.77640878  1
  H+  H223  1  0.86330650  0.46693144  0.33097175  1
  H+  H224  1  0.65273862  0.10259187  0.95386126  1
  H+  H225  1  0.32036423  0.30138908  0.86706405  1
  H+  H226  1  0.63440560  0.51549045  0.65934435  1
  H+  H227  1  0.98894557  0.60116394  0.32168598  1
  H+  H228  1  0.97069758  0.62136813  0.45714185  1
  H+  H229  1  0.77727845  0.39358127  0.48610950  1
  H+  H230  1  0.64961138  0.37286459  0.50304341  1
  H+  H231  1  0.38143117  0.60828850  0.99326646  1
  H+  H232  1  0.52387624  0.14277351  0.48773901  1
  H+  H233  1  0.05813628  0.64082743  0.52782437  1
  H+  H234  1  0.47063114  0.11213748  0.18207186  1
  H+  H235  1  0.97486090  0.36136411  0.31820225  1
  H+  H236  1  0.63077799  0.27187721  0.32542040  1
  H+  H237  1  1.05576769  0.13841609  0.32165267  1
  H+  H238  1  0.72780216  0.36123985  0.17408134  1
  H+  H239  1  0.87281310  0.52157462  0.17874010  1
  H+  H240  1  0.62560854  0.48481730  0.15877850  1
  H+  H241  1  0.82584464  0.65733012  0.76408301  1
  H+  H242  1  0.42673898  0.83490018  0.53999266  1
  H+  H243  1  0.38309631  0.11980252  0.65325902  1
  H+  H244  1  0.29254403  0.64948014  0.47917478  1
  H+  H245  1  0.11657444  0.38804382  0.00010189  1
  H+  H246  1  0.76086387  0.11465280  0.89544839  1
  H+  H247  1  0.75129143  0.85933881  0.51410419  1
  H+  H248  1  0.39445508  0.03818969  0.65825638  1
  H+  H249  1  0.72034017  0.13696728  0.65131818  1
  H+  H250  1  0.27060371  0.63272998  1.00793904  1
  H+  H251  1  0.82872566  0.16888050  0.06677051  1
  H+  H252  1  0.10554293  0.71447454  1.00419874  1
  H+  H253  1  0.19244654  0.32870067  0.93949105  1
  H+  H254  1  0.63531327  0.00187620  0.33492446  1
  H+  H255  1  0.37867622  0.23028453  0.49430443  1
  H+  H256  1  0.01671557  0.87870616  0.49566041  1
  H+  H257  1  0.23885911  0.37032883  0.00141039  1
  H+  H258  1  0.62961994  0.51490663  0.83984522  1
  H+  H259  1  0.13003526  0.51457095  0.64393678  1
  H+  H260  1  0.87360729  0.51905016  0.84434352  1
  H+  H261  1  0.36258208  0.48061012  0.65822408  1
  H+  H262  1  0.82220003  0.15882593  0.54231916  1
  H+  H263  1  0.62087605  0.64353695  0.48568820  1
  H+  H264  1  0.37205732  0.86384414  0.32847074  1
  H+  H265  1  0.83786417  0.90011575  0.44878760  1
  H+  H266  1  0.42575836  0.59526923  0.89987560  1
  H+  H267  1  0.28350722  0.65132462  0.82560530  1
  H+  H268  1  0.38893741  0.11689439  0.50212744  1
  H+  H269  1  0.89054770  0.77884939  0.51188861  1
  H+  H270  1  0.83646284  0.91823183  0.73424661  1
  H+  H271  1  0.88734584  0.85698848  0.66075434  1
  H+  H272  1  0.81638165  0.95162553  0.36655936  1
  H+  H273  1  0.02614458  0.38742810  0.00113059  1
  H+  H274  1  1.01735039  0.89046285  0.66817496  1
  H+  H275  1  0.85117747  0.76481447  0.34106579  1
  H+  H276  1  0.60291459  0.12422746  0.33738384  1
  H+  H277  1  0.11559511  0.88724884  0.16766734  1
  H+  H278  1  0.44255122  0.06986613  1.02339119  1
  H+  H279  1  0.53070647  0.17998094  0.66936712  1
  H+  H280  1  0.74565736  0.61381410  0.98971951  1
  H+  H281  1  0.13807742  0.52144742  0.99014130  1
  H+  H282  1  0.70696296  0.10244138  0.34252255  1
  H+  H283  1  0.11594414  0.73313954  0.50005125  1
  H+  H284  1  0.38347659  0.41486586  0.81587324  1
  H+  H285  1  0.62187396  0.21968182  0.82842601  1
  H+  H286  1  0.38076537  0.11136535  0.17520417  1
  H+  H287  1  0.51418381  0.87783243  0.15389046  1
  H+  H288  1  0.83625574  0.66832468  0.09893453  1
  H+  H289  1  0.08564712  0.91197381  0.10633878  1
  H+  H290  1  0.62658477  0.18722454  0.02104820  1
  H+  H291  1  0.42972837  0.33984151  0.27404327  1
  H+  H292  1  0.34501079  0.17126906  0.43360545  1
  H+  H293  1  0.14038838  0.02515941  0.90190633  1
  H+  H294  1  0.83144044  0.45879088  0.76660596  1
  H+  H295  1  0.54657949  0.15832463  0.97836576  1
  H+  H296  1  0.55270463  0.65951267  0.07928253  1
  H+  H297  1  0.82701452  0.41451602  0.10439726  1
  H+  H298  1  0.58732915  0.15832421  0.12597786  1
  H+  H299  1  0.40503030  0.07574013  0.27055579  1
  H+  H300  1  0.33324919  0.16875584  0.72654260  1
  H+  H301  1  0.85486460  0.88168643  0.15630257  1
  H+  H302  1  0.91856578  0.07863320  0.90404346  1
  H+  H303  1  0.33984979  0.68031818  0.39173115  1
  H+  H304  1  0.59107340  0.42759434  0.43568159  1
  H+  H305  1  0.61420959  0.96666147  0.75731389  1
  H+  H306  1  0.64177798  0.36763393  0.16970604  1
  H+  H307  1  0.16459627  0.83857549  0.56544710  1
  H+  H308  1  0.66079487  0.33318256  0.26730731  1
  H+  H309  1  0.42337441  0.32880730  0.56567827  1
  H+  H310  1  0.81308723  0.14749899  0.74970631  1
  H+  H311  1  0.07880580  0.41952531  0.70478932  1
  H+  H312  1  0.42805512  0.08665029  0.89973838  1
  H+  H313  1  0.87044682  0.23128531  0.49521666  1
  H+  H314  1  0.59397086  0.42399937  0.09763931  1
  H+  H315  1  0.07673131  0.65418391  0.72771324  1
  H+  H316  1  0.82512836  0.91943098  0.10018543  1
  H+  H317  1  0.17756992  0.08420289  0.26831438  1
  H+  H318  1  0.17086346  0.58755901  0.93339624  1
  H+  H319  1  0.79767275  0.35187617  0.71407096  1
  H+  H320  1  0.83977383  0.05134225  0.21908658  1
  H+  H321  1  0.14348794  0.82075885  0.92571283  1
  H+  H322  1  0.39984018  0.83518137  0.26199402  1
  H+  H323  1  0.80923590  0.17646853  0.41531807  1
  H+  H324  1  0.34802488  0.43270531  0.07118578  1
  H+  H325  1  0.57515074  0.41104750  0.73366454  1
  H+  H326  1  0.09846088  0.84842718  0.83147259  1
  H+  H327  1  0.07959833  0.17780194  0.72837018  1
  H+  H328  1  0.91264163  0.32845065  0.23020679  1
  H+  H329  1  0.51699543  0.12950642  0.33530953  1
  H+  H330  1  0.58583266  0.68685596  0.40470978  1
  H+  H331  1  0.52085292  0.62883483  0.67664429  1
  H+  H332  1  0.39604006  0.50895064  0.16619156  1
  H+  H333  1  0.45120512  0.61796475  0.23151843  1
  H+  H334  1  0.68251437  0.36186391  0.90908384  1
  H+  H335  1  0.00395985  0.82039591  0.04858386  1
  H+  H336  1  0.11746409  0.97507722  0.33823793  1
  H+  H337  1  0.58021156  0.17135679  0.42713587  1
  H+  H338  1  0.57069800  0.88703894  0.44590402  1
  H+  H339  1  1.02235457  0.12227532  0.48734797  1
  H+  H340  1  0.63607661  0.74021301  0.49190598  1
  H+  H341  1  0.79517766  0.09998802  0.75167973  1
  H+  H342  1  0.28034932  0.14111684  0.33930327  1
  H+  H343  1  0.27225800  0.14176148  0.16337535  1
  H+  H344  1  0.33297515  0.66934182  0.72532143  1
  H+  H345  1  0.91346549  0.59860009  0.57024303  1
  H+  H346  1  0.89805180  0.33474760  0.94437347  1
  H+  H347  1  0.16393927  0.34236434  0.26547713  1
  H+  H348  1  0.88811758  0.81642696  0.91831463  1
  H+  H349  1  0.33589787  0.92242976  0.72842969  1
  H+  H350  1  0.63288432  0.60302865  0.66321121  1
  H+  H351  1  0.26407507  0.88806161  0.16371358  1
  H+  H352  1  0.36997133  0.64487280  0.82387481  1
  H+  H353  1  0.62073793  0.07001371  0.83144757  1
  H+  H354  1  0.73333324  0.10943422  0.98959800  1
  H+  H355  1  0.07411511  0.90489795  0.43331624  1
  H+  H356  1  0.66831072  0.58699084  0.56456197  1
  H+  H357  1  0.91941494  0.83149124  0.59961753  1
  H+  H358  1  0.06661559  0.91731237  0.73085069  1
  H+  H359  1  0.27247280  0.38285978  0.49605274  1
  H+  H360  1  0.10016342  0.65182559  0.38649966  1
  H+  H361  1  0.94313784  0.05169669  0.25109528  1
  H+  H362  1  0.91358257  0.06868104  0.59278009  1
  H+  H363  1  0.07189136  0.16541056  0.11271277  1
  H+  H364  1  0.33426651  0.42694668  0.71896633  1
  H+  H365  1  0.33269201  0.66919196  0.10476226  1
  H+  H366  1  0.16567738  0.83345853  0.23632039  1
  H+  H367  1  0.68088891  0.82011717  0.56856326  1
  H+  H368  1  0.08257043  0.41735319  0.09837804  1
  H+  H369  1  0.41623679  0.08367769  0.56247038  1
  H+  H370  1  0.48319448  0.28291837  0.22035806  1
  H+  H371  1  -0.02081734  0.86590421  0.82330123  1
  H+  H372  1  0.10895427  0.04197914  0.90039629  1
  H+  H373  1  0.34485640  0.17450524  0.07393150  1
  H+  H374  1  0.39730711  0.85087761  0.97964474  1
  H+  H375  1  0.15181426  0.32380737  0.55291333  1
  H+  H376  1  0.64799492  0.28428626  0.49998338  1
  H+  H377  1  0.95686712  0.61181317  0.58370010  1
  H+  H378  1  0.42673170  0.82282320  0.91897020  1
  H+  H379  1  0.20711376  0.48313677  0.76007076  1
  H+  H380  1  0.86234054  -0.00681674  1.01481227  1
  H+  H381  1  0.67780425  0.82299810  0.94599005  1
  H+  H382  1  0.59330984  0.66866426  0.76916306  1
  H+  H383  1  0.90266610  0.58229178  0.23659150  1
  O2-  O384  1  0.06873522  0.14618609  0.15540184  1
  O2-  O385  1  0.08323667  0.15390737  0.47394716  1
  O2-  O386  1  0.08555554  0.17333613  0.80842549  1
  O2-  O387  1  0.08316114  0.41866312  0.14324821  1
  O2-  O388  1  0.06373707  0.46243638  0.44518881  1
  O2-  O389  1  0.15608515  0.46715474  0.78454121  1
  O2-  O390  1  0.11181992  0.68575820  0.14938847  1
  O2-  O391  1  0.08520208  0.66970286  0.48981497  1
  O2-  O392  1  0.07190288  0.65478673  0.80930373  1
  O2-  O393  1  0.08734206  0.91979191  0.15099262  1
  O2-  O394  1  0.07654072  0.90159580  0.47811763  1
  O2-  O395  1  0.04546389  0.89867823  0.81484303  1
  O2-  O396  1  0.33340839  0.16817790  0.14800153  1
  O2-  O397  1  0.34934275  0.16908872  0.47854846  1
  O2-  O398  1  0.34514784  0.16692141  0.80591237  1
  O2-  O399  1  0.35853244  0.44574352  0.15793391  1
  O2-  O400  1  0.33545443  0.41887440  0.48933569  1
  O2-  O401  1  0.34991262  0.44161403  0.80291027  1
  O2-  O402  1  0.34012042  0.67485569  0.14982509  1
  O2-  O403  1  0.34898323  0.68173280  0.45801803  1
  O2-  O404  1  0.34075220  0.67434291  0.80559904  1
  O2-  O405  1  0.32226988  0.91696395  0.14313561  1
  O2-  O406  1  0.32146057  0.93133908  0.48014857  1
  O2-  O407  1  0.35275066  0.92619313  0.81225198  1
  O2-  O408  1  0.58050405  0.16764809  0.16863502  1
  O2-  O409  1  0.58365862  0.17492148  0.47240440  1
  O2-  O410  1  0.58595624  0.15541981  0.81962492  1
  O2-  O411  1  0.59395930  0.42192821  0.14267598  1
  O2-  O412  1  0.59073166  0.42299089  0.48076934  1
  O2-  O413  1  0.57992524  0.41284959  0.81342719  1
  O2-  O414  1  0.53685962  0.64697578  0.16341406  1
  O2-  O415  1  0.59795595  0.68064943  0.47123703  1
  O2-  O416  1  0.60281447  0.67807869  0.81446962  1
  O2-  O417  1  0.57250359  0.89632444  0.13890396  1
  O2-  O418  1  0.56055800  0.89608281  0.48898635  1
  O2-  O419  1  0.61900079  0.98159308  0.80069101  1
  O2-  O420  1  0.83453144  0.16721793  0.14231548  1
  O2-  O421  1  0.83522516  0.16666044  0.49747903  1
  O2-  O422  1  0.80371993  0.15102711  0.86499949  1
  O2-  O423  1  0.82534702  0.41143018  0.14969183  1
  O2-  O424  1  0.83787613  0.42342709  0.46823230  1
  O2-  O425  1  0.81600192  0.42604988  0.80488451  1
  O2-  O426  1  0.83762803  0.67415398  0.14359924  1
  O2-  O427  1  0.82865393  0.67972101  0.47589574  1
  O2-  O428  1  0.82687672  0.65969025  0.80988574  1
  O2-  O429  1  0.81885678  0.90804686  0.14659638  1
  O2-  O430  1  0.84559365  0.91062114  0.49240053  1
  O2-  O431  1  0.82057248  0.91123816  0.80841911  1
  O2-  O432  1  0.17186171  0.08691943  0.18864252  1
  O2-  O433  1  0.21380860  0.03418446  0.54482004  1
  O2-  O434  1  0.17487360  0.09153927  0.79204375  1
  O2-  O435  1  0.17461903  0.35713463  0.19364746  1
  O2-  O436  1  0.15760409  0.32465509  0.50838346  1
  O2-  O437  1  0.22418633  0.30685784  0.86731453  1
  O2-  O438  1  0.18460398  0.61193884  0.22746682  1
  O2-  O439  1  0.19098032  0.59464293  0.51256451  1
  O2-  O440  1  0.17913774  0.60227309  0.85468798  1
  O2-  O441  1  0.16626468  0.83866457  0.19105187  1
  O2-  O442  1  0.16536198  0.83571849  0.52013404  1
  O2-  O443  1  0.13739100  0.82474593  0.84191311  1
  O2-  O444  1  0.40811550  0.07911028  0.19205084  1
  O2-  O445  1  0.41427239  0.07960894  0.51699876  1
  O2-  O446  1  0.42652946  0.08595360  0.85509427  1
  O2-  O447  1  0.45788653  0.31464233  0.20212329  1
  O2-  O448  1  0.42554104  0.32641492  0.52062604  1
  O2-  O449  1  0.38152815  0.31573292  0.86369680  1
  O2-  O450  1  0.44846602  0.61477635  0.18520081  1
  O2-  O451  1  0.45337373  0.64289850  0.53519045  1
  O2-  O452  1  0.42903370  0.59986663  0.85414555  1
  O2-  O453  1  0.40400605  0.83566971  0.19130682  1
  O2-  O454  1  0.42223447  0.83841868  0.49544212  1
  O2-  O455  1  0.43770541  0.83298710  0.85070531  1
  O2-  O456  1  0.69154235  0.09997000  0.20181324  1
  O2-  O457  1  0.64448386  0.06797092  0.50359218  1
  O2-  O458  1  0.61878702  0.11358271  0.85929640  1
  O2-  O459  1  0.66555126  0.33292061  0.18823118  1
  O2-  O460  1  0.68300798  0.34445052  0.51416707  1
  O2-  O461  1  0.65407398  0.32435189  0.81569213  1
  O2-  O462  1  0.67051518  0.57574231  0.18282892  1
  O2-  O463  1  0.66806225  0.58753646  0.51934020  1
  O2-  O464  1  0.66360134  0.57540917  0.85587815  1
  O2-  O465  1  0.63634694  0.80565554  0.18414967  1
  O2-  O466  1  0.68692230  0.82414713  0.52425911  1
  O2-  O467  1  0.72490590  0.86223385  0.81622726  1
  O2-  O468  1  0.88605375  0.05499677  0.19368653  1
  O2-  O469  1  0.91710390  0.06764894  0.52031718  1
  O2-  O470  1  0.91814822  0.07949000  0.85859561  1
  O2-  O471  1  0.91221037  0.33278737  0.18454131  1
  O2-  O472  1  0.92251822  0.33981796  0.50408063  1
  O2-  O473  1  0.84603423  0.31580513  0.88311011  1
  O2-  O474  1  0.89684902  0.58188868  0.19199497  1
  O2-  O475  1  0.90972844  0.59285262  0.44547437  1
  O2-  O476  1  0.91075043  0.58009784  0.85837705  1
  O2-  O477  1  0.91515728  0.83783175  0.18166488  1
  O2-  O478  1  0.92418476  0.83820041  0.52867600  1
  O2-  O479  1  0.88724071  0.82319658  0.84228401  1
  O2-  O480  1  0.17902897  0.08208619  0.31369731  1
  O2-  O481  1  0.15770384  0.09322645  0.65553682  1
  O2-  O482  1  0.16733538  0.08645704  1.01597555  1
  O2-  O483  1  0.16543384  0.33847326  0.31165698  1
  O2-  O484  1  0.15234917  0.32704030  0.63992692  1
  O2-  O485  1  0.18080753  0.33798500  0.98224635  1
  O2-  O486  1  0.18454610  0.59809969  0.29401237  1
  O2-  O487  1  0.16094480  0.57992413  0.63409010  1
  O2-  O488  1  0.16868844  0.58419356  0.97869630  1
  O2-  O489  1  0.16677938  0.82915321  0.31506947  1
  O2-  O490  1  0.16006972  0.83204930  0.64699170  1
  O2-  O491  1  0.13844843  0.81566031  0.97048998  1
  O2-  O492  1  0.40788652  0.07594739  0.31592681  1
  O2-  O493  1  0.42214024  0.09768506  0.64169951  1
  O2-  O494  1  0.42860559  0.09370649  0.98814663  1
  O2-  O495  1  0.41959253  0.34347188  0.31799561  1
  O2-  O496  1  0.40825074  0.32911301  0.64507987  1
  O2-  O497  1  0.42515389  0.34059618  0.98409076  1
  O2-  O498  1  0.42659897  0.60522763  0.30552026  1
  O2-  O499  1  0.42307595  0.58669938  0.64479781  1
  O2-  O500  1  0.41513931  0.58216519  0.97675725  1
  O2-  O501  1  0.39969147  0.83244123  0.30885489  1
  O2-  O502  1  0.41157747  0.83200843  0.63802229  1
  O2-  O503  1  0.42349310  0.81774020  0.96608830  1
  O2-  O504  1  0.65332119  0.06122345  0.31992281  1
  O2-  O505  1  0.66329044  0.11238390  0.67128825  1
  O2-  O506  1  0.68178796  0.07043921  0.96427954  1
  O2-  O507  1  0.65941527  0.33340854  0.31264263  1
  O2-  O508  1  0.62241053  0.29429510  0.64691898  1
  O2-  O509  1  0.67839899  0.35580606  0.95349319  1
  O2-  O510  1  0.66393474  0.60169283  0.30875407  1
  O2-  O511  1  0.66585006  0.57667900  0.64591061  1
  O2-  O512  1  0.67953455  0.57997131  0.97314561  1
  O2-  O513  1  0.63194380  0.84569556  0.33009532  1
  O2-  O514  1  0.67404985  0.82001667  0.65652330  1
  O2-  O515  1  0.67159552  0.82704932  0.98962424  1
  O2-  O516  1  0.96433470  0.04565805  0.29230450  1
  O2-  O517  1  0.90813291  0.07254842  0.63891769  1
  O2-  O518  1  0.91805841  0.09366035  0.98229862  1
  O2-  O519  1  0.91283978  0.32438785  0.30684695  1
  O2-  O520  1  0.92861106  0.33228593  0.62451632  1
  O2-  O521  1  0.91808684  0.33865097  0.98817001  1
  O2-  O522  1  0.92542013  0.57525049  0.31774388  1
  O2-  O523  1  0.88575047  0.53856727  0.69700252  1
  O2-  O524  1  0.91650696  0.58444921  0.98139293  1
  O2-  O525  1  0.91861855  0.87779826  0.29857852  1
  O2-  O526  1  0.91909223  0.82806687  0.64640299  1
  O2-  O527  1  0.88811515  0.80970496  0.96352279  1
  O2-  O528  1  0.07991688  0.18107652  0.03262584  1
  O2-  O529  1  0.10725626  0.17500955  0.34612608  1
  O2-  O530  1  0.08245155  0.17370281  0.68324245  1
  O2-  O531  1  0.08793265  0.41994639  0.01393222  1
  O2-  O532  1  0.08272079  0.42553683  0.33506215  1
  O2-  O533  1  0.08108274  0.41729844  0.66058567  1
  O2-  O534  1  0.07905546  0.65651240  0.02303730  1
  O2-  O535  1  0.09823062  0.66036821  0.34278870  1
  O2-  O536  1  0.07172088  0.65474049  0.68269776  1
  O2-  O537  1  0.04850609  0.87384869  0.03048749  1
  O2-  O538  1  0.08184759  0.91334222  0.35059764  1
  O2-  O539  1  0.07731049  0.92592542  0.68662513  1
  O2-  O540  1  0.34639063  0.17381857  0.02792324  1
  O2-  O541  1  0.34139728  0.17269208  0.35417578  1
  O2-  O542  1  0.32202714  0.16632725  0.68202181  1
  O2-  O543  1  0.34559854  0.42504799  0.02657954  1
  O2-  O544  1  0.33284306  0.43162345  0.30240226  1
  O2-  O545  1  0.32949677  0.41997222  0.67433268  1
  O2-  O546  1  0.33094597  0.66053796  0.02386279  1
  O2-  O547  1  0.34039424  0.68361351  0.34349795  1
  O2-  O548  1  0.32991718  0.66458715  0.68025965  1
  O2-  O549  1  0.27389969  0.93076431  0.02886317  1
  O2-  O550  1  0.32691250  0.91400341  0.35993679  1
  O2-  O551  1  0.33368127  0.92564664  0.68371418  1
  O2-  O552  1  0.61003592  0.18752368  -0.02100119  1
  O2-  O553  1  0.57859383  0.16182204  0.34765579  1
  O2-  O554  1  0.58901049  0.21881585  0.68708071  1
  O2-  O555  1  0.59416355  0.42410020  0.01403197  1
  O2-  O556  1  0.58963340  0.43405767  0.35488172  1
  O2-  O557  1  0.57317169  0.40989558  0.68821373  1
  O2-  O558  1  0.56130076  0.66137672  0.03481955  1
  O2-  O559  1  0.58052723  0.69532365  0.35810045  1
  O2-  O560  1  0.58088663  0.65363617  0.69389043  1
  O2-  O561  1  0.58759525  0.90893575  0.01070001  1
  O2-  O562  1  0.60602223  0.89817858  0.36588902  1
  O2-  O563  1  0.58712365  0.94732341  0.67117529  1
  O2-  O564  1  0.82985396  0.17073579  0.02118084  1
  O2-  O565  1  0.79001742  0.18490020  0.37549334  1
  O2-  O566  1  0.82176772  0.16308610  0.61977201  1
  O2-  O567  1  0.83124758  0.42193465  0.02530901  1
  O2-  O568  1  0.82975295  0.40592684  0.34517547  1
  O2-  O569  1  0.79791025  0.36837662  0.67163386  1
  O2-  O570  1  0.82781653  0.66035084  0.01238664  1
  O2-  O571  1  0.82552198  0.70674551  0.35748961  1
  O2-  O572  1  0.82980213  0.65701754  0.68800556  1
  O2-  O573  1  0.83565217  0.93439231  0.03246451  1
  O2-  O574  1  0.78999721  0.88987830  0.35996140  1
  O2-  O575  1  0.83656009  0.91400077  0.68818155  1
