# generated using pymatgen
data_H2O
_symmetry_space_group_name_H-M   'P 1'
_cell_length_a   17.97922578
_cell_length_b   17.97902919
_cell_length_c   21.99812709
_cell_angle_alpha   90.00595190
_cell_angle_beta   90.02622252
_cell_angle_gamma   119.94197056
_symmetry_Int_Tables_number   1
_chemical_formula_structural   H2O
_chemical_formula_sum   'H384 O192'
_cell_volume   6161.79348475
_cell_formula_units_Z   192
loop_
 _symmetry_equiv_pos_site_id
 _symmetry_equiv_pos_as_xyz
  1  'x, y, z'
loop_
 _atom_type_symbol
 _atom_type_oxidation_number
  H+  1.0
  O2-  -2.0
loop_
 _atom_site_type_symbol
 _atom_site_label
 _atom_site_symmetry_multiplicity
 _atom_site_fract_x
 _atom_site_fract_y
 _atom_site_fract_z
 _atom_site_occupancy
  H+  H0  1  0.27092848  0.12547389  0.15382004  1
  H+  H1  1  0.22368147  0.86375304  0.50578410  1
  H+  H2  1  0.48772675  0.86947459  0.84021106  1
  H+  H3  1  0.28890913  0.99291035  0.64273094  1
  H+  H4  1  0.01694123  0.13445864  0.02662708  1
  H+  H5  1  0.63039146  0.85888073  0.50623205  1
  H+  H6  1  0.88567891  0.77780286  0.51891350  1
  H+  H7  1  0.28722482  0.14083461  0.83285551  1
  H+  H8  1  0.13656695  0.09111492  0.16781337  1
  H+  H9  1  1.00550557  0.39731079  0.14884585  1
  H+  H10  1  0.63454046  0.61143347  0.83297472  1
  H+  H11  1  0.61447904  0.89490965  0.37593089  1
  H+  H12  1  0.47696818  0.85150929  0.50298255  1
  H+  H13  1  1.01700413  0.13260727  0.66678089  1
  H+  H14  1  0.11061894  0.14019316  0.81944437  1
  H+  H15  1  1.10917496  0.66156695  0.32736192  1
  H+  H16  1  0.13530523  0.36302392  1.00348870  1
  H+  H17  1  0.77362636  0.39092331  0.66446995  1
  H+  H18  1  0.63472532  0.61163152  0.65511334  1
  H+  H19  1  0.39276415  0.53029219  0.98576768  1
  H+  H20  1  0.11111551  0.88200405  0.67564466  1
  H+  H21  1  0.64600168  0.10764019  0.31749490  1
  H+  H22  1  0.53587831  0.37946076  0.66615173  1
  H+  H23  1  0.50264894  0.54579786  0.38555991  1
  H+  H24  1  0.85757715  0.88854060  0.32197702  1
  H+  H25  1  0.52272155  0.63347859  0.67049700  1
  H+  H26  1  0.64497907  0.77541186  0.83200161  1
  H+  H27  1  0.88752166  0.79232153  0.83126713  1
  H+  H28  1  0.88589200  0.51947250  0.65943715  1
  H+  H29  1  0.85472215  0.23880047  0.66236026  1
  H+  H30  1  0.22959889  0.35918584  1.00076610  1
  H+  H31  1  0.89052445  0.25339277  0.34529995  1
  H+  H32  1  0.33645703  0.83551642  0.69101328  1
  H+  H33  1  0.60928385  -0.02275020  0.66597853  1
  H+  H34  1  0.12888904  0.47435418  -0.00253008  1
  H+  H35  1  0.39045310  0.87438834  0.32485801  1
  H+  H36  1  0.61281075  0.89030061  0.67397728  1
  H+  H37  1  0.29328991  0.00751911  0.67543179  1
  H+  H38  1  0.74720029  0.87645433  -0.00573105  1
  H+  H39  1  0.16773564  0.83371728  0.56572211  1
  H+  H40  1  0.02989426  0.39719659  0.37768663  1
  H+  H41  1  0.48174474  0.61523541  0.50841815  1
  H+  H42  1  0.11081163  -0.02890542  0.67649799  1
  H+  H43  1  0.62559419  0.97462058  0.00543689  1
  H+  H44  1  0.46352657  0.35825425  0.32193095  1
  H+  H45  1  0.87156307  0.13716764  0.02152061  1
  H+  H46  1  0.65568407  0.28493166  -0.00595034  1
  H+  H47  1  0.58538193  0.41667407  0.76245199  1
  H+  H48  1  0.04506001  0.02079748  0.94610440  1
  H+  H49  1  0.64488456  0.10437173  0.84278479  1
  H+  H50  1  0.01077334  0.98291683  0.45379441  1
  H+  H51  1  0.31970444  -0.03378002  0.99478819  1
  H+  H52  1  0.65961701  0.25423546  0.18365615  1
  H+  H53  1  0.30203086  0.37641282  0.46630950  1
  H+  H54  1  0.45821597  0.07056689  1.03084491  1
  H+  H55  1  0.89232542  0.03096414  0.79531017  1
  H+  H56  1  0.88247159  0.87739294  0.99541281  1
  H+  H57  1  0.37475143  0.64454238  0.00375247  1
  H+  H58  1  0.76074157  0.37202667  0.48324553  1
  H+  H59  1  0.19330898  0.35819289  0.31099018  1
  H+  H60  1  0.39516012  0.52686046  0.49921940  1
  H+  H61  1  0.62219948  0.10474322  0.48635617  1
  H+  H62  1  0.61864539  0.76089254  0.18189208  1
  H+  H63  1  0.51229013  0.13881174  0.47903837  1
  H+  H64  1  0.74030670  0.10907955  0.32001823  1
  H+  H65  1  0.26731469  0.14019650  0.49171645  1
  H+  H66  1  0.64792271  0.07179355  0.54691029  1
  H+  H67  1  0.44818263  0.36361678  0.16774009  1
  H+  H68  1  0.05155268  0.43090410  0.61329021  1
  H+  H69  1  0.40930985  0.77535910  -0.00616135  1
  H+  H70  1  0.68815033  0.84716462  0.93192322  1
  H+  H71  1  0.65120740  0.02070115  0.84315222  1
  H+  H72  1  0.57693236  0.40704675  0.39178071  1
  H+  H73  1  0.22472265  0.36806431  0.82710218  1
  H+  H74  1  0.84446818  0.36367028  0.48834597  1
  H+  H75  1  0.71828456  0.62553485  0.16622847  1
  H+  H76  1  0.85904742  0.72200794  0.67066484  1
  H+  H77  1  0.89354930  0.61779625  -0.00629374  1
  H+  H78  1  0.61483530  0.47810752  0.66718372  1
  H+  H79  1  0.86720954  0.23132509  0.81965177  1
  H+  H80  1  0.85360579  0.62989816  0.15625794  1
  H+  H81  1  0.47627347  0.87186053  0.33674281  1
  H+  H82  1  0.85990795  -0.01934603  0.32189538  1
  H+  H83  1  0.52730849  0.63821311  0.82485548  1
  H+  H84  1  0.36818033  0.26894138  0.17004360  1
  H+  H85  1  0.57735541  0.50858443  0.14088632  1
  H+  H86  1  0.69828495  0.60623188  0.32279369  1
  H+  H87  1  0.36271722  0.47619343  0.67453258  1
  H+  H88  1  0.16628538  0.66526693  0.80970011  1
  H+  H89  1  0.40003644  0.86772656  0.50481916  1
  H+  H90  1  0.12300618  0.69022378  0.75478665  1
  H+  H91  1  0.13336408  0.35198075  0.67075138  1
  H+  H92  1  0.47976136  0.37245784  0.98353971  1
  H+  H93  1  0.97548855  0.86066463  0.67322397  1
  H+  H94  1  0.61918627  0.48118247  0.48603663  1
  H+  H95  1  0.08626240  0.21291070  0.50760955  1
  H+  H96  1  0.86599190  0.87522668  0.16657248  1
  H+  H97  1  0.60277693  0.58640657  0.32386466  1
  H+  H98  1  0.88241928  0.00865700  1.02640260  1
  H+  H99  1  0.71656572  0.09944780  0.64455176  1
  H+  H100  1  0.87171307  0.89248930  0.79124795  1
  H+  H101  1  0.09830370  0.48428699  0.35255516  1
  H+  H102  1  0.64363505  0.15106863  0.01028375  1
  H+  H103  1  0.86142220  0.46181640  0.34610547  1
  H+  H104  1  0.25026915  0.04776035  0.90172115  1
  H+  H105  1  0.89885643  0.27366924  0.17518309  1
  H+  H106  1  0.37840597  0.11804061  0.49879007  1
  H+  H107  1  0.11227625  0.64470448  0.66422450  1
  H+  H108  1  0.86844090  0.25322466  0.50301127  1
  H+  H109  1  0.60693009  0.97116836  0.47109628  1
  H+  H110  1  0.38978894  0.28310093  -0.01229208  1
  H+  H111  1  0.21281034  0.86135290  0.99498837  1
  H+  H112  1  -0.04051788  0.10085051  0.52129399  1
  H+  H113  1  0.17095885  0.06146195  0.90576364  1
  H+  H114  1  0.36014294  0.72284335  0.49305084  1
  H+  H115  1  0.98047903  0.63125279  0.50826057  1
  H+  H116  1  0.63555620  0.11169900  0.64290822  1
  H+  H117  1  0.23655010  0.61162458  -0.01100032  1
  H+  H118  1  0.13247636  0.26370627  0.00605291  1
  H+  H119  1  0.76284316  0.12414698  0.48475615  1
  H+  H120  1  0.02194790  0.13932645  0.80556609  1
  H+  H121  1  0.22598060  0.89023150  0.32501990  1
  H+  H122  1  0.88374683  0.60795583  0.66142077  1
  H+  H123  1  0.82379999  0.65880041  0.72547300  1
  H+  H124  1  0.10910900  0.61945692  0.01237674  1
  H+  H125  1  0.64551732  0.37084869  0.65070678  1
  H+  H126  1  0.86646653  0.87983158  0.69400143  1
  H+  H127  1  1.01497937  0.13218859  0.32826521  1
  H+  H128  1  1.02260830  0.62511286  1.00943099  1
  H+  H129  1  0.33791728  0.10045143  0.97572556  1
  H+  H130  1  0.38868324  0.63914525  0.16568176  1
  H+  H131  1  0.14643238  0.53156505  0.83110355  1
  H+  H132  1  0.53720882  0.14120717  0.16156114  1
  H+  H133  1  0.88978556  1.01314085  0.16715674  1
  H+  H134  1  0.62164071  0.26701145  0.49037213  1
  H+  H135  1  0.90467272  0.07331220  0.60473550  1
  H+  H136  1  0.36718359  0.14202942  0.15571038  1
  H+  H137  1  0.11564292  0.21234046  0.16594149  1
  H+  H138  1  0.12232081  0.10008827  0.65461046  1
  H+  H139  1  0.13103227  0.96823662  0.83264278  1
  H+  H140  1  0.12834086  0.03331291  0.50127477  1
  H+  H141  1  0.08010057  0.90123788  0.06937671  1
  H+  H142  1  0.36224144  0.63563343  0.49213676  1
  H+  H143  1  0.13215316  0.26336642  0.66300040  1
  H+  H144  1  0.76564320  0.88357650  0.50704920  1
  H+  H145  1  0.37554414  0.72653115  0.67147954  1
  H+  H146  1  0.91462757  0.07884495  1.08174309  1
  H+  H147  1  0.08973853  0.57812657  0.25024462  1
  H+  H148  1  0.47690060  0.86371315  0.66249725  1
  H+  H149  1  0.66859170  0.07505010  0.23649370  1
  H+  H150  1  0.73892191  0.10881457  0.99828104  1
  H+  H151  1  0.99158874  0.38391279  0.52839071  1
  H+  H152  1  0.62161526  0.88836632  0.82206033  1
  H+  H153  1  0.37681993  0.49303237  0.82542202  1
  H+  H154  1  0.38602190  0.62788647  0.32079962  1
  H+  H155  1  0.73202295  0.35702761  0.33159420  1
  H+  H156  1  0.01501167  0.46351116  0.66721524  1
  H+  H157  1  0.38803630  0.03298143  0.17085598  1
  H+  H158  1  0.51811500  0.11170411  0.81276447  1
  H+  H159  1  0.22403281  0.61100539  0.50190751  1
  H+  H160  1  0.39184287  0.26679017  0.65593919  1
  H+  H161  1  0.64866975  0.28311182  0.65027666  1
  H+  H162  1  0.48928276  0.60512548  0.33909863  1
  H+  H163  1  0.39580602  -0.00146796  0.48577211  1
  H+  H164  1  0.78317946  0.39085232  1.01191652  1
  H+  H165  1  0.31397182  0.19732341  0.74047192  1
  H+  H166  1  0.27197568  0.38736655  0.68131320  1
  H+  H167  1  0.41284046  0.84426396  0.22990203  1
  H+  H168  1  0.52059107  0.66491383  0.16745871  1
  H+  H169  1  0.38646024  0.51144999  0.14830798  1
  H+  H170  1  0.64426526  0.36871714  0.99129287  1
  H+  H171  1  0.36160838  0.38960973  0.99726143  1
  H+  H172  1  0.39307931  0.40043471  0.44662680  1
  H+  H173  1  0.96589669  0.87354523  0.51360230  1
  H+  H174  1  0.39886304  0.10126619  0.65656140  1
  H+  H175  1  0.01550535  0.64727910  0.16256609  1
  H+  H176  1  0.13630285  0.63921535  0.16486007  1
  H+  H177  1  0.60558881  0.40306829  0.22629401  1
  H+  H178  1  0.83260982  0.64011089  0.33750397  1
  H+  H179  1  0.72404136  0.10500354  0.17301988  1
  H+  H180  1  0.61071608  0.72456062  0.67311348  1
  H+  H181  1  0.36799194  0.23774350  0.82706719  1
  H+  H182  1  0.49463893  0.37534160  0.50084755  1
  H+  H183  1  0.46955342  0.10937399  0.01184224  1
  H+  H184  1  0.98175170  0.10282403  0.16663515  1
  H+  H185  1  0.38774953  0.60856346  0.65936732  1
  H+  H186  1  0.61270703  0.97786350  0.16265494  1
  H+  H187  1  0.11428853  -0.01339256  0.33634527  1
  H+  H188  1  0.77972001  0.13997923  0.82736235  1
  H+  H189  1  0.89421223  0.35871802  0.18462561  1
  H+  H190  1  0.45363873  0.97755809  0.44510268  1
  H+  H191  1  0.89616117  0.58327946  0.22875539  1
  H+  H192  1  0.39913557  0.12379865  0.82423127  1
  H+  H193  1  0.27882905  0.25112094  0.70564166  1
  H+  H194  1  0.36124858  0.41173346  0.15526984  1
  H+  H195  1  0.09642758  -0.00413776  0.99145576  1
  H+  H196  1  0.87496591  0.48179300  0.17685056  1
  H+  H197  1  0.42722276  0.09320475  0.22949584  1
  H+  H198  1  0.37671401  0.99165129  0.33194229  1
  H+  H199  1  0.12866924  0.54759730  0.15978562  1
  H+  H200  1  0.61305336  0.38727763  0.48489088  1
  H+  H201  1  0.89187012  0.11914181  0.80900054  1
  H+  H202  1  -0.02019803  0.87532939  0.83186141  1
  H+  H203  1  0.35700171  0.74047590  0.15553876  1
  H+  H204  1  0.36086892  0.22749777  0.33568838  1
  H+  H205  1  0.87051345  0.10845153  0.32124945  1
  H+  H206  1  0.61238190  0.38775350  0.82415523  1
  H+  H207  1  0.86256064  0.13389561  0.15841048  1
  H+  H208  1  0.14718798  0.54734613  0.65391891  1
  H+  H209  1  0.86929326  1.01073164  0.52073992  1
  H+  H210  1  0.11583708  0.85887261  0.99146484  1
  H+  H211  1  0.25835891  0.90370550  0.15054715  1
  H+  H212  1  0.11913759  0.33278979  0.16146143  1
  H+  H213  1  0.72345903  0.86030816  0.66940697  1
  H+  H214  1  0.16204839  0.78364205  0.83598682  1
  H+  H215  1  0.13966017  0.00192623  0.16381907  1
  H+  H216  1  0.11388598  0.73016706  0.49106772  1
  H+  H217  1  0.89039205  0.52870470  0.00052259  1
  H+  H218  1  0.88592813  0.01917321  0.66805236  1
  H+  H219  1  0.37125150  0.73588939  0.33717928  1
  H+  H220  1  0.64027794  0.27909547  0.84296720  1
  H+  H221  1  0.63616868  0.34697213  0.32242234  1
  H+  H222  1  0.85054122  0.37305983  0.66995784  1
  H+  H223  1  0.75523973  0.35344828  0.18699633  1
  H+  H224  1  0.64073396  0.79414785  0.34144559  1
  H+  H225  1  0.61507268  0.66309635  0.16755329  1
  H+  H226  1  0.84944510  0.12270363  0.49824603  1
  H+  H227  1  0.86981467  0.38817806  0.01156235  1
  H+  H228  1  0.13679506  0.28023245  0.82144456  1
  H+  H229  1  0.56880517  0.43108806  0.05059524  1
  H+  H230  1  0.09898392  0.12942423  0.00449412  1
  H+  H231  1  0.48326293  0.47112589  0.11459770  1
  H+  H232  1  0.73172634  0.86227518  0.81967796  1
  H+  H233  1  0.09185903  0.15641392  0.10594500  1
  H+  H234  1  0.54281457  0.15843788  0.66027129  1
  H+  H235  1  0.34587890  0.39111612  0.31562961  1
  H+  H236  1  0.90910877  0.78416136  0.32438650  1
  H+  H237  1  0.61849085  0.63813911  0.49577446  1
  H+  H238  1  0.34281350  0.42694105  0.75771243  1
  H+  H239  1  0.84888536  0.11741654  0.67335361  1
  H+  H240  1  0.39002814  0.02968666  0.83131533  1
  H+  H241  1  0.86838327  0.64932023  0.50246416  1
  H+  H242  1  0.11635598  0.39438720  0.80899543  1
  H+  H243  1  0.21373881  0.84621194  0.66594436  1
  H+  H244  1  0.40798225  0.13046310  0.33063014  1
  H+  H245  1  0.37649727  0.73033703  0.82603661  1
  H+  H246  1  0.39086778  0.61313824  0.83550108  1
  H+  H247  1  0.56568757  0.35990734  0.22672617  1
  H+  H248  1  0.23014224  0.11232541  0.31816082  1
  H+  H249  1  0.73031762  0.61805865  0.98664826  1
  H+  H250  1  1.01625795  0.63269594  0.67119513  1
  H+  H251  1  0.62935908  0.77042763  0.51215660  1
  H+  H252  1  0.98417486  0.36127279  0.98622630  1
  H+  H253  1  0.96589092  0.57164808  0.40915964  1
  H+  H254  1  0.77920485  0.88004699  0.17506776  1
  H+  H255  1  0.37765686  0.39712052  0.82370368  1
  H+  H256  1  0.18145566  0.36338703  0.50765712  1
  H+  H257  1  0.48095315  0.37156328  0.83401646  1
  H+  H258  1  0.97854743  0.36408305  0.83269273  1
  H+  H259  1  0.07967374  0.38495953  0.53419129  1
  H+  H260  1  0.61521022  0.64010966  0.99269268  1
  H+  H261  1  0.24089573  0.61349831  0.83687591  1
  H+  H262  1  0.98759265  0.87790309  0.32141316  1
  H+  H263  1  0.73029364  0.61773447  0.50318788  1
  H+  H264  1  0.91651581  0.65349878  0.36554517  1
  H+  H265  1  0.13783691  0.85880165  0.84037609  1
  H+  H266  1  0.28351492  0.89513197  0.84111814  1
  H+  H267  1  0.60208743  0.45796297  0.32945511  1
  H+  H268  1  0.76434515  0.63993773  0.82412347  1
  H+  H269  1  0.85390591  0.88372831  0.51274809  1
  H+  H270  1  0.78052322  0.38730978  0.82570913  1
  H+  H271  1  0.54535899  0.05421277  0.77666856  1
  H+  H272  1  0.34158000  0.89245632  0.15622949  1
  H+  H273  1  0.42236470  0.38601979  0.53743631  1
  H+  H274  1  0.87202706  0.22641391  1.00499881  1
  H+  H275  1  0.51636298  0.87045429  -0.00499624  1
  H+  H276  1  0.39861116  0.87015427  0.84731327  1
  H+  H277  1  0.26732737  0.16156806  1.01282314  1
  H+  H278  1  0.86140971  0.73690908  0.00201936  1
  H+  H279  1  0.88817051  0.34040899  0.34545786  1
  H+  H280  1  0.63446759  0.87518123  0.18582645  1
  H+  H281  1  0.01157967  0.87639579  0.00986237  1
  H+  H282  1  0.46881774  0.87230753  0.17029268  1
  H+  H283  1  0.48528742  0.61951150  0.98351348  1
  H+  H284  1  0.35695804  0.22969991  0.48911967  1
  H+  H285  1  0.61481084  0.48260378  -0.00843125  1
  H+  H286  1  0.28363609  0.64249556  0.67207709  1
  H+  H287  1  0.12194002  0.76829890  0.65620877  1
  H+  H288  1  0.44947397  0.19830611  0.63302436  1
  H+  H289  1  0.58392877  0.66506613  0.76407278  1
  H+  H290  1  0.33052890  0.90206233  0.77943143  1
  H+  H291  1  0.59672568  0.16549914  0.71950316  1
  H+  H292  1  0.82082332  0.14015652  0.38653841  1
  H+  H293  1  0.66677566  0.58199957  0.56060264  1
  H+  H294  1  0.43901316  0.30201961  0.59100491  1
  H+  H295  1  0.61808561  0.34641205  0.11293244  1
  H+  H296  1  0.57815587  0.66090894  0.43898945  1
  H+  H297  1  0.33167723  0.17175068  0.06512906  1
  H+  H298  1  0.44110374  0.83810043  0.93223920  1
  H+  H299  1  0.14645907  0.31638798  0.22703586  1
  H+  H300  1  0.17271800  0.07466350  0.25831350  1
  H+  H301  1  0.88776797  0.36046132  0.83430473  1
  H+  H302  1  0.90964013  0.08366653  0.26049972  1
  H+  H303  1  0.07218683  0.67031199  0.10086809  1
  H+  H304  1  0.34180777  0.43026288  0.05597458  1
  H+  H305  1  0.11350481  0.26283008  0.31297749  1
  H+  H306  1  0.63095707  0.88580765  0.00168878  1
  H+  H307  1  0.55378036  0.15607424  0.41340369  1
  H+  H308  1  0.83282954  0.17006178  0.10345772  1
  H+  H309  1  0.31829560  0.42708108  0.37004120  1
  H+  H310  1  0.42021148  0.34467132  0.89428842  1
  H+  H311  1  0.37199059  0.53176139  0.30617057  1
  H+  H312  1  0.98663531  0.85121253  0.16694571  1
  H+  H313  1  0.84532302  0.68278539  0.44227641  1
  H+  H314  1  0.91560202  0.83818104  0.61431379  1
  H+  H315  1  0.25507516  0.78844728  0.73712602  1
  H+  H316  1  0.63665920  0.52234198  0.83186052  1
  H+  H317  1  0.15276020  0.32992451  0.57560060  1
  H+  H318  1  0.30779336  0.91810796  0.05883661  1
  H+  H319  1  0.26887897  0.65079830  0.15334304  1
  H+  H320  1  0.16750021  0.07798234  0.56628422  1
  H+  H321  1  0.08106213  0.42868894  0.75507501  1
  H+  H322  1  0.34769598  0.67217529  0.76499518  1
  H+  H323  1  0.12962009  0.52909895  0.51736151  1
  H+  H324  1  0.34468740  0.93078196  0.38904556  1
  H+  H325  1  0.21423556  0.11469211  0.66319886  1
  H+  H326  1  0.41761804  0.83155665  0.60289134  1
  H+  H327  1  0.61834199  0.73014509  -0.00547317  1
  H+  H328  1  0.11357313  0.89696161  0.34493907  1
  H+  H329  1  0.11282207  0.64091473  0.49258678  1
  H+  H330  1  0.84520031  0.00329888  0.90725680  1
  H+  H331  1  0.83127007  0.67528312  0.06016453  1
  H+  H332  1  0.42366507  0.10493318  0.55782586  1
  H+  H333  1  0.61721247  0.18356692  0.06931063  1
  H+  H334  1  0.86464135  0.72338881  0.16006262  1
  H+  H335  1  0.41489173  0.57549997  0.60003071  1
  H+  H336  1  0.65584225  0.32563541  0.55202173  1
  H+  H337  1  0.82289419  0.39579138  0.39977654  1
  H+  H338  1  0.67878279  0.07905074  0.93918525  1
  H+  H339  1  0.87684601  0.30074682  0.56674444  1
  H+  H340  1  0.58943819  0.92235814  0.76586114  1
  H+  H341  1  0.58632858  0.91378998  0.10487307  1
  H+  H342  1  0.65791944  0.38951094  0.11595821  1
  H+  H343  1  0.66646989  0.83535955  0.60806472  1
  H+  H344  1  0.82750014  0.90295468  0.06444074  1
  H+  H345  1  0.08283345  0.16191601  0.72315401  1
  H+  H346  1  0.34047886  0.67166147  0.39394773  1
  H+  H347  1  0.92044246  0.59545649  0.56706082  1
  H+  H348  1  0.01474617  0.47010519  0.10373227  1
  H+  H349  1  0.92110518  0.33171671  0.92940405  1
  H+  H350  1  0.83337244  0.41023197  0.76433944  1
  H+  H351  1  0.99919162  0.57167684  0.24217110  1
  H+  H352  1  0.10559300  0.13640948  0.32445215  1
  H+  H353  1  0.91313922  0.84829075  0.93353813  1
  H+  H354  1  0.18246594  0.60682835  0.59616406  1
  H+  H355  1  0.67230511  0.58663518  0.92602963  1
  H+  H356  1  0.81512466  0.14982472  0.72995473  1
  H+  H357  1  0.15352042  0.82846771  0.92966433  1
  H+  H358  1  0.10271986  0.13392484  0.50972494  1
  H+  H359  1  0.98824734  0.57625275  0.33923984  1
  H+  H360  1  0.14951270  0.79760525  0.33447649  1
  H+  H361  1  0.94240414  0.32901098  0.65783373  1
  H+  H362  1  0.72335280  0.61076591  0.65392352  1
  H+  H363  1  0.61908117  0.12638707  0.16513920  1
  H+  H364  1  0.34160676  0.67737619  0.06138376  1
  H+  H365  1  0.08242643  0.42203295  0.05826628  1
  H+  H366  1  0.68405605  0.31501576  0.25481875  1
  H+  H367  1  0.09013942  0.91551973  0.77002219  1
  H+  H368  1  0.10296243  0.79523729  0.14814093  1
  H+  H369  1  0.40053290  0.32809082  0.26404977  1
  H+  H370  1  0.67043912  0.33984104  0.90116098  1
  H+  H371  1  0.37635615  0.07357818  0.91874196  1
  H+  H372  1  0.84121506  0.41695733  0.11675853  1
  H+  H373  1  0.73357023  0.87989852  0.33153859  1
  H+  H374  1  0.65493311  0.59162191  0.22390761  1
  H+  H375  1  0.05920239  0.93983204  0.42289875  1
  H+  H376  1  0.11780473  0.68849706  0.39727523  1
  H+  H377  1  0.41762746  0.60743521  0.22591475  1
  H+  H378  1  0.88266364  -0.00423161  0.90707621  1
  H+  H379  1  0.66053780  0.84830291  0.25055137  1
  H+  H380  1  0.41890717  0.58195171  0.89646282  1
  H+  H381  1  0.93059601  0.82980298  0.22871014  1
  H+  H382  1  0.33236055  0.16726339  0.39447687  1
  H+  H383  1  0.17695012  0.58100705  0.92987574  1
  O2-  O384  1  0.08848803  0.15025772  0.15086195  1
  O2-  O385  1  0.05950209  0.15095109  0.49998346  1
  O2-  O386  1  0.08828245  0.17260895  0.79842528  1
  O2-  O387  1  0.04941178  0.44699623  0.12050936  1
  O2-  O388  1  0.05295233  0.42065614  0.54311068  1
  O2-  O389  1  0.08632829  0.42800368  0.79927324  1
  O2-  O390  1  0.07410494  0.68726121  0.14502435  1
  O2-  O391  1  0.08244823  0.66967862  0.47521130  1
  O2-  O392  1  0.16775854  0.71442379  0.78729942  1
  O2-  O393  1  0.08762456  0.89922617  0.13571386  1
  O2-  O394  1  0.04231056  0.95348942  0.46437905  1
  O2-  O395  1  0.08812556  0.91148927  0.81575645  1
  O2-  O396  1  0.33133872  0.16568155  0.13905818  1
  O2-  O397  1  0.32748375  0.17010032  0.47433759  1
  O2-  O398  1  0.33917022  0.17932395  0.80800768  1
  O2-  O399  1  0.37764914  0.45916545  0.12613941  1
  O2-  O400  1  0.35499596  0.42462663  0.45070642  1
  O2-  O401  1  0.34752358  0.42947768  0.80744137  1
  O2-  O402  1  0.33034484  0.68039516  0.13922903  1
  O2-  O403  1  0.32991865  0.66311713  0.47670620  1
  O2-  O404  1  0.34764879  0.67022258  0.81069344  1
  O2-  O405  1  0.31963954  0.92892424  0.13905630  1
  O2-  O406  1  0.39681471  0.94982576  0.46395205  1
  O2-  O407  1  0.34242365  0.92240123  0.82284231  1
  O2-  O408  1  0.59867780  0.16683130  0.15020271  1
  O2-  O409  1  0.56886335  0.16301666  0.45806724  1
  O2-  O410  1  0.56903198  0.11267233  0.79212096  1
  O2-  O411  1  0.53076779  0.45845406  0.11930031  1
  O2-  O412  1  0.58403085  0.42051531  0.47094001  1
  O2-  O413  1  0.58086541  0.41633102  0.80796057  1
  O2-  O414  1  0.58618671  0.69874210  0.15965767  1
  O2-  O415  1  0.58494527  0.66732650  0.48359933  1
  O2-  O416  1  0.58736505  0.66769608  0.80966447  1
  O2-  O417  1  0.58018667  0.91467968  0.14945582  1
  O2-  O418  1  0.57950610  0.90797158  0.45976366  1
  O2-  O419  1  0.59084708  0.92049087  0.81143707  1
  O2-  O420  1  0.83221855  0.16597496  0.14872356  1
  O2-  O421  1  0.82540289  0.15529319  0.47721949  1
  O2-  O422  1  0.83457872  0.17042703  0.80407408  1
  O2-  O423  1  0.84280566  0.41614155  0.16181424  1
  O2-  O424  1  0.82072073  0.39761710  0.46917895  1
  O2-  O425  1  0.83833052  0.40742181  0.80908775  1
  O2-  O426  1  0.82533986  0.66300501  0.14483549  1
  O2-  O427  1  0.83454056  0.67778846  0.48658095  1
  O2-  O428  1  0.82179897  0.68298045  0.80450363  1
  O2-  O429  1  0.83506940  0.90616105  0.15424221  1
  O2-  O430  1  0.82724966  0.91644575  0.49638441  1
  O2-  O431  1  0.83570905  0.91741425  0.77395007  1
  O2-  O432  1  0.17094836  0.06322797  0.17908065  1
  O2-  O433  1  0.17071625  0.08846296  0.52158279  1
  O2-  O434  1  0.21023325  0.05784464  0.87543408  1
  O2-  O435  1  0.15378467  0.31151813  0.18036534  1
  O2-  O436  1  0.13230984  0.32620821  0.53276571  1
  O2-  O437  1  0.16268792  0.34158905  0.83317953  1
  O2-  O438  1  0.16352646  0.60494469  0.17864717  1
  O2-  O439  1  0.16791734  0.59185882  0.52286095  1
  O2-  O440  1  0.18004456  0.58976870  0.84981058  1
  O2-  O441  1  0.13982706  0.85944323  0.15315805  1
  O2-  O442  1  0.16498783  0.83059681  0.52038984  1
  O2-  O443  1  0.17344132  0.83622960  0.85965022  1
  O2-  O444  1  0.42422210  0.09375873  0.18445527  1
  O2-  O445  1  0.41339135  0.09227197  0.51364629  1
  O2-  O446  1  0.42586876  0.09220581  0.84258155  1
  O2-  O447  1  0.39182202  0.32785015  0.18752228  1
  O2-  O448  1  0.43323869  0.34308849  0.51889930  1
  O2-  O449  1  0.41925096  0.34510444  0.84828070  1
  O2-  O450  1  0.42403344  0.61287456  0.18019624  1
  O2-  O451  1  0.41951444  0.58226215  0.52060457  1
  O2-  O452  1  0.41812659  0.57891573  0.85008668  1
  O2-  O453  1  0.40821660  0.84394572  0.18479097  1
  O2-  O454  1  0.41970133  0.82910986  0.52208476  1
  O2-  O455  1  0.42892070  0.83821987  0.85885420  1
  O2-  O456  1  0.66365835  0.07284230  0.18801645  1
  O2-  O457  1  0.64695002  0.06951708  0.50155968  1
  O2-  O458  1  0.67957910  0.08060718  0.85997960  1
  O2-  O459  1  0.69592734  0.31122731  0.20542542  1
  O2-  O460  1  0.65075392  0.32682794  0.50689750  1
  O2-  O461  1  0.66624708  0.33906877  0.85498903  1
  O2-  O462  1  0.65753191  0.60436171  0.17967515  1
  O2-  O463  1  0.66756301  0.58363490  0.51489861  1
  O2-  O464  1  0.66698099  0.58271585  0.84743702  1
  O2-  O465  1  0.66236356  0.84376876  0.20480914  1
  O2-  O466  1  0.65530084  0.82950946  0.52942919  1
  O2-  O467  1  0.67734278  0.83779042  0.84273473  1
  O2-  O468  1  0.91778688  0.07733634  0.16960340  1
  O2-  O469  1  0.89808514  0.07282340  0.53588624  1
  O2-  O470  1  0.92727759  0.09056021  0.80995369  1
  O2-  O471  1  0.93326590  0.33460904  0.18818735  1
  O2-  O472  1  0.88979526  0.31148697  0.52271392  1
  O2-  O473  1  0.91968930  0.33042836  0.84954346  1
  O2-  O474  1  0.92292096  0.57195900  0.19430128  1
  O2-  O475  1  0.92040047  0.60632937  0.52283214  1
  O2-  O476  1  0.88017765  0.65607875  0.81601710  1
  O2-  O477  1  0.92609993  0.82490846  0.18308960  1
  O2-  O478  1  0.91341771  0.83639298  0.53781205  1
  O2-  O479  1  0.91786638  0.85483264  0.83988281  1
  O2-  O480  1  0.17012108  0.08243328  0.30303294  1
  O2-  O481  1  0.15813246  0.07305474  0.64515235  1
  O2-  O482  1  0.10130481  0.04558771  0.96566282  1
  O2-  O483  1  0.13582522  0.32163384  0.29411483  1
  O2-  O484  1  0.16639852  0.32761183  0.65319741  1
  O2-  O485  1  0.16487243  0.32649503  0.99104174  1
  O2-  O486  1  0.03999641  0.57152438  0.27381336  1
  O2-  O487  1  0.18373895  0.60827160  0.64235538  1
  O2-  O488  1  0.17654611  0.57419196  0.97495055  1
  O2-  O489  1  0.16317266  0.85605479  0.31972327  1
  O2-  O490  1  0.15901049  0.83056225  0.64462844  1
  O2-  O491  1  0.14916564  0.82930767  0.97603679  1
  O2-  O492  1  0.43563742  0.09764255  0.31386521  1
  O2-  O493  1  0.44829652  0.14127344  0.63221871  1
  O2-  O494  1  0.32818696  0.05230968  0.94815897  1
  O2-  O495  1  0.40200805  0.33233263  0.30966894  1
  O2-  O496  1  0.44705813  0.28763130  0.63328697  1
  O2-  O497  1  0.41729202  0.34180248  0.96992833  1
  O2-  O498  1  0.41338485  0.59457923  0.30031470  1
  O2-  O499  1  0.41535603  0.57469253  0.64544432  1
  O2-  O500  1  0.42197389  0.58998563  0.97001372  1
  O2-  O501  1  0.42254325  0.84416540  0.31296096  1
  O2-  O502  1  0.41612516  0.82786567  0.64817253  1
  O2-  O503  1  0.44751205  0.83669464  0.97813067  1
  O2-  O504  1  0.67476887  0.07798630  0.30167297  1
  O2-  O505  1  0.65717781  0.07367382  0.62740706  1
  O2-  O506  1  0.67721446  0.07548954  0.98442424  1
  O2-  O507  1  0.67191099  0.32112525  0.31276293  1
  O2-  O508  1  0.67366420  0.34099819  0.63113798  1
  O2-  O509  1  0.67908202  0.34416285  0.97541786  1
  O2-  O510  1  0.64327126  0.57103236  0.30275479  1
  O2-  O511  1  0.66262879  0.57986848  0.63834555  1
  O2-  O512  1  0.66953846  0.58538560  0.97131845  1
  O2-  O513  1  0.66564850  0.85326227  0.32751651  1
  O2-  O514  1  0.66401431  0.83309910  0.65353511  1
  O2-  O515  1  0.68395059  0.84554102  0.97669383  1
  O2-  O516  1  0.90763107  0.07865822  0.30490814  1
  O2-  O517  1  0.91222637  0.07809936  0.65161714  1
  O2-  O518  1  0.91825412  0.07821409  1.03693418  1
  O2-  O519  1  0.92656990  0.31716986  0.35236101  1
  O2-  O520  1  0.88130814  0.30021209  0.64698902  1
  O2-  O521  1  0.92263343  0.33097853  0.97493530  1
  O2-  O522  1  0.94659070  0.57698875  0.36867200  1
  O2-  O523  1  0.91756282  0.58117046  0.64669990  1
  O2-  O524  1  0.92354128  0.58648979  0.98231202  1
  O2-  O525  1  0.92797808  0.83970981  0.30411849  1
  O2-  O526  1  0.91406230  0.83408789  0.65997978  1
  O2-  O527  1  0.91482406  0.84615547  0.97822437  1
  O2-  O528  1  0.08325480  0.16816056  0.02625008  1
  O2-  O529  1  0.07676654  0.16683329  0.34003517  1
  O2-  O530  1  0.08021024  0.16270202  0.67749778  1
  O2-  O531  1  0.09603979  0.41398373  0.01484838  1
  O2-  O532  1  0.08375020  0.45026275  0.38965876  1
  O2-  O533  1  0.05195056  0.43882280  0.66019468  1
  O2-  O534  1  0.07897112  0.64656888  0.03098331  1
  O2-  O535  1  0.14383678  0.70761486  0.35646459  1
  O2-  O536  1  0.07876271  0.66903992  0.68311646  1
  O2-  O537  1  0.07424845  0.90531802  0.02133411  1
  O2-  O538  1  0.08027865  0.92845506  0.35581104  1
  O2-  O539  1  0.08198919  0.91204053  0.69417097  1
  O2-  O540  1  0.32691647  0.17661550  0.01920777  1
  O2-  O541  1  0.33852852  0.16695463  0.34950067  1
  O2-  O542  1  0.30104651  0.21221541  0.69862100  1
  O2-  O543  1  0.32863123  0.41791860  0.01141984  1
  O2-  O544  1  0.31768094  0.42544054  0.32541219  1
  O2-  O545  1  0.33283002  0.41830784  0.69547949  1
  O2-  O546  1  0.34700888  0.67874914  0.01588804  1
  O2-  O547  1  0.34558388  0.67450289  0.34906855  1
  O2-  O548  1  0.34378991  0.66600161  0.68757911  1
  O2-  O549  1  0.29903296  0.90930381  0.01404332  1
  O2-  O550  1  0.34021832  0.93005834  0.34421274  1
  O2-  O551  1  0.29330757  0.84261095  0.71497302  1
  O2-  O552  1  0.62698813  0.19275631  0.02491957  1
  O2-  O553  1  0.52049606  0.13474309  0.33879570  1
  O2-  O554  1  0.60232072  0.17794071  0.67524149  1
  O2-  O555  1  0.57944138  0.42203229  0.00755252  1
  O2-  O556  1  0.57111463  0.39947646  0.34676690  1
  O2-  O557  1  0.59248300  0.41905670  0.68473773  1
  O2-  O558  1  0.58192448  0.66847078  0.00469646  1
  O2-  O559  1  0.53520005  0.60154631  0.36568626  1
  O2-  O560  1  0.58278676  0.66319942  0.68636291  1
  O2-  O561  1  0.59410467  0.91143688  0.01745103  1
  O2-  O562  1  0.57068335  0.90836926  0.39300553  1
  O2-  O563  1  0.58171411  0.92049803  0.68769424  1
  O2-  O564  1  0.83833028  0.16848410  0.02409524  1
  O2-  O565  1  0.82391882  0.14564141  0.34206827  1
  O2-  O566  1  0.81164904  0.14250881  0.68449099  1
  O2-  O567  1  0.84101962  0.41678024  0.03106739  1
  O2-  O568  1  0.82444505  0.39990363  0.35304378  1
  O2-  O569  1  0.83220780  0.41468938  0.68268948  1
  O2-  O570  1  0.83189010  0.67550954  0.01513566  1
  O2-  O571  1  0.87997335  0.68119230  0.36249075  1
  O2-  O572  1  0.82605332  0.65940628  0.68042857  1
  O2-  O573  1  0.83579271  0.91918354  0.02117120  1
  O2-  O574  1  0.82530488  0.91727508  0.33388462  1
  O2-  O575  1  0.83281671  0.90983346  0.70684845  1
