# generated using pymatgen
data_H2O
_symmetry_space_group_name_H-M   'P 1'
_cell_length_a   17.97858833
_cell_length_b   17.98547426
_cell_length_c   21.99306383
_cell_angle_alpha   89.99414204
_cell_angle_beta   90.01656939
_cell_angle_gamma   120.01568704
_symmetry_Int_Tables_number   1
_chemical_formula_structural   H2O
_chemical_formula_sum   'H384 O192'
_cell_volume   6157.79402832
_cell_formula_units_Z   192
loop_
 _symmetry_equiv_pos_site_id
 _symmetry_equiv_pos_as_xyz
  1  'x, y, z'
loop_
 _atom_type_symbol
 _atom_type_oxidation_number
  H+  1.0
  O2-  -2.0
loop_
 _atom_site_type_symbol
 _atom_site_label
 _atom_site_symmetry_multiplicity
 _atom_site_fract_x
 _atom_site_fract_y
 _atom_site_fract_z
 _atom_site_occupancy
  H+  H0  1  0.71931483  0.85876489  0.50640022  1
  H+  H1  1  0.88769786  0.37723133  0.32053706  1
  H+  H2  1  0.22407467  0.11081830  0.66652537  1
  H+  H3  1  0.72815945  0.16636678  0.45737126  1
  H+  H4  1  0.13915318  0.77641443  -0.00337131  1
  H+  H5  1  0.97839192  0.36226841  0.82222320  1
  H+  H6  1  0.49538802  0.85346763  0.65937153  1
  H+  H7  1  -0.08317152  0.34215374  0.59104673  1
  H+  H8  1  0.96452883  0.23644859  0.44867693  1
  H+  H9  1  0.62586516  0.51184022  0.32840183  1
  H+  H10  1  0.10745547  0.72510459  0.49509810  1
  H+  H11  1  0.01227634  0.86231915  0.34977410  1
  H+  H12  1  0.15358732  0.78035825  0.18187518  1
  H+  H13  1  0.87956083  1.01234601  0.18134514  1
  H+  H14  1  0.47828017  0.11250861  0.98713055  1
  H+  H15  1  0.07919900  -0.02227406  0.31505442  1
  H+  H16  1  0.36398627  0.51187693  0.52118078  1
  H+  H17  1  0.85013957  0.51185120  0.31110151  1
  H+  H18  1  0.51316842  0.38980812  0.67051569  1
  H+  H19  1  0.77036659  0.88970430  0.82989037  1
  H+  H20  1  0.83800247  0.61991769  0.34235212  1
  H+  H21  1  0.21453082  0.85596100  0.51582955  1
  H+  H22  1  0.72912508  0.61264014  0.83246295  1
  H+  H23  1  0.11098944  0.38020612  0.16178818  1
  H+  H24  1  0.12490421  0.26041649  0.17584616  1
  H+  H25  1  0.04696985  0.63113431  0.15968285  1
  H+  H26  1  0.47018719  0.84561319  0.18135809  1
  H+  H27  1  0.40015431  0.61934449  0.85144420  1
  H+  H28  1  0.16419234  0.84529684  0.28012486  1
  H+  H29  1  0.35135963  0.89596730  0.33244097  1
  H+  H30  1  1.02588241  0.64017738  1.01127815  1
  H+  H31  1  0.14486628  0.62073112  0.66082103  1
  H+  H32  1  0.96278701  0.68500195  0.61097200  1
  H+  H33  1  0.53071540  0.63341617  0.83090811  1
  H+  H34  1  0.12335055  0.40589093  0.82886360  1
  H+  H35  1  0.37835154  0.77082517  0.31949030  1
  H+  H36  1  0.35663499  0.72218373  0.15852206  1
  H+  H37  1  0.62170241  0.98101306  0.00979069  1
  H+  H38  1  0.15965631  0.02855673  0.17369353  1
  H+  H39  1  0.39271635  0.52519603  -0.00255314  1
  H+  H40  1  0.76505148  0.37279244  0.82678316  1
  H+  H41  1  0.62600350  0.11720887  0.65546038  1
  H+  H42  1  0.36334972  0.89070583  0.82994532  1
  H+  H43  1  0.27151349  0.88538081  0.82893158  1
  H+  H44  1  0.61370753  0.38553678  0.47764622  1
  H+  H45  1  0.11156255  0.11745785  0.82265176  1
  H+  H46  1  0.18221936  0.66197756  0.50486043  1
  H+  H47  1  0.27241246  0.87726694  0.67251496  1
  H+  H48  1  0.86561498  0.22393151  1.01687953  1
  H+  H49  1  0.90827642  0.50966833  0.17067492  1
  H+  H50  1  0.61279630  0.63235858  0.67526103  1
  H+  H51  1  0.62419348  -0.00156155  0.16530386  1
  H+  H52  1  0.39642539  0.53573240  0.29585378  1
  H+  H53  1  0.02559763  0.66580669  0.34385802  1
  H+  H54  1  0.51906947  0.39349067  0.82691759  1
  H+  H55  1  0.98563718  0.61052840  0.49384579  1
  H+  H56  1  0.34179323  0.34936954  0.15125142  1
  H+  H57  1  0.72195121  0.35527827  0.49709503  1
  H+  H58  1  0.34722106  -0.03151153  0.49911528  1
  H+  H59  1  0.37748958  0.36612627  0.83932192  1
  H+  H60  1  0.63173627  0.52082525  0.65488853  1
  H+  H61  1  0.01310468  0.12321378  0.66522621  1
  H+  H62  1  0.99045960  0.65410511  0.84558012  1
  H+  H63  1  0.37842003  0.02265453  0.32229303  1
  H+  H64  1  0.46063268  0.11008800  0.49291109  1
  H+  H65  1  0.64078887  0.77107341  0.66011819  1
  H+  H66  1  0.02673573  0.39383189  0.66448119  1
  H+  H67  1  0.13441713  0.85953950  0.66395390  1
  H+  H68  1  0.60577102  0.89418699  0.34037730  1
  H+  H69  1  0.11826398  0.49931489  0.45958141  1
  H+  H70  1  0.36363537  0.63341388  0.00023597  1
  H+  H71  1  0.39732860  0.90399875  0.15746134  1
  H+  H72  1  0.88085516  0.10259923  -0.00300374  1
  H+  H73  1  0.85878956  0.38297025  0.48106466  1
  H+  H74  1  0.14751742  0.61346047  0.16168298  1
  H+  H75  1  0.58991177  -0.00316358  0.50719551  1
  H+  H76  1  0.41567695  0.34214154  0.89737503  1
  H+  H77  1  0.85477283  0.38595215  0.66366455  1
  H+  H78  1  0.85459782  0.96938387  0.00887269  1
  H+  H79  1  0.24491323  0.61436378  0.15787244  1
  H+  H80  1  0.48946911  0.14581648  0.15091197  1
  H+  H81  1  0.22203783  0.56652999  0.32999371  1
  H+  H82  1  0.46448677  0.86389870  0.32624640  1
  H+  H83  1  0.57968456  0.42245137  1.06802464  1
  H+  H84  1  0.87570443  0.77836518  0.83909541  1
  H+  H85  1  0.36497567  0.97720042  0.00259819  1
  H+  H86  1  0.48032618  0.61575009  1.00134843  1
  H+  H87  1  0.12149634  0.20843996  0.81160955  1
  H+  H88  1  0.87495860  0.25456366  0.32800753  1
  H+  H89  1  0.35392020  0.47260631  0.83163650  1
  H+  H90  1  0.60127001  0.12823818  0.81332584  1
  H+  H91  1  0.10063320  0.34389190  0.47923780  1
  H+  H92  1  1.01926465  0.09511404  0.53042757  1
  H+  H93  1  0.97488371  0.09455950  0.18290469  1
  H+  H94  1  0.63138853  0.61393577  0.83353235  1
  H+  H95  1  0.85003278  0.47119152  0.66939291  1
  H+  H96  1  0.33642758  0.19574409  0.42033291  1
  H+  H97  1  0.97271883  0.35454174  0.49343243  1
  H+  H98  1  0.28043159  0.39793235  1.00179870  1
  H+  H99  1  0.63367635  0.61651578  0.00067030  1
  H+  H100  1  0.82511046  0.14850652  0.59260028  1
  H+  H101  1  0.29364480  0.14735213  0.48326714  1
  H+  H102  1  0.15702223  0.54269281  0.46481876  1
  H+  H103  1  0.32640396  0.15861084  1.05772145  1
  H+  H104  1  0.58589947  0.09445542  0.50296521  1
  H+  H105  1  0.37941385  0.38679374  0.51276967  1
  H+  H106  1  0.20467578  0.23146417  0.05479763  1
  H+  H107  1  0.86546807  0.75006100  0.32525570  1
  H+  H108  1  0.62088764  -0.01618600  0.83213371  1
  H+  H109  1  0.86521461  0.63111660  0.49015388  1
  H+  H110  1  0.89102163  0.26725096  0.17531751  1
  H+  H111  1  0.11875556  0.39656540  0.00734725  1
  H+  H112  1  0.86342727  0.72664100  1.01087738  1
  H+  H113  1  0.85917025  0.47686093  0.00874045  1
  H+  H114  1  0.23584497  0.36241023  0.31449782  1
  H+  H115  1  0.88390804  0.35357953  0.82368543  1
  H+  H116  1  0.14592413  0.53243415  0.65521912  1
  H+  H117  1  0.14106197  0.40003087  0.33045103  1
  H+  H118  1  0.34620059  0.06132408  0.63087359  1
  H+  H119  1  0.27181726  0.63317865  -0.00118638  1
  H+  H120  1  0.86379516  0.72038276  0.49520859  1
  H+  H121  1  0.37585742  1.02076486  0.83628140  1
  H+  H122  1  0.49009326  0.64952291  0.34591647  1
  H+  H123  1  0.31163037  0.66438727  0.47105469  1
  H+  H124  1  0.46536659  0.10838669  0.83272008  1
  H+  H125  1  -0.00524453  0.63963420  0.65581618  1
  H+  H126  1  0.34987433  0.38522685  0.68156640  1
  H+  H127  1  0.75475162  0.86907244  0.34443722  1
  H+  H128  1  0.21803216  0.61669169  0.84893555  1
  H+  H129  1  0.61817718  0.53016763  0.18384995  1
  H+  H130  1  0.88231176  0.86959145  0.84057623  1
  H+  H131  1  0.52374536  0.63162741  0.68542966  1
  H+  H132  1  0.48243489  0.87418011  0.84363022  1
  H+  H133  1  0.17801309  0.27083553  0.50076589  1
  H+  H134  1  0.72249157  0.85909232  -0.00342231  1
  H+  H135  1  0.81538370  0.65338455  0.40488016  1
  H+  H136  1  0.61837154  0.26543801  0.83732578  1
  H+  H137  1  0.86182288  0.47290154  0.48235082  1
  H+  H138  1  0.34114038  0.08653807  0.16983161  1
  H+  H139  1  0.62725814  0.77338792  0.50886238  1
  H+  H140  1  0.03581870  0.13863889  0.54451955  1
  H+  H141  1  0.15220455  0.09857586  0.50842040  1
  H+  H142  1  0.22902850  0.20908386  0.45972620  1
  H+  H143  1  0.99100031  0.95104441  0.23247932  1
  H+  H144  1  0.50979750  0.13263455  0.66403745  1
  H+  H145  1  0.11768442  0.73238993  0.82683268  1
  H+  H146  1  0.14763532  0.86484260  0.17896006  1
  H+  H147  1  0.40857739  0.08492746  0.26261135  1
  H+  H148  1  0.11685358  0.12906084  0.17097034  1
  H+  H149  1  0.85309418  0.12470796  0.65106823  1
  H+  H150  1  0.78297543  0.12592864  0.17047197  1
  H+  H151  1  0.59058790  0.66339813  0.76957951  1
  H+  H152  1  0.51419565  0.12854501  0.33143618  1
  H+  H153  1  0.88163237  0.85626730  0.66301004  1
  H+  H154  1  0.26629395  0.90244709  0.34018252  1
  H+  H155  1  0.13173725  0.01886220  0.99407367  1
  H+  H156  1  0.11806051  0.22702686  0.33734255  1
  H+  H157  1  0.16983110  0.06377295  0.56899283  1
  H+  H158  1  0.12011236  0.73178676  0.67375507  1
  H+  H159  1  0.88607704  0.61623371  1.00465496  1
  H+  H160  1  0.13375631  0.52324565  0.99647633  1
  H+  H161  1  0.52848617  0.95360252  0.13737292  1
  H+  H162  1  0.37537905  -0.00014761  0.66068249  1
  H+  H163  1  0.38910853  0.62077504  0.29442141  1
  H+  H164  1  0.88268380  0.35591348  0.00342172  1
  H+  H165  1  0.63177641  0.51615034  0.83479052  1
  H+  H166  1  0.65236167  0.58413007  0.26936683  1
  H+  H167  1  0.76971461  0.38811145  0.00413846  1
  H+  H168  1  0.87491094  0.23429128  0.81377313  1
  H+  H169  1  0.86033851  0.97836626  0.82643822  1
  H+  H170  1  0.62146306  0.62380194  0.18323065  1
  H+  H171  1  0.72156654  0.60917227  0.65646204  1
  H+  H172  1  0.62196694  0.35493075  0.32107726  1
  H+  H173  1  0.38456246  0.61014098  0.68296496  1
  H+  H174  1  0.10233826  0.95465557  0.49224320  1
  H+  H175  1  0.10944918  0.96968643  0.67664504  1
  H+  H176  1  -0.02772629  0.35873729  0.00285075  1
  H+  H177  1  0.77562955  0.63848869  0.01200585  1
  H+  H178  1  0.40596287  0.82478855  0.23675423  1
  H+  H179  1  0.33370088  0.66899907  0.90780056  1
  H+  H180  1  0.86681041  0.83821590  0.33143701  1
  H+  H181  1  0.62072227  0.85839960  0.17789035  1
  H+  H182  1  0.11450942  0.63889171  1.00497036  1
  H+  H183  1  0.58345196  0.92261912  0.43081222  1
  H+  H184  1  0.87429395  0.09980607  0.50105234  1
  H+  H185  1  0.51204736  0.39000801  0.15921907  1
  H+  H186  1  0.64507770  0.82581586  0.27420324  1
  H+  H187  1  0.35179498  0.88336777  0.51159858  1
  H+  H188  1  0.56731997  0.13353246  0.16202617  1
  H+  H189  1  0.85035223  0.95034518  0.34429984  1
  H+  H190  1  0.61766960  0.13828302  1.00843981  1
  H+  H191  1  0.14359335  0.51634393  0.16345125  1
  H+  H192  1  0.13049836  0.52708914  0.83624211  1
  H+  H193  1  0.34722047  0.68254285  0.40340154  1
  H+  H194  1  0.60367366  0.39640489  0.16306570  1
  H+  H195  1  0.88425668  0.27803088  0.64554992  1
  H+  H196  1  0.88363613  0.35293048  0.16941281  1
  H+  H197  1  0.61187106  0.72660834  1.01529985  1
  H+  H198  1  0.73785371  0.11759253  1.00598399  1
  H+  H199  1  0.84491773  0.57931299  0.26274747  1
  H+  H200  1  0.97149888  0.85676389  0.66441968  1
  H+  H201  1  0.76913884  0.87741215  0.67142419  1
  H+  H202  1  0.39071488  0.24168409  0.32961971  1
  H+  H203  1  0.12814304  0.26169688  0.65821703  1
  H+  H204  1  1.01764699  0.88353262  0.82994889  1
  H+  H205  1  0.15461433  0.29633692  0.99076064  1
  H+  H206  1  0.84125868  0.00062732  0.51343578  1
  H+  H207  1  0.24351597  0.38354941  0.51563694  1
  H+  H208  1  0.60509212  0.38600638  0.82696136  1
  H+  H209  1  0.30330839  0.18872603  0.16985342  1
  H+  H210  1  0.88251900  0.86277418  -0.00129140  1
  H+  H211  1  0.36657382  0.88921742  1.00463300  1
  H+  H212  1  0.90724700  0.07195201  0.93711401  1
  H+  H213  1  0.86385252  0.17234760  0.29612998  1
  H+  H214  1  0.61511351  0.89137154  0.49171402  1
  H+  H215  1  0.62315232  0.36002995  0.65221946  1
  H+  H216  1  0.65813069  0.32526185  0.55451955  1
  H+  H217  1  0.13495450  0.86225674  0.84348168  1
  H+  H218  1  0.38291344  0.40430522  0.30649739  1
  H+  H219  1  0.22508985  0.10309836  0.98827173  1
  H+  H220  1  0.42158498  0.58513200  0.59404151  1
  H+  H221  1  0.37958346  0.28294008  0.66439458  1
  H+  H222  1  0.71765587  0.60854724  0.33384291  1
  H+  H223  1  0.88719198  0.27210116  0.49583641  1
  H+  H224  1  0.88172041  0.08335501  0.33751824  1
  H+  H225  1  0.97204330  0.85284721  0.50567696  1
  H+  H226  1  0.11599690  0.75220102  0.34724284  1
  H+  H227  1  0.85603671  0.72603132  0.67610668  1
  H+  H228  1  0.21726067  0.35294876  0.66436291  1
  H+  H229  1  0.37061755  0.15459331  0.68694521  1
  H+  H230  1  0.96993956  0.71226578  0.88732872  1
  H+  H231  1  0.72333918  0.12032326  0.32298471  1
  H+  H232  1  0.87725517  1.01044390  0.66402942  1
  H+  H233  1  0.08854493  0.06900840  0.30391622  1
  H+  H234  1  0.39490087  0.77923222  0.99318941  1
  H+  H235  1  0.71169356  0.10916133  0.64296088  1
  H+  H236  1  0.61441434  0.47462249  0.48002643  1
  H+  H237  1  0.40632738  0.75221166  0.65546344  1
  H+  H238  1  0.12438091  0.30406438  0.85571893  1
  H+  H239  1  0.61798017  0.76760626  0.17857831  1
  H+  H240  1  0.60620421  0.63578195  0.49482782  1
  H+  H241  1  0.37767641  0.51745386  0.68176653  1
  H+  H242  1  0.37013502  0.73735485  0.85618325  1
  H+  H243  1  0.22353094  0.10914743  0.84232596  1
  H+  H244  1  0.69956250  0.17035541  0.87360188  1
  H+  H245  1  0.10594578  0.63802238  0.82780307  1
  H+  H246  1  0.71081140  0.35763050  0.65260653  1
  H+  H247  1  0.35985648  0.23192211  0.83282677  1
  H+  H248  1  0.12683186  0.87382120  0.34004040  1
  H+  H249  1  0.48463378  0.86899053  -0.00087459  1
  H+  H250  1  0.77116218  0.38426810  0.16013087  1
  H+  H251  1  0.27168187  0.64068163  0.67728289  1
  H+  H252  1  0.85604369  0.87683435  0.49849285  1
  H+  H253  1  0.61959179  0.26308405  0.32073117  1
  H+  H254  1  0.17335269  0.32102239  0.57209368  1
  H+  H255  1  0.73278006  0.12766360  0.46311996  1
  H+  H256  1  0.57788369  0.41538071  0.38962639  1
  H+  H257  1  0.14536460  0.15186364  0.01465552  1
  H+  H258  1  0.36680652  0.39065216  0.00261204  1
  H+  H259  1  0.66837629  0.83140965  0.60143917  1
  H+  H260  1  0.25718056  0.38935898  0.83669591  1
  H+  H261  1  0.12224123  0.85186385  0.50915538  1
  H+  H262  1  0.63798735  0.77711324  0.84293240  1
  H+  H263  1  0.11027806  0.88662520  0.00827140  1
  H+  H264  1  0.87530075  0.13206975  0.16972817  1
  H+  H265  1  0.13273034  0.10477637  0.65810202  1
  H+  H266  1  0.52303556  0.39813848  0.32350385  1
  H+  H267  1  0.36356661  0.13030723  0.00138016  1
  H+  H268  1  0.47733680  0.61624333  0.53073622  1
  H+  H269  1  1.03945484  0.90774851  0.16821011  1
  H+  H270  1  0.65100569  0.32337684  0.89814518  1
  H+  H271  1  0.89128321  0.11497073  0.83557435  1
  H+  H272  1  -0.02373287  0.10778297  0.83710551  1
  H+  H273  1  0.60489095  0.77778011  0.33832705  1
  H+  H274  1  0.75514039  0.37530628  0.33089499  1
  H+  H275  1  0.60655660  0.13202288  0.33016139  1
  H+  H276  1  0.38754036  0.02827941  0.16477759  1
  H+  H277  1  0.37232388  0.29594353  0.50566381  1
  H+  H278  1  0.76280378  0.87910554  0.16787123  1
  H+  H279  1  0.61783668  0.89374679  0.83084376  1
  H+  H280  1  0.47959113  0.86403004  0.50611810  1
  H+  H281  1  0.86177167  0.64137435  0.67453876  1
  H+  H282  1  0.72413518  0.61154016  0.50109652  1
  H+  H283  1  0.43268900  0.26156488  0.18652127  1
  H+  H284  1  0.67500546  0.12263150  0.17560069  1
  H+  H285  1  0.43071684  0.58355236  0.90451403  1
  H+  H286  1  0.74586738  0.13159452  0.83621651  1
  H+  H287  1  0.02057722  0.88657673  0.00877365  1
  H+  H288  1  0.84337115  0.62939029  0.16840919  1
  H+  H289  1  0.16623546  0.32693885  0.26127946  1
  H+  H290  1  0.02440545  0.38581930  0.16244968  1
  H+  H291  1  0.15676876  0.57949617  0.93502424  1
  H+  H292  1  0.56955276  0.16016288  0.75653925  1
  H+  H293  1  0.63182636  0.27284343  0.99387869  1
  H+  H294  1  0.81851345  0.41289900  0.38852633  1
  H+  H295  1  0.82744820  0.90952977  0.73258805  1
  H+  H296  1  0.92719550  0.85495198  0.24146624  1
  H+  H297  1  0.35642617  0.43158398  0.36917645  1
  H+  H298  1  0.08208081  0.37822412  0.41674343  1
  H+  H299  1  0.32971208  0.17642253  0.74273899  1
  H+  H300  1  0.67202802  0.08192682  0.25998938  1
  H+  H301  1  0.81861777  0.40429233  0.76633287  1
  H+  H302  1  0.08517344  0.66980202  0.73259756  1
  H+  H303  1  0.83523016  0.15920360  0.76117619  1
  H+  H304  1  0.22766580  0.86616555  0.99768246  1
  H+  H305  1  0.38282331  0.93968781  0.09463217  1
  H+  H306  1  0.92506234  0.57884530  0.55249732  1
  H+  H307  1  0.08663495  0.67588618  0.43067643  1
  H+  H308  1  0.07772003  0.90978182  0.73597370  1
  H+  H309  1  0.60796569  0.21903924  0.48258765  1
  H+  H310  1  0.66199168  0.58012516  0.55826603  1
  H+  H311  1  0.21443430  0.63447633  0.56251336  1
  H+  H312  1  0.38257414  0.14953921  0.33617431  1
  H+  H313  1  0.41518883  0.08290958  0.92878859  1
  H+  H314  1  0.47803935  0.70127780  0.39878695  1
  H+  H315  1  0.65389333  0.33384175  0.22891058  1
  H+  H316  1  0.47957640  0.36583275  0.99412705  1
  H+  H317  1  0.91740718  0.06368431  0.27700241  1
  H+  H318  1  0.09459149  0.42890272  0.76392553  1
  H+  H319  1  0.33010914  0.68349511  0.73703364  1
  H+  H320  1  0.33188706  0.90889792  0.73120609  1
  H+  H321  1  0.06805053  0.42555093  0.33182858  1
  H+  H322  1  0.92023652  0.59535703  0.94456151  1
  H+  H323  1  0.62056780  0.28212893  0.16693570  1
  H+  H324  1  0.42733935  0.85013936  0.90515167  1
  H+  H325  1  0.58379503  0.66808972  0.07639469  1
  H+  H326  1  0.16090133  0.07613207  0.90064876  1
  H+  H327  1  0.10905354  0.97009117  0.82975044  1
  H+  H328  1  0.63120399  0.36192858  0.99446415  1
  H+  H329  1  0.66318134  0.83353960  0.90364085  1
  H+  H330  1  0.41583033  0.32692841  0.23064515  1
  H+  H331  1  0.10405071  0.67247547  0.10040432  1
  H+  H332  1  0.60915802  -0.01509909  0.33908909  1
  H+  H333  1  0.59683079  0.22538229  0.66315496  1
  H+  H334  1  0.58815703  -0.01956532  0.67663890  1
  H+  H335  1  0.32532425  0.39857344  0.09774922  1
  H+  H336  1  0.48124893  0.61771152  0.20793986  1
  H+  H337  1  0.57327650  0.16410193  0.06188222  1
  H+  H338  1  0.63503512  0.86200720  0.99753032  1
  H+  H339  1  0.94154626  0.57353717  0.22687007  1
  H+  H340  1  0.35951746  0.14118798  0.83067941  1
  H+  H341  1  0.16801628  0.83513816  0.90322973  1
  H+  H342  1  0.31379488  0.40787507  0.74237991  1
  H+  H343  1  0.08616053  0.42033687  0.06818386  1
  H+  H344  1  0.08838666  0.92253948  0.10453746  1
  H+  H345  1  0.85987818  0.89447339  0.17135883  1
  H+  H346  1  0.03153583  0.13828689  0.35216427  1
  H+  H347  1  0.61517079  0.06265150  0.57127640  1
  H+  H348  1  0.33303432  0.67123835  0.09437959  1
  H+  H349  1  0.43952611  0.81038044  0.58908836  1
  H+  H350  1  0.57599984  0.41671432  0.72795158  1
  H+  H351  1  0.68306893  0.08867714  0.94423822  1
  H+  H352  1  0.47827962  0.43859513  0.25651123  1
  H+  H353  1  0.61215496  0.47940106  0.00803269  1
  H+  H354  1  0.39172943  0.27561713  0.98897019  1
  H+  H355  1  0.07347011  0.14869477  0.72403172  1
  H+  H356  1  0.55654128  0.66540882  0.44723891  1
  H+  H357  1  0.91334126  0.82425051  0.56691178  1
  H+  H358  1  0.41496780  0.07855674  0.55566155  1
  H+  H359  1  0.66296917  0.58897595  0.93983188  1
  H+  H360  1  0.75594971  0.61501313  0.19758682  1
  H+  H361  1  0.89376342  0.06302146  0.60222058  1
  H+  H362  1  0.82242691  0.66359700  0.76509852  1
  H+  H363  1  0.39257517  0.77797516  0.50024956  1
  H+  H364  1  0.17586381  0.35930761  0.93047552  1
  H+  H365  1  0.13873708  0.19224052  0.42762544  1
  H+  H366  1  0.09111525  0.15939258  0.11127268  1
  H+  H367  1  0.86013759  0.65117144  0.82987312  1
  H+  H368  1  0.82372493  0.90949226  0.06906009  1
  H+  H369  1  0.57647077  0.15741948  0.42242579  1
  H+  H370  1  0.21613230  0.34585427  0.16819147  1
  H+  H371  1  0.82168158  0.89945665  0.43791467  1
  H+  H372  1  0.83900361  0.16077692  0.07503050  1
  H+  H373  1  0.56486883  0.92320729  0.73788411  1
  H+  H374  1  0.11113291  0.38628370  0.66390920  1
  H+  H375  1  0.06840896  0.89892326  0.42777040  1
  H+  H376  1  0.15927097  0.82877668  0.60199109  1
  H+  H377  1  0.91242999  0.83637757  0.93802250  1
  H+  H378  1  0.31374762  0.47225191  0.45587737  1
  H+  H379  1  0.58855666  0.92505594  0.06993083  1
  H+  H380  1  0.87999394  0.18267695  0.41029047  1
  H+  H381  1  0.40214469  0.34310203  0.60462899  1
  H+  H382  1  0.92431611  0.34880255  0.26425917  1
  H+  H383  1  0.82778289  0.40906757  0.09970948  1
  O2-  O384  1  0.07955125  0.15134344  0.15572038  1
  O2-  O385  1  0.17138330  0.20579636  0.46756562  1
  O2-  O386  1  0.08249689  0.14777978  0.80320438  1
  O2-  O387  1  0.08525636  0.41551660  0.14741860  1
  O2-  O388  1  0.05463145  0.34172541  0.45386641  1
  O2-  O389  1  0.08899261  0.43118808  0.80852677  1
  O2-  O390  1  0.10841005  0.66706353  0.14530238  1
  O2-  O391  1  0.08413692  0.66655806  0.47671430  1
  O2-  O392  1  0.08023292  0.67237276  0.81126737  1
  O2-  O393  1  0.09713708  0.92811340  0.14935895  1
  O2-  O394  1  0.06710826  0.89473473  0.47754664  1
  O2-  O395  1  0.07805818  0.90931931  0.81485355  1
  O2-  O396  1  0.27045866  0.13057233  0.15072601  1
  O2-  O397  1  0.31456213  0.20209023  0.46166403  1
  O2-  O398  1  0.32787994  0.17126352  0.81740918  1
  O2-  O399  1  0.31253531  0.38118847  0.14120577  1
  O2-  O400  1  0.32283503  0.45279791  0.49506153  1
  O2-  O401  1  0.31885622  0.41208728  0.81833501  1
  O2-  O402  1  0.32716419  0.66382260  0.13889596  1
  O2-  O403  1  0.36585232  0.69251582  0.44726060  1
  O2-  O404  1  0.33736369  0.67330223  0.86317772  1
  O2-  O405  1  0.41404837  0.95778406  0.13428657  1
  O2-  O406  1  0.31394237  0.90476441  0.49807538  1
  O2-  O407  1  0.33143768  0.91801139  0.81263648  1
  O2-  O408  1  0.55208599  0.17103835  0.13980643  1
  O2-  O409  1  0.57481112  0.15769161  0.46852024  1
  O2-  O410  1  0.56870901  0.15690476  0.80211614  1
  O2-  O411  1  0.57288005  0.42652027  0.14776563  1
  O2-  O412  1  0.58711230  0.41742589  0.46027188  1
  O2-  O413  1  0.58052987  0.42253062  0.81255293  1
  O2-  O414  1  0.58379043  0.66932859  0.15404775  1
  O2-  O415  1  0.57180048  0.66533204  0.49082623  1
  O2-  O416  1  0.59225265  0.66101365  0.81599409  1
  O2-  O417  1  0.57491681  0.94053460  0.14428605  1
  O2-  O418  1  0.58286214  0.92065820  0.47697207  1
  O2-  O419  1  0.58788989  0.92507566  0.81646686  1
  O2-  O420  1  0.84473792  0.16183208  0.15451190  1
  O2-  O421  1  0.90374690  0.18949568  0.45188665  1
  O2-  O422  1  0.83936470  0.16629472  0.80516082  1
  O2-  O423  1  0.83048530  0.40580529  0.14524562  1
  O2-  O424  1  0.82666376  0.41198212  0.46794083  1
  O2-  O425  1  0.82420719  0.40091344  0.81064140  1
  O2-  O426  1  0.81402257  0.62414014  0.20677116  1
  O2-  O427  1  0.83154975  0.65966516  0.47940642  1
  O2-  O428  1  0.81669216  0.66390415  0.81103442  1
  O2-  O429  1  0.82157456  0.91207692  0.15052323  1
  O2-  O430  1  0.82213444  0.90334134  0.48336601  1
  O2-  O431  1  0.82958848  0.91680619  0.81261684  1
  O2-  O432  1  0.19135689  0.09130006  0.18751084  1
  O2-  O433  1  0.17181100  0.06011343  0.52397855  1
  O2-  O434  1  0.16176432  0.07468325  0.85470800  1
  O2-  O435  1  0.15668055  0.32279085  0.18622238  1
  O2-  O436  1  0.18300323  0.32773574  0.52561047  1
  O2-  O437  1  0.16952343  0.36289381  0.86300035  1
  O2-  O438  1  0.17834812  0.57969471  0.17443059  1
  O2-  O439  1  0.23302927  0.66247120  0.52271185  1
  O2-  O440  1  0.15521916  0.58616987  0.85567109  1
  O2-  O441  1  0.17685587  0.83795003  0.19983399  1
  O2-  O442  1  0.15199989  0.82342145  0.52934719  1
  O2-  O443  1  0.16728613  0.83346162  0.85750678  1
  O2-  O444  1  0.39289293  0.08325783  0.18058547  1
  O2-  O445  1  0.40339363  0.08098470  0.51225924  1
  O2-  O446  1  0.40674739  0.08219213  0.85085785  1
  O2-  O447  1  0.39878557  0.29011477  0.18800967  1
  O2-  O448  1  0.39659081  0.34820353  0.53141473  1
  O2-  O449  1  0.41388567  0.34044622  0.85188336  1
  O2-  O450  1  0.49095990  0.61147759  0.16425055  1
  O2-  O451  1  0.41836639  0.58756108  0.54878210  1
  O2-  O452  1  0.43040471  0.58662599  0.85869725  1
  O2-  O453  1  0.40862488  0.82000263  0.19064640  1
  O2-  O454  1  0.42274490  0.83014478  0.52659138  1
  O2-  O455  1  0.42242275  0.84527237  0.85956403  1
  O2-  O456  1  0.68586782  0.07928418  0.19303035  1
  O2-  O457  1  0.58461683  0.04518916  0.52997291  1
  O2-  O458  1  0.68928174  0.11540651  0.85747497  1
  O2-  O459  1  0.65519208  0.34109141  0.18340373  1
  O2-  O460  1  0.66018336  0.32210162  0.50945170  1
  O2-  O461  1  0.64878033  0.32535230  0.85258403  1
  O2-  O462  1  0.64796670  0.58784909  0.20317777  1
  O2-  O463  1  0.66222778  0.58234500  0.51300888  1
  O2-  O464  1  0.66445539  0.58023142  0.84849260  1
  O2-  O465  1  0.64915454  0.82879214  0.19507941  1
  O2-  O466  1  0.65853911  0.83548930  0.52074400  1
  O2-  O467  1  0.66449881  0.83691930  0.85774620  1
  O2-  O468  1  0.91618656  0.07008069  0.20083108  1
  O2-  O469  1  0.85039666  0.05474756  0.53278381  1
  O2-  O470  1  0.91633212  0.08053931  0.85205759  1
  O2-  O471  1  0.91919785  0.32967841  0.18701756  1
  O2-  O472  1  0.91417323  0.33212885  0.51084754  1
  O2-  O473  1  0.91628862  0.32223701  0.83016740  1
  O2-  O474  1  0.95041904  0.56937634  0.18313360  1
  O2-  O475  1  0.92227203  0.57675854  0.50776476  1
  O2-  O476  1  0.94246261  0.65505414  0.86918913  1
  O2-  O477  1  0.95010916  0.89919672  0.20825963  1
  O2-  O478  1  0.91023865  0.82258111  0.52178286  1
  O2-  O479  1  0.91123585  0.83711533  0.85534284  1
  O2-  O480  1  0.07735140  0.01703951  0.28220681  1
  O2-  O481  1  0.16567752  0.07468260  0.64924280  1
  O2-  O482  1  0.16364136  0.07856521  0.97627908  1
  O2-  O483  1  0.17235381  0.33104294  0.30693979  1
  O2-  O484  1  0.16027248  0.32215749  0.64230656  1
  O2-  O485  1  0.17994046  0.35682910  0.97835149  1
  O2-  O486  1  0.24769374  0.62189659  0.30856978  1
  O2-  O487  1  0.18021143  0.59527536  0.64669282  1
  O2-  O488  1  0.16510595  0.58399430  0.98008404  1
  O2-  O489  1  0.16497191  0.84742285  0.32532296  1
  O2-  O490  1  0.16437761  0.82939991  0.64825756  1
  O2-  O491  1  0.16779836  0.83707124  0.98115335  1
  O2-  O492  1  0.41570278  0.08643771  0.30725173  1
  O2-  O493  1  0.39836804  0.06151649  0.64324211  1
  O2-  O494  1  0.41654115  0.08269383  0.97440692  1
  O2-  O495  1  0.44553742  0.38484607  0.27893666  1
  O2-  O496  1  0.40784805  0.34362518  0.65065382  1
  O2-  O497  1  0.42016099  0.33659294  0.97617313  1
  O2-  O498  1  0.42942680  0.59775144  0.28535426  1
  O2-  O499  1  0.41540182  0.57959613  0.67069057  1
  O2-  O500  1  0.42226622  0.58590986  0.98150597  1
  O2-  O501  1  0.40595331  0.83401294  0.30854160  1
  O2-  O502  1  0.45699243  0.79795232  0.63201969  1
  O2-  O503  1  0.42506955  0.84115434  0.98150107  1
  O2-  O504  1  0.66436305  0.08550543  0.30723735  1
  O2-  O505  1  0.64793231  0.08001226  0.63809218  1
  O2-  O506  1  0.67657255  0.08796531  0.98872605  1
  O2-  O507  1  0.65098221  0.32373152  0.30499662  1
  O2-  O508  1  0.65084723  0.32729651  0.63679169  1
  O2-  O509  1  0.66030187  0.33208819  0.97654428  1
  O2-  O510  1  0.65507830  0.57730939  0.31703797  1
  O2-  O511  1  0.66190155  0.58157120  0.64012358  1
  O2-  O512  1  0.66283693  0.58508322  0.98428435  1
  O2-  O513  1  0.64905249  0.83269825  0.31946794  1
  O2-  O514  1  0.67397791  0.83142083  0.64642467  1
  O2-  O515  1  0.66170258  0.82907339  0.98063465  1
  O2-  O516  1  0.91718480  0.06015184  0.32295701  1
  O2-  O517  1  0.90669392  0.07084071  0.64714731  1
  O2-  O518  1  0.90418594  0.06626276  0.98181341  1
  O2-  O519  1  0.92538372  0.35299046  0.30973488  1
  O2-  O520  1  0.91419719  0.34030726  0.63646864  1
  O2-  O521  1  0.91047845  0.32198489  0.99311453  1
  O2-  O522  1  0.87731375  0.57304202  0.29762500  1
  O2-  O523  1  0.94173197  0.63057496  0.63254050  1
  O2-  O524  1  0.91751697  0.58608203  0.98890982  1
  O2-  O525  1  0.89677185  0.81076323  0.31181053  1
  O2-  O526  1  0.91090096  0.82388144  0.64920181  1
  O2-  O527  1  0.91537185  0.83498242  0.98306640  1
  O2-  O528  1  0.14599837  0.19915017  0.03935421  1
  O2-  O529  1  0.09414701  0.17106164  0.35943132  1
  O2-  O530  1  0.07486155  0.15469415  0.67893782  1
  O2-  O531  1  0.08537003  0.42369055  0.02292711  1
  O2-  O532  1  0.12186862  0.43736008  0.35147615  1
  O2-  O533  1  0.08748541  0.42271101  0.67819182  1
  O2-  O534  1  0.08842902  0.67238876  0.02191257  1
  O2-  O535  1  0.08341751  0.68892031  0.35989077  1
  O2-  O536  1  0.08763549  0.66922753  0.68711662  1
  O2-  O537  1  0.08168640  0.91860188  0.02316146  1
  O2-  O538  1  0.07034206  0.90471571  0.36360227  1
  O2-  O539  1  0.07687768  0.90858413  0.69047789  1
  O2-  O540  1  0.33112793  0.16059380  0.01334621  1
  O2-  O541  1  0.36302496  0.18897353  0.35315876  1
  O2-  O542  1  0.33204613  0.17662598  0.69665968  1
  O2-  O543  1  0.33991007  0.42281214  0.01981691  1
  O2-  O544  1  0.34374670  0.42672213  0.32589432  1
  O2-  O545  1  0.31442524  0.41053002  0.69642874  1
  O2-  O546  1  0.33523002  0.66883068  0.00672898  1
  O2-  O547  1  0.33870310  0.66588815  0.32787510  1
  O2-  O548  1  0.33324438  0.67064835  0.69438536  1
  O2-  O549  1  0.33647316  0.91881317  0.02133194  1
  O2-  O550  1  0.33072259  0.93458197  0.34623010  1
  O2-  O551  1  0.33353628  0.90791145  0.68607175  1
  O2-  O552  1  0.58173182  0.16528100  0.01711280  1
  O2-  O553  1  0.57542059  0.16061052  0.34741105  1
  O2-  O554  1  0.56985964  0.16468228  0.67897885  1
  O2-  O555  1  0.58158742  0.41856257  0.02279918  1
  O2-  O556  1  0.58174976  0.41921507  0.34299992  1
  O2-  O557  1  0.57525284  0.41593793  0.68286346  1
  O2-  O558  1  0.58341106  0.66612420  0.03031171  1
  O2-  O559  1  0.52156860  0.69043670  0.38048180  1
  O2-  O560  1  0.58625236  0.66307530  0.69609951  1
  O2-  O561  1  0.58881496  0.92011656  0.02434422  1
  O2-  O562  1  0.57676005  0.92536275  0.35657129  1
  O2-  O563  1  0.54453883  0.92666701  0.69654015  1
  O2-  O564  1  0.83418697  0.16112395  0.02973524  1
  O2-  O565  1  0.84682788  0.18895417  0.33355236  1
  O2-  O566  1  0.82335282  0.15682559  0.63657056  1
  O2-  O567  1  0.82788475  0.41589620  0.02283962  1
  O2-  O568  1  0.81677600  0.41199104  0.34310453  1
  O2-  O569  1  0.81904796  0.41022375  0.67952977  1
  O2-  O570  1  0.83617046  0.66631249  0.02546165  1
  O2-  O571  1  0.80696477  0.64893250  0.35940693  1
  O2-  O572  1  0.82545079  0.66411160  0.69081911  1
  O2-  O573  1  0.82385986  0.90746269  0.02379006  1
  O2-  O574  1  0.81421339  0.89113065  0.36033979  1
  O2-  O575  1  0.83098998  0.90884620  0.68737723  1
