# generated using pymatgen
data_H2O
_symmetry_space_group_name_H-M   'P 1'
_cell_length_a   17.98531642
_cell_length_b   17.98736522
_cell_length_c   21.99494429
_cell_angle_alpha   90.00469896
_cell_angle_beta   89.98891091
_cell_angle_gamma   119.98848877
_symmetry_Int_Tables_number   1
_chemical_formula_structural   H2O
_chemical_formula_sum   'H384 O192'
_cell_volume   6162.96199423
_cell_formula_units_Z   192
loop_
 _symmetry_equiv_pos_site_id
 _symmetry_equiv_pos_as_xyz
  1  'x, y, z'
loop_
 _atom_type_symbol
 _atom_type_oxidation_number
  H+  1.0
  O2-  -2.0
loop_
 _atom_site_type_symbol
 _atom_site_label
 _atom_site_symmetry_multiplicity
 _atom_site_fract_x
 _atom_site_fract_y
 _atom_site_fract_z
 _atom_site_occupancy
  H+  H0  1  0.12417154  0.90351307  0.81733745  1
  H+  H1  1  0.36015322  0.71745372  0.48897329  1
  H+  H2  1  0.14518724  0.27747657  0.32176937  1
  H+  H3  1  0.13379459  0.61225230  0.49826227  1
  H+  H4  1  0.11040824  0.72550467  0.49473606  1
  H+  H5  1  0.65570893  0.14030105  0.19140383  1
  H+  H6  1  0.07615595  0.66748083  0.06757630  1
  H+  H7  1  0.37488757  0.38399071  0.15783313  1
  H+  H8  1  0.11170431  0.13492582  0.34226069  1
  H+  H9  1  0.86275008  0.64750869  0.82603715  1
  H+  H10  1  0.36289337  0.72720068  0.99552899  1
  H+  H11  1  0.51231095  0.62678017  1.00044633  1
  H+  H12  1  0.85089040  0.08841060  -0.00993606  1
  H+  H13  1  0.76932976  0.63472793  0.49858748  1
  H+  H14  1  0.85161854  0.71893447  0.00753523  1
  H+  H15  1  0.13496846  0.28266032  0.84415854  1
  H+  H16  1  0.71697285  0.11979354  0.58242248  1
  H+  H17  1  0.59413402  0.22761911  0.19814037  1
  H+  H18  1  0.10807401  0.63466417  0.67416546  1
  H+  H19  1  0.47339299  0.36618838  0.34820911  1
  H+  H20  1  0.78660226  0.39814890  0.35228847  1
  H+  H21  1  0.67410695  0.37512518  0.63133983  1
  H+  H22  1  0.63747124  0.23540311  0.81147922  1
  H+  H23  1  0.57799873  0.72673729  0.81435689  1
  H+  H24  1  0.07546758  0.16107432  0.06871876  1
  H+  H25  1  0.09649946  0.63933480  0.15312841  1
  H+  H26  1  0.77307924  0.63534078  0.67298871  1
  H+  H27  1  0.37320151  -0.03242975  0.81610638  1
  H+  H28  1  0.72000071  0.34948080  0.20548481  1
  H+  H29  1  0.62098968  0.62669316  0.15265142  1
  H+  H30  1  0.38399413  0.54079052  0.65505362  1
  H+  H31  1  0.23972505  0.12569753  0.33311083  1
  H+  H32  1  0.27565552  0.12730559  0.48894077  1
  H+  H33  1  0.87841199  0.23927772  0.81873649  1
  H+  H34  1  0.12907981  0.52482132  0.16701064  1
  H+  H35  1  0.91460075  0.82671248  0.59963663  1
  H+  H36  1  0.43701544  0.12068301  0.19548216  1
  H+  H37  1  0.37495815  0.84714782  0.00293320  1
  H+  H38  1  0.12056885  0.15513712  0.82525912  1
  H+  H39  1  0.37189438  0.50319793  0.17829938  1
  H+  H40  1  0.94828960  0.81977402  0.18849833  1
  H+  H41  1  0.01379418  0.63238481  0.82430323  1
  H+  H42  1  0.49658357  0.13314335  0.65420020  1
  H+  H43  1  0.59081455  0.84952024  0.15105640  1
  H+  H44  1  0.68722148  0.81335553  0.94813650  1
  H+  H45  1  0.21172576  0.61087698  0.14738448  1
  H+  H46  1  0.77594157  0.86654210  0.02345774  1
  H+  H47  1  0.37325664  0.35200924  0.49805700  1
  H+  H48  1  0.97058284  0.62431853  0.17222997  1
  H+  H49  1  0.88712733  0.02012535  0.33205780  1
  H+  H50  1  0.13931933  0.86423202  0.65823372  1
  H+  H51  1  0.14197247  0.27834029  0.50565673  1
  H+  H52  1  0.09233572  0.96198616  -0.01075679  1
  H+  H53  1  0.16639452  0.34067828  0.59842333  1
  H+  H54  1  0.75049497  0.87766387  0.49389087  1
  H+  H55  1  0.11050667  0.88319640  0.48737659  1
  H+  H56  1  0.22642872  0.86183320  0.50452159  1
  H+  H57  1  0.64876021  0.02965124  0.60873173  1
  H+  H58  1  0.38607189  0.38665566  0.65185106  1
  H+  H59  1  0.10460843  0.10581868  0.98587083  1
  H+  H60  1  0.34850816  0.11957130  0.83421447  1
  H+  H61  1  0.39794816  0.36024144  0.80769404  1
  H+  H62  1  0.62721913  0.18358981  -0.09494337  1
  H+  H63  1  0.14347957  0.61947773  0.33671441  1
  H+  H64  1  0.12058263  0.12212030  0.15949266  1
  H+  H65  1  0.78250127  0.13585905  0.16901268  1
  H+  H66  1  0.66235682  0.34329971  0.26105793  1
  H+  H67  1  0.32972862  0.87620782  0.72535351  1
  H+  H68  1  0.15884550  0.33784332  0.93640353  1
  H+  H69  1  0.27078120  0.39058681  0.49347251  1
  H+  H70  1  0.87819953  0.85421009  0.50829780  1
  H+  H71  1  0.56839025  0.64518487  0.06242246  1
  H+  H72  1  0.89877611  0.49599428  0.15688951  1
  H+  H73  1  0.02847693  0.88438760  0.66830723  1
  H+  H74  1  0.53354309  0.62664763  0.16468055  1
  H+  H75  1  0.69577333  -0.00377490  0.87284266  1
  H+  H76  1  0.38177406  0.01831535  0.33241107  1
  H+  H77  1  0.52292804  0.63462215  0.49124964  1
  H+  H78  1  0.03515667  0.39843181  0.67573759  1
  H+  H79  1  0.82083464  0.69860352  0.17007717  1
  H+  H80  1  0.10589044  0.47121931  0.49385167  1
  H+  H81  1  0.65131481  0.77705437  0.65517526  1
  H+  H82  1  0.21740609  0.61602338  0.83612362  1
  H+  H83  1  0.04602769  0.14704741  0.67283536  1
  H+  H84  1  0.37606569  0.72899624  0.33256389  1
  H+  H85  1  0.87966441  0.61037131  0.32796269  1
  H+  H86  1  0.98455357  0.11063457  0.32762448  1
  H+  H87  1  0.36513194  0.47688449  0.84082495  1
  H+  H88  1  0.35023358  0.63115738  0.82160264  1
  H+  H89  1  0.63114131  0.39710019  0.17129749  1
  H+  H90  1  0.38599273  0.61188460  0.49749336  1
  H+  H91  1  0.22563714  0.36959893  0.85021967  1
  H+  H92  1  0.02448349  0.64672667  0.34173048  1
  H+  H93  1  0.14526666  0.35283348  0.15386854  1
  H+  H94  1  0.22596532  0.12087020  0.83311296  1
  H+  H95  1  0.66145809  0.29751785  0.96993443  1
  H+  H96  1  0.40837721  0.33169712  0.55716225  1
  H+  H97  1  0.21299524  0.11309763  0.64329005  1
  H+  H98  1  1.00894447  0.14552292  1.01635747  1
  H+  H99  1  0.88068309  0.85501687  0.99412063  1
  H+  H100  1  0.47601919  0.38855314  0.65255037  1
  H+  H101  1  0.13257342  0.86459801  0.32003308  1
  H+  H102  1  0.36652325  0.22982964  0.34525709  1
  H+  H103  1  0.11257511  0.49076472  -0.00286934  1
  H+  H104  1  0.62196516  0.48027788  1.00738787  1
  H+  H105  1  0.13383250  0.36331642  0.50832557  1
  H+  H106  1  0.63048196  0.74055996  0.35021364  1
  H+  H107  1  0.18762339  0.12709803  0.27506836  1
  H+  H108  1  0.41048274  0.13770717  0.65221730  1
  H+  H109  1  0.22680899  0.61440104  0.32705945  1
  H+  H110  1  -0.02541231  0.61205078  0.50681297  1
  H+  H111  1  0.79283042  0.39677683  0.67107205  1
  H+  H112  1  0.88499215  0.35962725  0.33378691  1
  H+  H113  1  0.64324285  0.85857784  0.66177827  1
  H+  H114  1  0.01699644  0.63471737  0.67473701  1
  H+  H115  1  0.89820367  0.37056966  0.67038992  1
  H+  H116  1  0.37180149  1.01725900  0.01504514  1
  H+  H117  1  0.88229499  0.76749933  0.50524002  1
  H+  H118  1  0.55344884  0.33465907  0.67903055  1
  H+  H119  1  0.90286089  1.02044888  0.17830312  1
  H+  H120  1  0.47364208  0.86456359  0.99560778  1
  H+  H121  1  0.88625297  0.53245238  0.83844885  1
  H+  H122  1  0.10578713  0.62765977  0.82353276  1
  H+  H123  1  0.75788571  0.12888289  0.84184895  1
  H+  H124  1  0.86367049  0.39395797  0.82757798  1
  H+  H125  1  0.61172871  0.63219231  0.66675796  1
  H+  H126  1  0.46296812  0.91318500  0.18024421  1
  H+  H127  1  0.86232316  0.72563073  0.67196962  1
  H+  H128  1  0.60266605  0.21015578  0.33668583  1
  H+  H129  1  0.61942337  0.49064578  0.81854769  1
  H+  H130  1  0.77291432  0.13013779  0.66323820  1
  H+  H131  1  0.33713021  0.42486048  0.06515848  1
  H+  H132  1  0.65200724  0.38032587  0.99109618  1
  H+  H133  1  0.37896567  0.88263227  0.82310885  1
  H+  H134  1  0.59659382  0.95426430  0.40431603  1
  H+  H135  1  0.78843947  0.39725772  0.00700113  1
  H+  H136  1  0.28102118  0.37550867  0.14751352  1
  H+  H137  1  0.91202829  0.58634668  0.26817937  1
  H+  H138  1  0.52195588  0.18273989  -0.04836846  1
  H+  H139  1  0.65379238  0.03736625  0.99770375  1
  H+  H140  1  0.63701923  0.10662579  0.32451906  1
  H+  H141  1  0.19081810  0.10579422  0.98686135  1
  H+  H142  1  0.63610347  0.61980341  0.50943060  1
  H+  H143  1  0.43704437  0.34256670  0.24122656  1
  H+  H144  1  0.60456368  0.65209223  0.82235430  1
  H+  H145  1  0.10481336  0.97976286  0.14099791  1
  H+  H146  1  0.10030199  0.73259459  0.16339013  1
  H+  H147  1  0.62601549  0.77718893  0.48966608  1
  H+  H148  1  0.81016912  0.21199252  0.51439636  1
  H+  H149  1  0.63482449  0.53080202  0.50666501  1
  H+  H150  1  0.46399176  0.61029117  0.82982160  1
  H+  H151  1  0.72000074  0.57113647  0.32183640  1
  H+  H152  1  0.39275236  0.67027309  0.66779840  1
  H+  H153  1  0.15821874  0.08952594  0.88884527  1
  H+  H154  1  0.51426790  0.12139347  0.33421138  1
  H+  H155  1  0.12732440  0.28111171  0.99819659  1
  H+  H156  1  0.38175007  0.52400506  0.98656416  1
  H+  H157  1  0.88692546  0.85648519  0.66062714  1
  H+  H158  1  0.67281480  0.76844941  0.16240317  1
  H+  H159  1  0.63950448  0.51945090  0.65396266  1
  H+  H160  1  0.47384817  0.87002501  0.33419460  1
  H+  H161  1  0.38961970  0.36855828  0.33335024  1
  H+  H162  1  0.44248985  0.18466226  0.98239027  1
  H+  H163  1  0.66055540  0.35024435  0.37582647  1
  H+  H164  1  1.01875356  0.38933200  0.99997524  1
  H+  H165  1  0.12748512  0.76351712  0.98747673  1
  H+  H166  1  0.48755712  0.80811695  0.69432133  1
  H+  H167  1  0.39346418  0.02962599  1.04546402  1
  H+  H168  1  0.39491201  0.25146223  1.04091312  1
  H+  H169  1  0.23347356  0.87120320  0.16645441  1
  H+  H170  1  0.92629535  0.00288474  0.65181612  1
  H+  H171  1  0.37854880  0.78901867  0.57280877  1
  H+  H172  1  0.67615428  0.42510868  0.32794641  1
  H+  H173  1  0.18367111  0.04336573  0.21892127  1
  H+  H174  1  0.39428703  0.37061609  1.02391000  1
  H+  H175  1  0.88074008  0.88858032  0.16667289  1
  H+  H176  1  0.74459580  0.39084765  0.83477436  1
  H+  H177  1  0.87747733  0.47895791  0.34942867  1
  H+  H178  1  0.64792881  0.39354122  0.83349801  1
  H+  H179  1  0.12282699  0.14334845  0.48601433  1
  H+  H180  1  0.12457328  0.60917269  0.99556655  1
  H+  H181  1  0.27162841  0.63902690  -0.00477742  1
  H+  H182  1  0.35604473  0.88178988  0.34387536  1
  H+  H183  1  0.40149622  0.27398679  0.80313152  1
  H+  H184  1  0.02308333  0.36910909  0.17561363  1
  H+  H185  1  0.63087664  0.86520783  0.51281760  1
  H+  H186  1  0.71866883  0.61040161  0.98740714  1
  H+  H187  1  0.84214100  0.47033072  0.51772460  1
  H+  H188  1  0.09703526  0.35790018  0.34397845  1
  H+  H189  1  0.36277828  0.47723803  0.49266851  1
  H+  H190  1  0.41537511  0.27745096  0.18694019  1
  H+  H191  1  0.85959845  0.13648452  0.34089608  1
  H+  H192  1  0.01844525  0.63535232  0.00698238  1
  H+  H193  1  0.61974466  0.35474384  0.46320196  1
  H+  H194  1  0.27150790  0.39104888  0.00938746  1
  H+  H195  1  0.89996107  0.35648299  0.18149019  1
  H+  H196  1  0.32426059  0.15121493  0.02729112  1
  H+  H197  1  0.13533955  0.02108246  0.49226616  1
  H+  H198  1  0.25533351  0.84816490  0.01262142  1
  H+  H199  1  0.35361300  0.62987372  0.14834356  1
  H+  H200  1  0.97948037  0.37332177  0.83591459  1
  H+  H201  1  0.96481133  0.34010153  0.33554484  1
  H+  H202  1  0.63221732  0.88984506  0.14352244  1
  H+  H203  1  0.62619436  0.60353919  0.98809277  1
  H+  H204  1  0.76844768  0.90042151  0.35577868  1
  H+  H205  1  0.11221748  0.73673696  0.34030270  1
  H+  H206  1  0.88628313  0.61380627  0.50662010  1
  H+  H207  1  0.59787142  1.02488039  0.15333645  1
  H+  H208  1  0.11400535  0.39463208  0.82807661  1
  H+  H209  1  0.26504779  0.39779411  0.66395231  1
  H+  H210  1  0.13062522  0.52462944  0.83648221  1
  H+  H211  1  0.53108605  0.13559067  0.49223584  1
  H+  H212  1  0.87735057  0.48832515  0.67727497  1
  H+  H213  1  0.53558846  0.39485109  0.80628151  1
  H+  H214  1  0.07910639  0.67001720  0.43406828  1
  H+  H215  1  0.55741245  0.15987774  0.14480734  1
  H+  H216  1  0.10500666  0.97885657  0.33573061  1
  H+  H217  1  0.63700193  0.75130088  0.00256855  1
  H+  H218  1  0.64930469  0.89616352  0.86362370  1
  H+  H219  1  0.72980446  0.12171334  0.49058950  1
  H+  H220  1  0.88932994  0.52749110  0.98942823  1
  H+  H221  1  0.81204286  0.65588672  0.06537766  1
  H+  H222  1  0.36203347  0.24701100  0.65111752  1
  H+  H223  1  0.52715581  0.88977785  0.54689067  1
  H+  H224  1  0.72093983  0.62365277  0.83421019  1
  H+  H225  1  0.41401588  0.62305979  0.32965089  1
  H+  H226  1  0.87688062  0.86951077  0.33676590  1
  H+  H227  1  0.77990503  0.88894425  0.67257855  1
  H+  H228  1  0.63346832  0.14067741  0.65482821  1
  H+  H229  1  0.48788416  0.37701295  1.02881981  1
  H+  H230  1  0.15627037  0.82739480  0.26020317  1
  H+  H231  1  0.26726898  0.88251435  0.34094411  1
  H+  H232  1  0.82300392  0.72947960  0.34465084  1
  H+  H233  1  0.36174906  0.21832982  0.49258478  1
  H+  H234  1  -0.03720176  0.86350224  0.33283203  1
  H+  H235  1  0.03321562  0.12465107  0.16851917  1
  H+  H236  1  0.12885091  0.85253038  0.98604437  1
  H+  H237  1  0.89816710  0.12369433  0.83380926  1
  H+  H238  1  0.03496544  0.14636633  0.49002094  1
  H+  H239  1  0.12443779  0.40008305  0.67224934  1
  H+  H240  1  0.67816456  0.53864998  0.16388052  1
  H+  H241  1  0.82671460  0.92991939  0.54013997  1
  H+  H242  1  0.85327679  0.22065336  0.34291191  1
  H+  H243  1  0.13000590  0.77136624  0.65836403  1
  H+  H244  1  0.89255944  0.27885619  0.66702251  1
  H+  H245  1  0.87436145  -0.01165600  0.82764151  1
  H+  H246  1  0.54675798  0.90870776  0.69549186  1
  H+  H247  1  0.13802146  0.01515586  0.64716900  1
  H+  H248  1  0.37653384  0.48213409  0.34403324  1
  H+  H249  1  0.96703373  0.85030827  0.98429434  1
  H+  H250  1  0.38715839  0.10926215  0.33162737  1
  H+  H251  1  0.51553101  0.82103748  0.84025068  1
  H+  H252  1  0.87456065  0.21879517  0.17278311  1
  H+  H253  1  0.64211442  0.15680545  -0.02998587  1
  H+  H254  1  0.41016407  0.58558982  0.89252338  1
  H+  H255  1  0.63368669  0.87843858  0.34639722  1
  H+  H256  1  0.86488681  0.13925776  0.66595545  1
  H+  H257  1  0.26400273  0.85244584  0.66884507  1
  H+  H258  1  0.23742177  0.87088016  0.83380397  1
  H+  H259  1  0.11466204  0.39321432  0.00087168  1
  H+  H260  1  0.13939364  0.28620834  0.66192867  1
  H+  H261  1  0.89752126  0.27549002  0.99804563  1
  H+  H262  1  0.88597785  0.10462216  0.18192649  1
  H+  H263  1  0.89296827  0.36339730  0.99361206  1
  H+  H264  1  0.67926416  0.09133821  0.24004474  1
  H+  H265  1  0.36464153  0.87671455  0.18722515  1
  H+  H266  1  0.35084729  0.40152485  0.88414889  1
  H+  H267  1  0.14649596  0.53749558  0.66008351  1
  H+  H268  1  0.41700368  0.84994737  0.27302591  1
  H+  H269  1  0.88033208  0.61182434  -0.00678453  1
  H+  H270  1  0.47994271  0.62140699  0.65255847  1
  H+  H271  1  0.11426008  0.84632024  0.17865202  1
  H+  H272  1  0.27138637  0.62998176  0.48305647  1
  H+  H273  1  0.39282181  0.10448236  0.50283719  1
  H+  H274  1  0.62805968  0.91220593  -0.03200840  1
  H+  H275  1  0.78711935  0.14785551  0.01743497  1
  H+  H276  1  0.88823247  0.61789355  0.66161107  1
  H+  H277  1  0.25067946  0.10519142  0.17088600  1
  H+  H278  1  0.11370318  -0.01434469  0.81304353  1
  H+  H279  1  1.02969911  0.15091587  0.83102739  1
  H+  H280  1  0.41792061  0.59087761  0.55950593  1
  H+  H281  1  0.38249845  0.61381055  -0.01679443  1
  H+  H282  1  0.72870264  0.10942041  0.32997232  1
  H+  H283  1  0.85180677  0.95996206  0.00976507  1
  H+  H284  1  0.37810285  0.84595625  0.51686727  1
  H+  H285  1  0.61309490  0.97954436  0.33691480  1
  H+  H286  1  1.01636318  0.38263453  0.50059994  1
  H+  H287  1  0.89718980  0.04690868  0.49652096  1
  H+  H288  1  0.07358043  0.65705301  0.75599742  1
  H+  H289  1  0.76109566  0.38668691  0.48840566  1
  H+  H290  1  0.57871104  0.66528161  0.72272251  1
  H+  H291  1  0.86632195  0.86333123  0.84286091  1
  H+  H292  1  0.08930654  0.18986938  0.73665364  1
  H+  H293  1  0.16371643  0.58503539  0.55757626  1
  H+  H294  1  0.23035164  0.36698005  0.32510207  1
  H+  H295  1  0.73937082  0.36862566  0.58428655  1
  H+  H296  1  0.51881755  0.17062175  0.06995066  1
  H+  H297  1  0.00520444  0.94220568  0.12967069  1
  H+  H298  1  0.62221281  0.51063916  0.31500958  1
  H+  H299  1  0.06442141  0.38021748  0.40606781  1
  H+  H300  1  0.79642631  0.00910204  0.94546601  1
  H+  H301  1  0.14739722  0.26526421  0.15054507  1
  H+  H302  1  0.43816928  0.58285024  0.27464121  1
  H+  H303  1  0.36435759  0.30141246  0.91893891  1
  H+  H304  1  0.34483911  0.66565763  0.38909243  1
  H+  H305  1  0.32339295  0.78297251  0.66681244  1
  H+  H306  1  0.41258829  0.32757548  0.91645683  1
  H+  H307  1  0.89557893  0.82478234  0.90562286  1
  H+  H308  1  0.22452987  0.63642808  0.64847209  1
  H+  H309  1  0.53714937  0.14265097  0.06051867  1
  H+  H310  1  0.41731946  0.82848289  0.90272403  1
  H+  H311  1  0.83331741  0.93090651  0.41228045  1
  H+  H312  1  0.69625919  0.09516737  0.93870056  1
  H+  H313  1  0.33610054  0.16621707  0.40347575  1
  H+  H314  1  0.32473515  0.12387412  0.76708438  1
  H+  H315  1  0.91946034  0.58953371  0.60118121  1
  H+  H316  1  0.36616839  0.96583192  0.49688620  1
  H+  H317  1  0.37228911  0.16495934  0.11579818  1
  H+  H318  1  0.86787981  0.76783313  0.83738892  1
  H+  H319  1  0.55649776  0.95193623  0.10401395  1
  H+  H320  1  0.08910553  0.42476277  0.76566962  1
  H+  H321  1  0.38063187  0.76553060  0.84461610  1
  H+  H322  1  0.94478836  0.07872668  0.55945945  1
  H+  H323  1  0.72455168  0.67869125  0.36300940  1
  H+  H324  1  0.87106720  0.60421800  0.17384581  1
  H+  H325  1  0.65933491  0.58792432  0.89218050  1
  H+  H326  1  0.77913014  0.91692405  0.83557797  1
  H+  H327  1  0.62582160  0.26749979  0.46174886  1
  H+  H328  1  0.08021746  0.16828800  0.39874223  1
  H+  H329  1  0.83283597  0.67456468  0.76480920  1
  H+  H330  1  0.33088060  0.90522435  0.43861472  1
  H+  H331  1  0.60786085  0.96811612  0.51485020  1
  H+  H332  1  0.73251922  0.78858529  0.21714074  1
  H+  H333  1  0.54758135  0.40317611  0.16495790  1
  H+  H334  1  0.16478354  0.83412177  0.56247310  1
  H+  H335  1  0.96866132  0.48075236  0.12791539  1
  H+  H336  1  0.64615182  0.23392834  0.65667369  1
  H+  H337  1  0.91022434  0.08344686  0.89527243  1
  H+  H338  1  0.87638550  0.36266556  0.52012501  1
  H+  H339  1  0.81661882  0.66439819  0.43597580  1
  H+  H340  1  0.91932740  0.33683576  0.89470769  1
  H+  H341  1  0.32193434  0.20331050  0.71148674  1
  H+  H342  1  0.42707926  0.08254072  0.56290833  1
  H+  H343  1  0.60928993  0.42755457  0.07021542  1
  H+  H344  1  0.84308395  0.17281399  0.76160699  1
  H+  H345  1  0.31892868  0.01247351  0.89406145  1
  H+  H346  1  0.02051150  0.88169428  0.48899845  1
  H+  H347  1  0.33233805  0.54589422  0.21945491  1
  H+  H348  1  0.59965356  0.41038556  0.72536243  1
  H+  H349  1  0.55590585  0.64439386  0.34147953  1
  H+  H350  1  0.16434184  0.07685367  0.55281942  1
  H+  H351  1  0.91875831  0.07416799  0.25847097  1
  H+  H352  1  0.91423614  0.32306020  0.24694701  1
  H+  H353  1  0.32999268  0.65984370  0.08764213  1
  H+  H354  1  0.33559914  0.41909437  0.40076316  1
  H+  H355  1  0.59024097  0.14611438  0.43679885  1
  H+  H356  1  0.87502145  0.92756550  0.10321770  1
  H+  H357  1  0.66364051  0.11336521  0.83871685  1
  H+  H358  1  0.68463607  0.36840645  0.90008901  1
  H+  H359  1  0.89284630  0.81056501  0.24695725  1
  H+  H360  1  0.06493632  0.91081078  0.05153052  1
  H+  H361  1  0.61924216  0.17340045  0.75667024  1
  H+  H362  1  0.56831420  0.84056039  0.78024659  1
  H+  H363  1  0.66804242  0.58356285  0.59808504  1
  H+  H364  1  0.17702536  0.84505732  0.89294459  1
  H+  H365  1  0.32531017  0.42794868  0.72273222  1
  H+  H366  1  0.30352427  0.87410180  0.07715967  1
  H+  H367  1  0.83964981  0.91983240  0.73201708  1
  H+  H368  1  0.33412783  0.67720748  0.76541626  1
  H+  H369  1  0.91566164  0.33396819  0.57248457  1
  H+  H370  1  0.85982829  0.42959718  0.06207417  1
  H+  H371  1  0.91721189  0.59296374  0.89752648  1
  H+  H372  1  0.61994051  0.89846775  0.03741472  1
  H+  H373  1  0.07340850  0.40604378  0.11377930  1
  H+  H374  1  0.59138430  0.66599272  0.43572822  1
  H+  H375  1  0.66668924  0.85263510  0.28629919  1
  H+  H376  1  0.84931585  0.16820283  0.07470781  1
  H+  H377  1  1.02151428  0.04188338  0.62485033  1
  H+  H378  1  0.31758112  0.96785130  0.15662503  1
  H+  H379  1  0.09025549  0.92142301  0.72691598  1
  H+  H380  1  0.40877754  0.10049262  0.90392063  1
  H+  H381  1  0.07678374  0.91760518  0.39384049  1
  H+  H382  1  0.83804316  0.42641233  0.76631056  1
  H+  H383  1  0.15190347  0.58170768  0.93177739  1
  O2-  O384  1  0.08662182  0.14783369  0.14443166  1
  O2-  O385  1  0.09509830  0.17708005  0.47263319  1
  O2-  O386  1  0.08967141  0.18745509  0.81592992  1
  O2-  O387  1  0.08199225  0.40131003  0.15711658  1
  O2-  O388  1  0.07659404  0.40841937  0.48549642  1
  O2-  O389  1  0.08346942  0.42397022  0.81153337  1
  O2-  O390  1  0.06462707  0.67039106  0.14327491  1
  O2-  O391  1  0.07831736  0.66484512  0.47996824  1
  O2-  O392  1  0.07336745  0.65605093  0.80553737  1
  O2-  O393  1  0.05248847  0.92897321  0.12534216  1
  O2-  O394  1  0.07914760  0.91203452  0.47098883  1
  O2-  O395  1  0.08884979  0.92608317  0.79836431  1
  O2-  O396  1  0.35978986  0.15896364  0.16152655  1
  O2-  O397  1  0.33741076  0.15770804  0.47663134  1
  O2-  O398  1  0.33037896  0.15256631  0.80595786  1
  O2-  O399  1  0.34553403  0.41437868  0.14230623  1
  O2-  O400  1  0.33041788  0.41725422  0.47671560  1
  O2-  O401  1  0.33813350  0.41187203  0.84281283  1
  O2-  O402  1  0.32028454  0.65493721  0.13206163  1
  O2-  O403  1  0.33263813  0.65923471  0.46978269  1
  O2-  O404  1  0.32125930  0.66412450  0.80928896  1
  O2-  O405  1  0.29599627  0.90681462  0.14865934  1
  O2-  O406  1  0.33183056  0.90410873  0.48425532  1
  O2-  O407  1  0.34783742  0.90805330  0.80178036  1
  O2-  O408  1  0.56065646  0.16499303  0.18912941  1
  O2-  O409  1  0.59105877  0.17067009  0.47701155  1
  O2-  O410  1  0.62366186  0.17684097  0.80214954  1
  O2-  O411  1  0.60791069  0.42982886  0.14970700  1
  O2-  O412  1  0.57604306  0.43236393  0.46262836  1
  O2-  O413  1  0.60072195  0.43041053  0.80411937  1
  O2-  O414  1  0.58483969  0.65107948  0.13916308  1
  O2-  O415  1  0.58573046  0.66585631  0.48111567  1
  O2-  O416  1  0.56519413  0.66822019  0.80217685  1
  O2-  O417  1  0.54491021  0.98951260  0.12892290  1
  O2-  O418  1  0.59013045  0.92625376  0.55067617  1
  O2-  O419  1  0.56848161  0.82294919  0.82333887  1
  O2-  O420  1  0.84383404  0.15886777  0.15531538  1
  O2-  O421  1  0.77095920  0.15148829  0.52452817  1
  O2-  O422  1  0.85125207  0.17745353  0.80677634  1
  O2-  O423  1  0.90644949  0.45141225  0.13405386  1
  O2-  O424  1  0.80400754  0.40707947  0.52193917  1
  O2-  O425  1  0.83432792  0.42575451  0.81282892  1
  O2-  O426  1  0.79301401  0.64192195  0.14789905  1
  O2-  O427  1  0.82822569  0.66330575  0.48001361  1
  O2-  O428  1  0.83160432  0.67690511  0.81095802  1
  O2-  O429  1  0.90605015  0.94288875  0.14313811  1
  O2-  O430  1  0.81814518  0.90830001  0.49853561  1
  O2-  O431  1  0.83364727  0.92571481  0.81840398  1
  O2-  O432  1  0.18765319  0.07428280  0.18139680  1
  O2-  O433  1  0.16777582  0.08155149  0.50699960  1
  O2-  O434  1  0.16426195  0.09607528  0.84406619  1
  O2-  O435  1  0.17968091  0.32659296  0.14011074  1
  O2-  O436  1  0.16893628  0.33747742  0.52331019  1
  O2-  O437  1  0.16383125  0.34326202  0.86142208  1
  O2-  O438  1  0.14780241  0.58223656  0.15052365  1
  O2-  O439  1  0.16437026  0.58166611  0.51266551  1
  O2-  O440  1  0.15697707  0.58559729  0.85208719  1
  O2-  O441  1  0.14554449  0.81782915  0.19136709  1
  O2-  O442  1  0.16433040  0.83414653  0.51707002  1
  O2-  O443  1  0.18392357  0.86531821  0.85025535  1
  O2-  O444  1  0.37650598  0.09037697  0.18066806  1
  O2-  O445  1  0.42315530  0.07436024  0.51775731  1
  O2-  O446  1  0.36972364  0.05568158  0.87256890  1
  O2-  O447  1  0.43985808  0.33907596  0.19598693  1
  O2-  O448  1  0.39808617  0.31723993  0.51370805  1
  O2-  O449  1  0.43254568  0.33555342  0.79224214  1
  O2-  O450  1  0.38580844  0.55910601  0.19902214  1
  O2-  O451  1  0.41842752  0.58436107  0.51461040  1
  O2-  O452  1  0.40414324  0.57978024  0.84688832  1
  O2-  O453  1  0.41212909  0.86824916  0.20195537  1
  O2-  O454  1  0.40407578  0.81173128  0.53253552  1
  O2-  O455  1  0.42327133  0.82506129  0.85746159  1
  O2-  O456  1  0.68303690  0.10453448  0.19423126  1
  O2-  O457  1  0.63744482  0.03117477  0.45800742  1
  O2-  O458  1  0.69975073  0.09541237  0.86169500  1
  O2-  O459  1  0.66144313  0.33477473  0.21549930  1
  O2-  O460  1  0.65574670  0.33110374  0.44933234  1
  O2-  O461  1  0.68229259  0.36535101  0.85241037  1
  O2-  O462  1  0.70432776  0.60206464  0.17189354  1
  O2-  O463  1  0.66689969  0.58899838  0.52485801  1
  O2-  O464  1  0.65942496  0.59199921  0.84659551  1
  O2-  O465  1  0.71897574  0.81695322  0.18495354  1
  O2-  O466  1  0.65750009  0.84065281  0.48550951  1
  O2-  O467  1  0.69824309  0.94475304  0.88671804  1
  O2-  O468  1  0.91927505  0.07699595  0.19935578  1
  O2-  O469  1  0.93841099  0.09828818  0.51852758  1
  O2-  O470  1  0.92470254  0.09055144  0.85126352  1
  O2-  O471  1  0.91991274  0.31969310  0.20007461  1
  O2-  O472  1  0.90877283  0.33225253  0.52764644  1
  O2-  O473  1  0.91784666  0.34150070  0.84982062  1
  O2-  O474  1  0.91015014  0.58519853  0.18972006  1
  O2-  O475  1  0.91520064  0.58420977  0.52490950  1
  O2-  O476  1  0.91781509  0.59385191  0.85163171  1
  O2-  O477  1  0.88924687  0.79907345  0.20186001  1
  O2-  O478  1  0.91340914  0.82813034  0.52074349  1
  O2-  O479  1  0.89229185  0.82739356  0.85805879  1
  O2-  O480  1  0.17886434  0.09818185  0.31416472  1
  O2-  O481  1  0.15603748  0.07147714  0.62685690  1
  O2-  O482  1  0.13402391  0.07580162  0.96837447  1
  O2-  O483  1  0.17192000  0.33706164  0.30731533  1
  O2-  O484  1  0.16960461  0.34690463  0.64415564  1
  O2-  O485  1  0.15749544  0.34088652  0.98243902  1
  O2-  O486  1  0.16404557  0.58058472  0.32358980  1
  O2-  O487  1  0.16223685  0.59453139  0.64205737  1
  O2-  O488  1  0.15184684  0.57628079  0.97714733  1
  O2-  O489  1  0.16288991  0.83414398  0.30747407  1
  O2-  O490  1  0.16574607  0.83006841  0.64212897  1
  O2-  O491  1  0.15979331  0.82333112  0.97137437  1
  O2-  O492  1  0.41548770  0.07796445  0.31626224  1
  O2-  O493  1  0.43618745  0.10308261  0.64019147  1
  O2-  O494  1  0.46813547  0.18298243  0.94281220  1
  O2-  O495  1  0.42300884  0.33897597  0.32131773  1
  O2-  O496  1  0.41699639  0.35663702  0.63732823  1
  O2-  O497  1  0.42632633  0.34351893  1.04030742  1
  O2-  O498  1  0.44560005  0.59119604  0.31914920  1
  O2-  O499  1  0.41886043  0.60093727  0.64011243  1
  O2-  O500  1  0.41338928  0.58313442  0.96866091  1
  O2-  O501  1  0.41433091  0.83703455  0.31828632  1
  O2-  O502  1  0.32693027  0.72813875  0.64783491  1
  O2-  O503  1  0.41526242  0.83168751  0.97908679  1
  O2-  O504  1  0.66996393  0.07875762  0.30945784  1
  O2-  O505  1  0.68375652  0.09011304  0.62179193  1
  O2-  O506  1  0.68932478  0.09797420  0.98388355  1
  O2-  O507  1  0.67643716  0.36980947  0.33222575  1
  O2-  O508  1  0.70983418  0.34872769  0.62503391  1
  O2-  O509  1  0.68900403  0.36157203  0.96798111  1
  O2-  O510  1  0.67697752  0.51570924  0.30372957  1
  O2-  O511  1  0.66851034  0.58079117  0.64425378  1
  O2-  O512  1  0.65929580  0.57729663  0.97040034  1
  O2-  O513  1  0.66828492  0.85041640  0.33065304  1
  O2-  O514  1  0.68309088  0.83979956  0.64753678  1
  O2-  O515  1  0.67870852  0.81325348  0.99185450  1
  O2-  O516  1  0.92179577  0.07750464  0.31009669  1
  O2-  O517  1  0.97321157  0.05244377  0.62922130  1
  O2-  O518  1  0.85283708  0.04233085  0.96535725  1
  O2-  O519  1  0.90639429  0.32231108  0.31573165  1
  O2-  O520  1  0.92752277  0.33982533  0.65470046  1
  O2-  O521  1  0.92529167  0.33418373  0.97920658  1
  O2-  O522  1  0.91509957  0.58707908  0.31363523  1
  O2-  O523  1  0.92039740  0.58906779  0.64716149  1
  O2-  O524  1  0.91461326  0.58785298  0.97459399  1
  O2-  O525  1  0.90030193  0.83325813  0.32125038  1
  O2-  O526  1  0.91649347  0.82561738  0.64521512  1
  O2-  O527  1  0.90379965  0.82090570  0.97283450  1
  O2-  O528  1  0.06995336  0.16764121  0.02373139  1
  O2-  O529  1  0.07443587  0.15951967  0.35288309  1
  O2-  O530  1  0.09695295  0.19525936  0.69191474  1
  O2-  O531  1  0.08237561  0.42510768  0.01392958  1
  O2-  O532  1  0.04596691  0.35151556  0.36613196  1
  O2-  O533  1  0.09609200  0.43166381  0.68997738  1
  O2-  O534  1  0.07867503  0.66152458  0.02177982  1
  O2-  O535  1  0.08255792  0.67823316  0.35974153  1
  O2-  O536  1  0.07665366  0.66264969  0.69330687  1
  O2-  O537  1  0.06648911  0.90332910  0.00626117  1
  O2-  O538  1  0.07073145  0.91832802  0.34842276  1
  O2-  O539  1  0.08987101  0.91671615  0.68042927  1
  O2-  O540  1  0.38091776  0.18753763  0.04448019  1
  O2-  O541  1  0.33304936  0.16817021  0.35731354  1
  O2-  O542  1  0.33051725  0.18883804  0.67033039  1
  O2-  O543  1  0.33344586  0.42374778  0.01949885  1
  O2-  O544  1  0.34050105  0.42042168  0.35509026  1
  O2-  O545  1  0.32804457  0.43214014  0.67856245  1
  O2-  O546  1  0.33270530  0.66429669  0.00621639  1
  O2-  O547  1  0.35318056  0.66744436  0.34428484  1
  O2-  O548  1  0.38496811  0.71630656  0.68944139  1
  O2-  O549  1  0.30351780  0.85054233  0.03593676  1
  O2-  O550  1  0.32537528  0.91145934  0.36010313  1
  O2-  O551  1  0.31837530  0.85511131  0.68263270  1
  O2-  O552  1  0.62378042  0.19409210  -0.05169753  1
  O2-  O553  1  0.57744629  0.14953258  0.34631882  1
  O2-  O554  1  0.61279136  0.17670769  0.67560603  1
  O2-  O555  1  0.60039212  0.42164611  0.02510444  1
  O2-  O556  1  0.54669846  0.44482208  0.41272566  1
  O2-  O557  1  0.59085711  0.39695917  0.68097261  1
  O2-  O558  1  0.57194825  0.65023424  0.01712787  1
  O2-  O559  1  0.61439846  0.68020126  0.35956226  1
  O2-  O560  1  0.58229911  0.66493763  0.67756284  1
  O2-  O561  1  0.60335914  0.92373701  0.00445962  1
  O2-  O562  1  0.58397039  0.92604326  0.36264867  1
  O2-  O563  1  0.54641009  0.85560863  0.70486808  1
  O2-  O564  1  0.84887529  0.17135255  0.02913188  1
  O2-  O565  1  0.82372263  0.15898007  0.35605273  1
  O2-  O566  1  0.83114379  0.16242415  0.68388015  1
  O2-  O567  1  0.85052280  0.42320801  0.01700416  1
  O2-  O568  1  0.84688225  0.41932150  0.36437959  1
  O2-  O569  1  0.84851387  0.42858314  0.69446842  1
  O2-  O570  1  0.82010915  0.65762378  0.02062452  1
  O2-  O571  1  0.77668063  0.67334600  0.36073252  1
  O2-  O572  1  0.83262205  0.66598442  0.69009232  1
  O2-  O573  1  0.83921923  0.90582633  0.03085300  1
  O2-  O574  1  0.83152254  0.92959636  0.36738888  1
  O2-  O575  1  0.84174626  0.91565948  0.68742284  1
