# generated using pymatgen
data_H2O
_symmetry_space_group_name_H-M   'P 1'
_cell_length_a   17.99271279
_cell_length_b   17.99756738
_cell_length_c   22.00836170
_cell_angle_alpha   89.98271547
_cell_angle_beta   89.99493737
_cell_angle_gamma   119.99725883
_symmetry_Int_Tables_number   1
_chemical_formula_structural   H2O
_chemical_formula_sum   'H384 O192'
_cell_volume   6172.21096141
_cell_formula_units_Z   192
loop_
 _symmetry_equiv_pos_site_id
 _symmetry_equiv_pos_as_xyz
  1  'x, y, z'
loop_
 _atom_type_symbol
 _atom_type_oxidation_number
  H+  1.0
  O2-  -2.0
loop_
 _atom_site_type_symbol
 _atom_site_label
 _atom_site_symmetry_multiplicity
 _atom_site_fract_x
 _atom_site_fract_y
 _atom_site_fract_z
 _atom_site_occupancy
  H+  H0  1  0.77844878  0.64766044  0.48580128  1
  H+  H1  1  0.61967808  0.40455348  0.33541027  1
  H+  H2  1  -0.01180439  0.97404765  0.02370740  1
  H+  H3  1  0.95680893  0.10777498  0.51579719  1
  H+  H4  1  0.52595726  0.62292385  0.18926093  1
  H+  H5  1  0.09386075  0.72194118  0.81956913  1
  H+  H6  1  0.88759998  0.12227047  0.67894998  1
  H+  H7  1  0.10604658  0.21791326  0.01197511  1
  H+  H8  1  0.94352303  0.59364529  0.84518154  1
  H+  H9  1  0.11729892  0.97736267  0.49601679  1
  H+  H10  1  0.48217773  0.86297451  0.84188820  1
  H+  H11  1  0.86740923  0.89136142  0.34359418  1
  H+  H12  1  0.72819803  0.36429963  0.49872978  1
  H+  H13  1  0.86479571  0.22711294  1.00379537  1
  H+  H14  1  0.21813339  0.35097100  0.46696266  1
  H+  H15  1  0.88701745  0.60938663  0.66103102  1
  H+  H16  1  0.51677585  0.14152250  0.49368293  1
  H+  H17  1  0.63040139  0.49895893  0.65931664  1
  H+  H18  1  0.86122467  0.46519144  0.48733744  1
  H+  H19  1  0.61523782  0.71370337  0.18142159  1
  H+  H20  1  0.12624829  0.36041084  0.16978499  1
  H+  H21  1  0.52455610  0.12189412  0.33854976  1
  H+  H22  1  0.13357708  0.53263884  0.85335984  1
  H+  H23  1  0.72807768  0.85812525  0.33353655  1
  H+  H24  1  0.38093882  0.52280180  0.99699276  1
  H+  H25  1  0.90846412  0.02855126  0.36137232  1
  H+  H26  1  0.72296760  0.12540758  0.51023587  1
  H+  H27  1  0.85161922  0.95710230  0.65975466  1
  H+  H28  1  0.61477922  0.47257765  0.14913233  1
  H+  H29  1  0.38910263  0.60745519  0.19349479  1
  H+  H30  1  0.13061748  0.51758548  0.50048148  1
  H+  H31  1  0.72525598  0.08794287  0.33069751  1
  H+  H32  1  0.71148452  0.35415322  0.84178390  1
  H+  H33  1  0.71837759  0.33984442  0.99814632  1
  H+  H34  1  0.13361584  0.64962591  0.17345645  1
  H+  H35  1  0.63210443  0.52627749  -0.00468066  1
  H+  H36  1  0.54220029  0.89976200  1.00732267  1
  H+  H37  1  0.46880739  0.78035336  0.97410175  1
  H+  H38  1  0.15650803  0.75498619  0.99333172  1
  H+  H39  1  0.88162355  0.02128796  0.99443246  1
  H+  H40  1  0.10422418  0.46028672  1.00686872  1
  H+  H41  1  0.86618880  0.17220589  0.16428378  1
  H+  H42  1  0.96979177  0.83626089  0.98668420  1
  H+  H43  1  0.39826131  0.27996682  0.99697425  1
  H+  H44  1  0.14623341  0.87986386  0.14916104  1
  H+  H45  1  0.27507070  0.13733489  0.66632162  1
  H+  H46  1  0.47170702  0.61334918  0.99445700  1
  H+  H47  1  0.04198454  0.64750935  0.17333399  1
  H+  H48  1  0.87751963  0.36132515  0.83816052  1
  H+  H49  1  0.53279403  0.14433292  0.11830547  1
  H+  H50  1  0.14435542  0.28510697  0.32100481  1
  H+  H51  1  0.10173051  0.37825968  0.33583462  1
  H+  H52  1  0.24196052  0.10511991  0.31966724  1
  H+  H53  1  0.52346107  0.62753071  0.66960459  1
  H+  H54  1  0.40524905  0.28428312  0.50996154  1
  H+  H55  1  0.84510764  0.62190550  0.83061315  1
  H+  H56  1  0.34779390  0.92005287  0.06775012  1
  H+  H57  1  0.40243182  0.11405478  0.31725497  1
  H+  H58  1  0.87968804  0.35678427  -0.01052362  1
  H+  H59  1  0.60366732  0.86390570  0.33717790  1
  H+  H60  1  0.42621533  0.34566866  0.59783604  1
  H+  H61  1  0.62705347  0.12702177  0.51060045  1
  H+  H62  1  0.12693619  0.59990973  0.01123477  1
  H+  H63  1  0.10666285  0.17524080  0.84650775  1
  H+  H64  1  0.38281316  0.57881157  0.65181490  1
  H+  H65  1  0.85807362  0.61732931  0.99846444  1
  H+  H66  1  0.72798130  0.62277148  0.32586648  1
  H+  H67  1  0.85807466  0.47640715  0.67321839  1
  H+  H68  1  0.62433952  0.19289753  0.33748309  1
  H+  H69  1  0.13213932  0.59618989  0.33188885  1
  H+  H70  1  0.37288573  0.21716413  0.33979707  1
  H+  H71  1  0.73651018  0.37602151  0.65555824  1
  H+  H72  1  0.15684197  0.56971046  0.56326720  1
  H+  H73  1  0.72131087  0.85561010  0.50905438  1
  H+  H74  1  0.15875170  0.11523352  0.31892340  1
  H+  H75  1  0.36218422  0.75879840  0.66212774  1
  H+  H76  1  0.15089785  0.75737722  0.32670634  1
  H+  H77  1  0.85688115  0.31381734  0.14589523  1
  H+  H78  1  0.22856686  0.85935377  0.65643935  1
  H+  H79  1  0.47531203  0.87263456  0.16962849  1
  H+  H80  1  0.15293818  0.79530149  0.15802596  1
  H+  H81  1  0.07582555  0.66509780  0.72465597  1
  H+  H82  1  0.00679555  0.12893303  0.43099045  1
  H+  H83  1  0.51550525  0.40216622  0.00658242  1
  H+  H84  1  0.04960830  0.14202987  0.34244458  1
  H+  H85  1  0.83758035  0.91208301  0.72388478  1
  H+  H86  1  0.53806196  0.14277520  0.67622036  1
  H+  H87  1  0.14020340  0.10929128  0.65759447  1
  H+  H88  1  0.94579617  0.57405224  0.97654215  1
  H+  H89  1  0.62316589  0.77009267  0.66382046  1
  H+  H90  1  0.03038037  0.65089526  0.03544698  1
  H+  H91  1  0.78131439  0.63513502  0.14937095  1
  H+  H92  1  0.73320391  0.86332084  0.99890197  1
  H+  H93  1  0.39208477  0.36580333  0.83730882  1
  H+  H94  1  0.10396548  0.38267673  0.47987308  1
  H+  H95  1  0.86321472  0.88623392  0.50198331  1
  H+  H96  1  0.13358039  0.03162341  0.17099626  1
  H+  H97  1  0.11577515  0.72222663  0.66486186  1
  H+  H98  1  0.84680452  0.46262044  0.00161415  1
  H+  H99  1  0.05667826  0.38391722  0.09198100  1
  H+  H100  1  0.42392693  0.01876817  0.16802420  1
  H+  H101  1  0.25631889  0.62994257  0.84341121  1
  H+  H102  1  1.01480773  0.37304161  0.99864011  1
  H+  H103  1  0.52397312  0.63301501  0.48881028  1
  H+  H104  1  1.07171859  0.41406291  0.42437566  1
  H+  H105  1  0.00917902  0.13840661  0.01306001  1
  H+  H106  1  0.60601753  0.46847300  0.83152206  1
  H+  H107  1  0.61089457  0.13227142  0.83532172  1
  H+  H108  1  -0.02496196  0.60705614  0.65843387  1
  H+  H109  1  0.63503839  0.08253859  0.33518659  1
  H+  H110  1  0.87170909  0.52784086  0.32466109  1
  H+  H111  1  0.63270653  0.30668410  0.31997074  1
  H+  H112  1  0.86979685  0.88875793  0.16287543  1
  H+  H113  1  0.08213246  0.37983488  0.68391766  1
  H+  H114  1  0.87301123  -0.01814782  0.81802905  1
  H+  H115  1  0.60834941  0.95414398  0.33675725  1
  H+  H116  1  0.36364476  0.22820160  0.66389253  1
  H+  H117  1  0.66591388  0.58616004  0.09716926  1
  H+  H118  1  0.72609280  0.84974199  0.17475906  1
  H+  H119  1  0.25862666  0.33632277  0.59935668  1
  H+  H120  1  0.07089166  0.43259525  0.77373391  1
  H+  H121  1  0.14314455  0.84772758  0.84122845  1
  H+  H122  1  0.61583555  0.88977516  0.67571246  1
  H+  H123  1  0.87781302  0.72809094  0.67762032  1
  H+  H124  1  0.27385923  0.87427943  0.82170321  1
  H+  H125  1  0.98535607  0.86284936  0.66250415  1
  H+  H126  1  -0.02441481  0.84955062  0.83640728  1
  H+  H127  1  0.16951048  0.83067301  0.59654901  1
  H+  H128  1  0.11656035  0.63908781  0.49830532  1
  H+  H129  1  0.28789238  0.14041917  0.81659099  1
  H+  H130  1  0.12718270  0.34277089  0.98995496  1
  H+  H131  1  0.36170337  -0.01813477  0.48829126  1
  H+  H132  1  0.10402839  0.88388744  0.99337563  1
  H+  H133  1  0.35914111  0.38662541  0.16335381  1
  H+  H134  1  0.86467877  0.87108313  0.00744861  1
  H+  H135  1  0.61786185  0.39460360  0.49413182  1
  H+  H136  1  0.75411820  0.65652117  0.65481860  1
  H+  H137  1  0.38822982  0.14621194  0.00873701  1
  H+  H138  1  0.38598291  0.27906710  0.17643005  1
  H+  H139  1  0.38940885  0.35043660  0.34167691  1
  H+  H140  1  0.47712876  0.86329915  0.49375231  1
  H+  H141  1  0.21722257  0.39283732  0.61279659  1
  H+  H142  1  0.95591522  0.36089920  0.65666126  1
  H+  H143  1  0.63932619  0.53333245  0.32583220  1
  H+  H144  1  0.60652601  0.63720622  -0.00164232  1
  H+  H145  1  0.91105549  0.06174469  0.71552696  1
  H+  H146  1  0.63511785  1.02147221  0.85030413  1
  H+  H147  1  0.64169496  0.02473275  0.65950560  1
  H+  H148  1  0.01506481  0.39847912  0.15082059  1
  H+  H149  1  0.10289774  0.46815732  0.33546386  1
  H+  H150  1  0.48955940  0.96804519  0.60784949  1
  H+  H151  1  0.62341240  0.26325929  0.84204356  1
  H+  H152  1  0.12070470  0.95620785  0.82380748  1
  H+  H153  1  0.84717163  0.91244501  0.06847655  1
  H+  H154  1  0.63445229  0.11694805  1.00659076  1
  H+  H155  1  0.62314135  0.65563699  0.67182264  1
  H+  H156  1  0.95871544  0.11400339  0.84299374  1
  H+  H157  1  0.14831081  0.39276764  0.82642933  1
  H+  H158  1  0.38192512  0.61180846  0.84655655  1
  H+  H159  1  0.35357815  0.62591497  0.01507918  1
  H+  H160  1  0.28570929  0.37887240  0.69509100  1
  H+  H161  1  0.35552476  0.38726385  0.00816452  1
  H+  H162  1  0.85275424  -0.03028948  0.50372507  1
  H+  H163  1  0.98167888  0.87036111  0.50707592  1
  H+  H164  1  0.83402601  0.66257997  0.73440075  1
  H+  H165  1  0.81681676  0.40871968  0.76966786  1
  H+  H166  1  0.47021126  0.85506601  0.31866308  1
  H+  H167  1  0.28680697  -0.09704151  0.14779656  1
  H+  H168  1  0.63827972  0.61515696  0.50088547  1
  H+  H169  1  0.21688899  0.34807767  -0.00515056  1
  H+  H170  1  0.86400036  -0.02437703  0.15959969  1
  H+  H171  1  0.99654189  0.60446843  0.34811716  1
  H+  H172  1  0.37614277  0.73137699  0.16855706  1
  H+  H173  1  0.31998086  0.21210483  0.45957954  1
  H+  H174  1  0.39104439  1.07103104  -0.07077432  1
  H+  H175  1  0.39186686  0.77302784  0.84589096  1
  H+  H176  1  0.38103726  0.51562924  0.18604704  1
  H+  H177  1  0.60066171  0.87339353  0.48761571  1
  H+  H178  1  0.20721027  0.58420734  0.66183862  1
  H+  H179  1  0.60816160  0.22092095  1.01273458  1
  H+  H180  1  0.03418787  0.14954848  0.68126806  1
  H+  H181  1  0.14646027  0.08554554  0.81923064  1
  H+  H182  1  0.38457849  0.77794710  0.50513739  1
  H+  H183  1  0.27165470  0.63457894  0.49832804  1
  H+  H184  1  0.09088033  0.47157658  0.67245565  1
  H+  H185  1  0.39384142  0.12109196  0.65418688  1
  H+  H186  1  0.01871543  0.89376374  0.16085544  1
  H+  H187  1  0.72152281  0.11273493  0.84675247  1
  H+  H188  1  0.85283808  0.22439519  0.49765955  1
  H+  H189  1  0.33688335  -0.08358980  0.72666954  1
  H+  H190  1  0.23452760  0.11459764  0.49842632  1
  H+  H191  1  0.62589516  0.34333566  0.66109413  1
  H+  H192  1  0.89474825  0.61173948  0.17252646  1
  H+  H193  1  0.61188151  0.88289910  0.83547729  1
  H+  H194  1  0.84287405  0.39769091  0.32096474  1
  H+  H195  1  0.97462327  0.87199461  0.32677969  1
  H+  H196  1  0.86139124  0.21257345  0.34449143  1
  H+  H197  1  0.51888347  0.63310875  0.83186535  1
  H+  H198  1  0.65028761  0.87403603  1.00093304  1
  H+  H199  1  0.63008282  0.77109061  0.84682743  1
  H+  H200  1  0.36763359  -0.02212678  0.33287300  1
  H+  H201  1  0.47583057  0.59756825  0.33910321  1
  H+  H202  1  0.72343876  0.13859259  0.16471765  1
  H+  H203  1  0.88043050  0.74884883  -0.01072629  1
  H+  H204  1  0.48988009  0.37651823  0.50456470  1
  H+  H205  1  0.28532676  0.40016776  0.82758192  1
  H+  H206  1  0.52622190  0.38538578  0.16174844  1
  H+  H207  1  0.71663589  0.85360777  0.66076176  1
  H+  H208  1  0.88126985  0.27432308  0.83724375  1
  H+  H209  1  0.88277419  0.89766403  0.81400155  1
  H+  H210  1  0.37688728  0.48512560  0.83692469  1
  H+  H211  1  0.87823618  0.35768753  0.49635619  1
  H+  H212  1  0.21496008  0.59886564  1.00996879  1
  H+  H213  1  0.60674048  0.50927283  0.68295308  1
  H+  H214  1  0.86482302  0.64991063  0.33704120  1
  H+  H215  1  0.34929730  0.60477706  0.35085866  1
  H+  H216  1  0.09704257  0.67118865  0.08914095  1
  H+  H217  1  0.84424488  0.13117819  0.50623027  1
  H+  H218  1  0.77422681  0.14146535  0.01112922  1
  H+  H219  1  0.12742522  0.88694109  0.02244405  1
  H+  H220  1  0.63840632  0.11399488  0.66444137  1
  H+  H221  1  0.61946869  0.48503554  0.49667514  1
  H+  H222  1  0.23060858  0.84404689  0.31201924  1
  H+  H223  1  0.39018948  0.03165666  0.65428111  1
  H+  H224  1  0.22105838  0.59312218  0.33336193  1
  H+  H225  1  0.59105259  0.16089377  0.73780522  1
  H+  H226  1  0.38616839  0.86408396  0.31927296  1
  H+  H227  1  0.36571886  0.01459994  -0.01020438  1
  H+  H228  1  0.77014958  0.13555432  0.67081671  1
  H+  H229  1  0.88494912  0.78167440  0.32576928  1
  H+  H230  1  0.84199593  0.46568194  0.83051140  1
  H+  H231  1  0.85297928  0.71579584  0.82656508  1
  H+  H232  1  0.34153579  0.66090542  0.69004057  1
  H+  H233  1  0.07822363  0.21023348  0.46997498  1
  H+  H234  1  1.01851650  0.39495439  0.83396783  1
  H+  H235  1  0.38133750  0.12186269  0.49800453  1
  H+  H236  1  0.38579705  0.89699982  0.01016027  1
  H+  H237  1  0.61210442  0.72324006  0.49302695  1
  H+  H238  1  0.38703327  0.52028064  0.48811354  1
  H+  H239  1  0.62798560  0.99113568  0.00978672  1
  H+  H240  1  0.64469430  0.14256598  0.13827244  1
  H+  H241  1  0.17342454  0.08881697  0.22985029  1
  H+  H242  1  0.37239802  0.47004435  0.36873471  1
  H+  H243  1  0.85120314  0.13499792  0.82865483  1
  H+  H244  1  0.63596622  0.27754006  0.50404395  1
  H+  H245  1  0.60445943  0.37175331  0.83803065  1
  H+  H246  1  0.12922102  0.60528725  0.65941348  1
  H+  H247  1  0.37147452  0.38796473  0.46888108  1
  H+  H248  1  0.39968096  0.50309198  0.65549112  1
  H+  H249  1  0.64082689  0.76541944  0.32952339  1
  H+  H250  1  0.27264183  0.14890115  0.15868219  1
  H+  H251  1  0.45859712  0.22381331  0.04774583  1
  H+  H252  1  0.85006517  0.38304248  0.66969127  1
  H+  H253  1  0.10655860  0.13909220  0.16802851  1
  H+  H254  1  0.38994265  0.10968476  0.82931864  1
  H+  H255  1  0.96702346  0.35345959  0.33461037  1
  H+  H256  1  0.15180997  0.31547058  0.85558717  1
  H+  H257  1  0.37446716  0.90635847  0.66241581  1
  H+  H258  1  0.88994936  0.77288782  0.17461936  1
  H+  H259  1  0.60627966  1.00111274  0.15618137  1
  H+  H260  1  0.21297209  0.13307958  0.97381455  1
  H+  H261  1  0.74998978  0.39599491  0.33080298  1
  H+  H262  1  0.12679996  0.23099778  0.67296622  1
  H+  H263  1  0.50955196  0.34058306  0.67778716  1
  H+  H264  1  0.77458999  0.62938541  0.00334161  1
  H+  H265  1  0.48187333  0.36225309  0.33231822  1
  H+  H266  1  0.38974168  0.77139976  0.69062996  1
  H+  H267  1  0.60712587  0.72556292  1.00322214  1
  H+  H268  1  0.86570867  0.73693816  0.48850327  1
  H+  H269  1  0.06232883  1.06614231  0.03856592  1
  H+  H270  1  0.88257477  0.33469580  0.36790076  1
  H+  H271  1  0.13923071  0.77561827  0.50543039  1
  H+  H272  1  -0.02887319  0.11975992  0.17740139  1
  H+  H273  1  0.38256979  1.01671895  0.83160660  1
  H+  H274  1  -0.02213761  0.59662710  0.51072279  1
  H+  H275  1  0.87663347  0.10894520  0.99604214  1
  H+  H276  1  0.65748489  0.37435409  0.16942654  1
  H+  H277  1  0.36689491  0.88459786  0.82442689  1
  H+  H278  1  0.34856521  0.71110170  0.01773180  1
  H+  H279  1  0.12049651  -0.02730167  0.67061444  1
  H+  H280  1  0.89271955  0.85801367  0.66116596  1
  H+  H281  1  0.11120144  0.97490826  0.33820105  1
  H+  H282  1  0.39945788  0.36776455  0.66354414  1
  H+  H283  1  0.24025864  0.62652258  0.18207697  1
  H+  H284  1  0.71413766  0.59890052  0.83418676  1
  H+  H285  1  0.50370072  0.37163251  0.83419629  1
  H+  H286  1  0.24581397  0.84270992  0.98721509  1
  H+  H287  1  0.11944741  0.88274342  0.66844566  1
  H+  H288  1  0.18037263  0.07309164  0.88444663  1
  H+  H289  1  0.06667512  0.94757426  0.10192324  1
  H+  H290  1  0.74035212  0.72102189  0.61527264  1
  H+  H291  1  0.38929465  0.27219606  0.82966794  1
  H+  H292  1  0.91539970  0.83346827  0.23471897  1
  H+  H293  1  0.65601566  0.31103382  0.94030598  1
  H+  H294  1  0.57600664  0.66124043  0.77124467  1
  H+  H295  1  0.68044471  0.35998561  0.23733643  1
  H+  H296  1  0.51897712  0.06159226  0.19363449  1
  H+  H297  1  0.30568922  0.58962861  0.73915300  1
  H+  H298  1  0.16961161  0.08174093  0.59616023  1
  H+  H299  1  0.08493202  0.17998567  0.77654510  1
  H+  H300  1  0.58665545  0.66308134  0.39686974  1
  H+  H301  1  0.36156077  0.63659577  0.49658615  1
  H+  H302  1  0.66262940  0.83179581  0.90525999  1
  H+  H303  1  0.65751545  0.82610230  0.56618216  1
  H+  H304  1  0.34130714  0.66160114  0.11558946  1
  H+  H305  1  0.61531233  0.63425143  0.33549421  1
  H+  H306  1  0.82601120  0.15524863  0.40389279  1
  H+  H307  1  0.12686055  0.17927493  0.38684869  1
  H+  H308  1  0.83386621  0.91225634  0.40619617  1
  H+  H309  1  0.92453488  0.83572763  0.56754030  1
  H+  H310  1  0.88203673  0.55839855  0.90769249  1
  H+  H311  1  0.33277380  0.92083738  0.39307787  1
  H+  H312  1  0.57195550  0.89756892  0.42540813  1
  H+  H313  1  0.32244224  0.64811313  0.40322678  1
  H+  H314  1  0.52006100  0.12816771  0.82869650  1
  H+  H315  1  0.90575466  0.08054164  0.57873693  1
  H+  H316  1  0.63741446  0.60910571  0.15901107  1
  H+  H317  1  0.16930362  0.31846729  0.52882972  1
  H+  H318  1  0.83633509  0.68109334  0.39641605  1
  H+  H319  1  0.35305013  0.42176329  0.74865128  1
  H+  H320  1  0.62442740  0.59814261  0.83653199  1
  H+  H321  1  0.16161749  0.34474790  0.26395599  1
  H+  H322  1  0.32753914  0.41715826  0.06822332  1
  H+  H323  1  0.90077005  0.52589139  0.18311165  1
  H+  H324  1  0.90986604  0.32892330  0.92928372  1
  H+  H325  1  0.41364354  0.09362096  0.55783259  1
  H+  H326  1  0.53679086  0.90622759  0.66989847  1
  H+  H327  1  0.82295165  0.41303688  0.42363134  1
  H+  H328  1  0.91305326  0.55978994  0.56646374  1
  H+  H329  1  0.43022915  0.82339984  0.93244040  1
  H+  H330  1  0.90269272  0.08678373  0.23060840  1
  H+  H331  1  0.08642671  0.89965077  0.76482435  1
  H+  H332  1  0.34511772  0.17632601  0.75665014  1
  H+  H333  1  0.84905191  0.66682508  0.09732862  1
  H+  H334  1  0.91268392  0.82267918  0.89367420  1
  H+  H335  1  0.11310858  0.88650595  0.49380484  1
  H+  H336  1  0.56928544  0.36858320  0.73692116  1
  H+  H337  1  0.41859449  0.33808074  0.23558969  1
  H+  H338  1  0.68072828  0.60334044  0.56050001  1
  H+  H339  1  0.85512294  0.22750599  0.67035978  1
  H+  H340  1  0.40736029  0.55615900  0.28568821  1
  H+  H341  1  0.16631517  0.58482090  0.91586543  1
  H+  H342  1  0.07549507  0.92037160  0.39939778  1
  H+  H343  1  0.30638369  0.69118936  0.78687832  1
  H+  H344  1  0.44231451  0.08555414  0.26034801  1
  H+  H345  1  0.34625652  0.17948107  0.10778315  1
  H+  H346  1  0.44011096  0.87508098  0.57998890  1
  H+  H347  1  0.26934364  0.38679064  0.16158290  1
  H+  H348  1  0.40956273  0.32960460  0.93416544  1
  H+  H349  1  0.83756540  0.18687512  0.10029291  1
  H+  H350  1  0.41434515  0.56284485  0.55433729  1
  H+  H351  1  0.58686391  0.91845300  0.77554062  1
  H+  H352  1  0.13290300  0.27703530  0.17624332  1
  H+  H353  1  0.67321407  0.82615063  0.23621124  1
  H+  H354  1  0.33488601  0.14826982  0.39454628  1
  H+  H355  1  0.12964564  0.04223317  0.97976501  1
  H+  H356  1  0.58560852  0.93239383  0.10474998  1
  H+  H357  1  0.07410208  0.65752027  0.44202574  1
  H+  H358  1  0.66484183  0.09258259  0.94368659  1
  H+  H359  1  0.90171625  0.33085566  0.59449626  1
  H+  H360  1  0.01096029  0.70528297  0.78558207  1
  H+  H361  1  0.67281815  0.34436476  0.58919435  1
  H+  H362  1  0.58585242  0.42767730  0.39768182  1
  H+  H363  1  0.17739901  0.80911695  0.89487134  1
  H+  H364  1  0.66570041  0.58170243  0.93450552  1
  H+  H365  1  0.96852175  0.35922496  0.49935392  1
  H+  H366  1  0.83696258  0.40164307  0.06047867  1
  H+  H367  1  0.77990625  0.38278302  0.18270416  1
  H+  H368  1  0.36782220  0.88610402  0.15685154  1
  H+  H369  1  0.41386434  0.83606836  0.22902270  1
  H+  H370  1  0.82295447  0.16700579  0.76934847  1
  H+  H371  1  0.41192923  0.58499248  0.90764398  1
  H+  H372  1  0.36465972  0.89381848  0.48761508  1
  H+  H373  1  0.07219671  0.16835387  0.11055579  1
  H+  H374  1  0.22799167  0.86614484  0.50306378  1
  H+  H375  1  0.17335686  0.58747696  0.23644531  1
  H+  H376  1  0.91913524  0.59194614  0.26880615  1
  H+  H377  1  0.01676384  0.54421502  0.38771772  1
  H+  H378  1  0.57614838  0.42037690  0.06455488  1
  H+  H379  1  0.66126496  0.09282997  0.57472357  1
  H+  H380  1  0.13678286  0.10490305  0.50368408  1
  H+  H381  1  0.58050452  0.16256768  0.43659249  1
  H+  H382  1  0.90809603  0.11770235  0.35991273  1
  H+  H383  1  0.89777595  0.07669843  0.90047296  1
  O2-  O384  1  0.07337885  0.16836931  0.15597832  1
  O2-  O385  1  0.04344079  0.14674439  0.46868240  1
  O2-  O386  1  0.06482733  0.17636495  0.81902685  1
  O2-  O387  1  0.04652039  0.37095298  0.13634561  1
  O2-  O388  1  0.07287419  0.41389667  0.47090446  1
  O2-  O389  1  0.07857690  0.43163442  0.81820299  1
  O2-  O390  1  0.10120000  0.67914774  0.15705670  1
  O2-  O391  1  0.08550691  0.66981283  0.48629535  1
  O2-  O392  1  0.04257196  0.67623722  0.79654293  1
  O2-  O393  1  0.07687380  0.93085942  0.14238083  1
  O2-  O394  1  0.08208137  0.91695999  0.48102288  1
  O2-  O395  1  0.08459457  0.89567496  0.81027167  1
  O2-  O396  1  0.33561203  0.18133255  0.15160886  1
  O2-  O397  1  0.31626125  0.15809587  0.47088987  1
  O2-  O398  1  0.34817964  0.17809654  0.80246913  1
  O2-  O399  1  0.32997782  0.41725641  0.14655281  1
  O2-  O400  1  0.33794548  0.41419012  0.45228068  1
  O2-  O401  1  0.34899023  0.42497071  0.81993376  1
  O2-  O402  1  0.34736274  0.66763442  0.16028545  1
  O2-  O403  1  0.33258260  0.66914036  0.48503548  1
  O2-  O404  1  0.31545478  0.65903520  0.81883549  1
  O2-  O405  1  0.35039888  0.92757186  0.13960082  1
  O2-  O406  1  0.33082788  0.92128594  0.47417344  1
  O2-  O407  1  0.33427766  0.91021414  0.80615622  1
  O2-  O408  1  0.58762812  0.18511090  0.09761756  1
  O2-  O409  1  0.57984061  0.16886859  0.48193899  1
  O2-  O410  1  0.58227421  0.16253251  0.81684496  1
  O2-  O411  1  0.58368884  0.40914923  0.14204462  1
  O2-  O412  1  0.58598618  0.42407359  0.48151390  1
  O2-  O413  1  0.57312516  0.40342111  0.82085869  1
  O2-  O414  1  0.58608143  0.64973541  0.17531840  1
  O2-  O415  1  0.58556076  0.66302640  0.47693855  1
  O2-  O416  1  0.57879920  0.65863928  0.81634570  1
  O2-  O417  1  0.57352889  0.93847407  0.14757281  1
  O2-  O418  1  0.57026942  0.90194035  0.47111811  1
  O2-  O419  1  0.58259147  0.91594673  0.82056229  1
  O2-  O420  1  0.83579060  0.19858923  0.14458004  1
  O2-  O421  1  0.81608150  0.16145295  0.48746258  1
  O2-  O422  1  0.82310395  0.16818829  0.81456125  1
  O2-  O423  1  0.84850868  0.40816413  0.18507232  1
  O2-  O424  1  0.82452633  0.40555498  0.46890717  1
  O2-  O425  1  0.81456393  0.40454432  0.81465477  1
  O2-  O426  1  0.84516203  0.66626608  0.14255722  1
  O2-  O427  1  0.83733396  0.67958195  0.46915530  1
  O2-  O428  1  0.81999839  0.65557077  0.81097251  1
  O2-  O429  1  0.84002493  0.91690160  0.14287359  1
  O2-  O430  1  0.82713634  0.91093032  0.48700084  1
  O2-  O431  1  0.87253235  0.93833222  0.78995641  1
  O2-  O432  1  0.16477213  0.09277076  0.18506384  1
  O2-  O433  1  0.17122985  0.08163552  0.52067281  1
  O2-  O434  1  0.18386472  0.06758994  0.83812887  1
  O2-  O435  1  0.16407180  0.33933280  0.18678121  1
  O2-  O436  1  0.15981108  0.32154872  0.48516662  1
  O2-  O437  1  0.18289800  0.36329716  0.82760953  1
  O2-  O438  1  0.17801816  0.59918058  0.19206576  1
  O2-  O439  1  0.16258537  0.57655729  0.51847320  1
  O2-  O440  1  0.17118559  0.59081027  0.87053271  1
  O2-  O441  1  0.18448070  0.85585955  0.14462441  1
  O2-  O442  1  0.16865048  0.83619754  0.52073655  1
  O2-  O443  1  0.17191423  0.81366553  0.84901851  1
  O2-  O444  1  0.47309372  0.07425088  0.18487560  1
  O2-  O445  1  0.41501249  0.09420880  0.51245970  1
  O2-  O446  1  0.41491404  0.07667514  0.84763059  1
  O2-  O447  1  0.41856191  0.34113594  0.19063073  1
  O2-  O448  1  0.42689928  0.34546921  0.51840454  1
  O2-  O449  1  0.42133530  0.33219114  0.84866710  1
  O2-  O450  1  0.41117631  0.57019769  0.20965952  1
  O2-  O451  1  0.41484678  0.57555950  0.51032697  1
  O2-  O452  1  0.41444001  0.58471878  0.86130294  1
  O2-  O453  1  0.41360157  0.83425948  0.18240530  1
  O2-  O454  1  0.41734242  0.84095917  0.51319590  1
  O2-  O455  1  0.42134386  0.83380898  0.85867271  1
  O2-  O456  1  0.66004309  0.11103557  0.16779042  1
  O2-  O457  1  0.66139262  0.09900547  0.52753241  1
  O2-  O458  1  0.66259423  0.08214286  0.86486759  1
  O2-  O459  1  0.69083660  0.35355870  0.19260142  1
  O2-  O460  1  0.66923788  0.33823203  0.51841998  1
  O2-  O461  1  0.65041119  0.32464706  0.85682968  1
  O2-  O462  1  0.67233740  0.58217648  0.14084512  1
  O2-  O463  1  0.67104210  0.58734352  0.51698011  1
  O2-  O464  1  0.65333940  0.56499121  0.84922117  1
  O2-  O465  1  0.66775490  0.81734076  0.19148935  1
  O2-  O466  1  0.65934664  0.82345123  0.52108862  1
  O2-  O467  1  0.65584215  0.83133904  0.86032355  1
  O2-  O468  1  0.90752132  0.08983132  0.18649977  1
  O2-  O469  1  0.89795907  0.07936664  0.53467209  1
  O2-  O470  1  0.89736826  0.07858545  0.85482523  1
  O2-  O471  1  0.87391505  0.37367698  0.13358743  1
  O2-  O472  1  0.90812567  0.32866149  0.51530483  1
  O2-  O473  1  0.91239224  0.33510692  0.85185917  1
  O2-  O474  1  0.92827174  0.58805880  0.19276422  1
  O2-  O475  1  0.91943677  0.55131318  0.52279710  1
  O2-  O476  1  0.88292529  0.56257904  0.85796213  1
  O2-  O477  1  0.91740364  0.83352207  0.18877627  1
  O2-  O478  1  0.92086064  0.84117807  0.52285148  1
  O2-  O479  1  0.91413512  0.82427797  0.84836477  1
  O2-  O480  1  0.18146247  0.07805845  0.30449597  1
  O2-  O481  1  0.17037557  0.07983275  0.64227380  1
  O2-  O482  1  0.18100313  0.07759417  0.95387453  1
  O2-  O483  1  0.15922567  0.34382719  0.30942007  1
  O2-  O484  1  0.20571737  0.33366892  0.61330465  1
  O2-  O485  1  0.15795767  0.31157707  0.97846251  1
  O2-  O486  1  0.16115995  0.56707653  0.31429926  1
  O2-  O487  1  0.14988320  0.56537244  0.64443922  1
  O2-  O488  1  0.15566441  0.57027028  0.99260170  1
  O2-  O489  1  0.17558913  0.79971050  0.29451003  1
  O2-  O490  1  0.16744364  0.82690737  0.64239438  1
  O2-  O491  1  0.19355244  0.80113336  0.96473097  1
  O2-  O492  1  0.43540257  0.08477780  0.30538749  1
  O2-  O493  1  0.42406097  0.09129836  0.63833615  1
  O2-  O494  1  0.36940893  0.06653961  0.97106428  1
  O2-  O495  1  0.41936075  0.32480467  0.32030843  1
  O2-  O496  1  0.42266435  0.33474862  0.64262103  1
  O2-  O497  1  0.40739030  0.33512821  0.97850371  1
  O2-  O498  1  0.41271237  0.55749404  0.33136344  1
  O2-  O499  1  0.42096919  0.55923105  0.63461453  1
  O2-  O500  1  0.40874885  0.58337068  0.98138666  1
  O2-  O501  1  0.41300052  0.83375484  0.29961434  1
  O2-  O502  1  0.45887802  0.90813637  0.62050010  1
  O2-  O503  1  0.43866718  0.81275286  0.97639964  1
  O2-  O504  1  0.66496133  0.05485593  0.31709490  1
  O2-  O505  1  0.66793331  0.08470852  0.64248184  1
  O2-  O506  1  0.66924478  0.09271664  0.98893658  1
  O2-  O507  1  0.67006132  0.36620538  0.30884880  1
  O2-  O508  1  0.67579275  0.34417021  0.63576151  1
  O2-  O509  1  0.65741802  0.30387387  0.98464119  1
  O2-  O510  1  0.66765489  0.59350649  0.31107840  1
  O2-  O511  1  0.70915209  0.66268283  0.63120128  1
  O2-  O512  1  0.66894748  0.58761359  0.97919929  1
  O2-  O513  1  0.66978551  0.82677743  0.31554808  1
  O2-  O514  1  0.65608776  0.82959538  0.64683401  1
  O2-  O515  1  0.67324056  0.83733335  0.98476100  1
  O2-  O516  1  0.94662178  0.09277625  0.36555340  1
  O2-  O517  1  0.92085324  0.09032317  0.67603360  1
  O2-  O518  1  0.90780121  0.08050219  0.97808712  1
  O2-  O519  1  0.90210808  0.31950057  0.33111789  1
  O2-  O520  1  0.89650754  0.32875779  0.63990328  1
  O2-  O521  1  0.91096958  0.32686365  0.97466098  1
  O2-  O522  1  0.91235737  0.58975632  0.31422140  1
  O2-  O523  1  0.91304213  0.57446280  0.64713067  1
  O2-  O524  1  0.88504329  0.55438616  0.97133162  1
  O2-  O525  1  0.91363445  0.84240371  0.30992072  1
  O2-  O526  1  0.92444801  0.82854532  0.64791425  1
  O2-  O527  1  0.91001464  0.81175756  0.97415144  1
  O2-  O528  1  0.06640579  0.16097246  0.03277505  1
  O2-  O529  1  0.11409576  0.17555017  0.34342359  1
  O2-  O530  1  0.09561561  0.17543597  0.69363962  1
  O2-  O531  1  0.07418882  0.39742398  0.01546688  1
  O2-  O532  1  0.06911924  0.40746752  0.35204284  1
  O2-  O533  1  0.05452931  0.41339704  0.69265086  1
  O2-  O534  1  0.08923499  0.66418783  0.04204268  1
  O2-  O535  1  0.04395415  0.60318034  0.37312494  1
  O2-  O536  1  0.08406636  0.66119788  0.68003297  1
  O2-  O537  1  0.04956063  1.00516508  0.03391585  1
  O2-  O538  1  0.06861971  0.91812087  0.35470474  1
  O2-  O539  1  0.08972693  0.91250613  0.68613791  1
  O2-  O540  1  0.39964398  0.19948636  0.03344376  1
  O2-  O541  1  0.34444647  0.15423569  0.34908181  1
  O2-  O542  1  0.33589182  0.16916426  0.68131107  1
  O2-  O543  1  0.32579381  0.41814334  0.02256145  1
  O2-  O544  1  0.34524356  0.40819075  0.38593369  1
  O2-  O545  1  0.34743548  0.41320523  0.70248412  1
  O2-  O546  1  0.32076464  0.65206673  0.03361564  1
  O2-  O547  1  0.31236330  0.62967879  0.36032834  1
  O2-  O548  1  0.30859842  0.59802274  0.69474320  1
  O2-  O549  1  0.34570078  0.91615055  0.02127193  1
  O2-  O550  1  0.33443858  0.91811003  0.34805851  1
  O2-  O551  1  0.33362895  0.92153894  0.68159463  1
  O2-  O552  1  0.57302003  0.15911263  0.03340987  1
  O2-  O553  1  0.58183620  0.14447921  0.36112399  1
  O2-  O554  1  0.59593181  0.16182636  0.69256918  1
  O2-  O555  1  0.57586746  0.43343509  0.02044454  1
  O2-  O556  1  0.58101026  0.42729971  0.35291973  1
  O2-  O557  1  0.55545724  0.33504864  0.69924959  1
  O2-  O558  1  0.57127582  0.66305095  0.01046129  1
  O2-  O559  1  0.58130763  0.66205804  0.35192236  1
  O2-  O560  1  0.57859553  0.66612953  0.69054249  1
  O2-  O561  1  0.60158278  0.92942516  0.02277965  1
  O2-  O562  1  0.57176139  0.89310296  0.35109664  1
  O2-  O563  1  0.59198388  0.92589297  0.69172311  1
  O2-  O564  1  0.83607931  0.16836609  0.02284265  1
  O2-  O565  1  0.83608334  0.15210949  0.35993624  1
  O2-  O566  1  0.82967571  0.16839789  0.68804580  1
  O2-  O567  1  0.82390809  0.40074341  0.01685354  1
  O2-  O568  1  0.81792860  0.42382569  0.34688666  1
  O2-  O569  1  0.82152902  0.41441490  0.68646628  1
  O2-  O570  1  0.83642313  0.65688770  0.01548383  1
  O2-  O571  1  0.83503082  0.68120351  0.35021870  1
  O2-  O572  1  0.84051690  0.66607495  0.68889136  1
  O2-  O573  1  0.85226056  0.91586623  0.02255095  1
  O2-  O574  1  0.83901814  0.92275525  0.36160391  1
  O2-  O575  1  0.82510517  0.89996754  0.67838624  1
