# generated using pymatgen
data_H2O
_symmetry_space_group_name_H-M   'P 1'
_cell_length_a   17.99147015
_cell_length_b   17.99189727
_cell_length_c   22.00479014
_cell_angle_alpha   89.97570398
_cell_angle_beta   90.00883071
_cell_angle_gamma   119.99439400
_symmetry_Int_Tables_number   1
_chemical_formula_structural   H2O
_chemical_formula_sum   'H384 O192'
_cell_volume   6169.01701960
_cell_formula_units_Z   192
loop_
 _symmetry_equiv_pos_site_id
 _symmetry_equiv_pos_as_xyz
  1  'x, y, z'
loop_
 _atom_type_symbol
 _atom_type_oxidation_number
  H+  1.0
  O2-  -2.0
loop_
 _atom_site_type_symbol
 _atom_site_label
 _atom_site_symmetry_multiplicity
 _atom_site_fract_x
 _atom_site_fract_y
 _atom_site_fract_z
 _atom_site_occupancy
  H+  H0  1  0.11470351  0.88526462  0.15974168  1
  H+  H1  1  0.62421945  0.40687202  0.83456854  1
  H+  H2  1  0.60991236  0.38526470  -0.00954260  1
  H+  H3  1  0.38060432  0.27161427  0.99447862  1
  H+  H4  1  0.47415009  0.61946038  0.83040902  1
  H+  H5  1  0.12447251  0.74130778  0.34326845  1
  H+  H6  1  0.65051358  0.36782494  0.16341411  1
  H+  H7  1  0.71603415  0.35942501  0.97982420  1
  H+  H8  1  0.37428470  0.24051935  0.51125267  1
  H+  H9  1  0.11829248  0.24834484  0.33219284  1
  H+  H10  1  0.82272443  0.39932380  0.40806679  1
  H+  H11  1  0.45921480  0.50343729  0.70836178  1
  H+  H12  1  0.86898665  0.89495621  0.65290540  1
  H+  H13  1  0.03491264  0.65501136  0.33917792  1
  H+  H14  1  0.37248355  0.75093221  0.34307272  1
  H+  H15  1  0.52672247  0.82976331  0.85014315  1
  H+  H16  1  0.89901334  0.28697283  0.99424233  1
  H+  H17  1  0.15518370  0.65075468  0.31473255  1
  H+  H18  1  0.11685886  0.40256581  0.51761747  1
  H+  H19  1  0.10895689  0.11094319  0.00094129  1
  H+  H20  1  0.77960630  0.63087911  0.66914823  1
  H+  H21  1  0.53065499  0.33626396  0.13175332  1
  H+  H22  1  0.60596009  0.37417515  0.49501987  1
  H+  H23  1  0.62175904  0.91360581  0.34079539  1
  H+  H24  1  0.88444643  0.52070758  0.84146617  1
  H+  H25  1  0.22321191  0.11472521  0.16293895  1
  H+  H26  1  0.36480197  0.15061774  0.16173747  1
  H+  H27  1  0.36563256  0.39340422  0.49523555  1
  H+  H28  1  0.14932415  0.88809847  0.64961238  1
  H+  H29  1  0.60044926  0.60888151  0.33782588  1
  H+  H30  1  1.01972696  0.39151380  0.67763568  1
  H+  H31  1  0.13175028  0.60769027  0.83285751  1
  H+  H32  1  -0.08372430  0.33375785  0.23113425  1
  H+  H33  1  0.76290392  0.13006761  0.51929419  1
  H+  H34  1  0.38683652  0.63900999  0.65098783  1
  H+  H35  1  0.72233777  0.35908006  0.32484226  1
  H+  H36  1  0.72442677  0.35767898  0.50521813  1
  H+  H37  1  0.86673272  0.72258279  0.49062069  1
  H+  H38  1  0.64135615  0.51102524  0.51096935  1
  H+  H39  1  0.34378807  0.48012992  0.18086867  1
  H+  H40  1  0.60675657  0.49281377  0.67871292  1
  H+  H41  1  0.22998085  0.12031415  0.66699806  1
  H+  H42  1  0.38408673  0.55984058  0.27934208  1
  H+  H43  1  0.14284322  0.32041266  0.24218656  1
  H+  H44  1  0.40220291  0.08759194  0.90400270  1
  H+  H45  1  0.63357348  0.01700665  0.67219361  1
  H+  H46  1  0.11262311  0.40239976  0.67826069  1
  H+  H47  1  0.22960805  0.36361921  0.51374486  1
  H+  H48  1  0.13008637  0.36675139  0.84568591  1
  H+  H49  1  0.03880577  0.87795046  0.82517572  1
  H+  H50  1  0.61418819  0.23155707  0.33555631  1
  H+  H51  1  0.59390796  0.12866954  0.99893977  1
  H+  H52  1  0.33179403  0.44469557  0.34186714  1
  H+  H53  1  0.88716229  0.37193377  0.99398814  1
  H+  H54  1  0.48034635  0.37967961  0.84741642  1
  H+  H55  1  0.10870220  0.72655318  0.49586773  1
  H+  H56  1  0.78811987  0.39915895  0.15685085  1
  H+  H57  1  0.58386800  0.40553588  0.08185939  1
  H+  H58  1  0.26248809  0.12928354  1.00748532  1
  H+  H59  1  0.64199098  0.61805330  0.65559689  1
  H+  H60  1  0.35853951  0.97122597  0.48534775  1
  H+  H61  1  0.85796204  0.38467388  0.49623894  1
  H+  H62  1  0.61689646  0.13163112  0.68896375  1
  H+  H63  1  0.88293311  0.88657520  0.33652321  1
  H+  H64  1  0.86503700  0.96806444  0.48744035  1
  H+  H65  1  0.14310844  0.02352357  0.51082654  1
  H+  H66  1  0.45172530  0.09577029  0.99867004  1
  H+  H67  1  0.58481606  0.39566988  0.68571691  1
  H+  H68  1  0.38909363  0.78021909  0.50466530  1
  H+  H69  1  0.25330958  0.36672160  0.68426091  1
  H+  H70  1  0.35222793  0.84502462  0.98545152  1
  H+  H71  1  0.62499153  0.21210986  0.84961917  1
  H+  H72  1  0.15820287  0.88694584  0.83066110  1
  H+  H73  1  0.11539779  0.14015600  0.14929821  1
  H+  H74  1  0.98484272  0.11777532  0.16172556  1
  H+  H75  1  0.02317526  0.62303149  0.81447012  1
  H+  H76  1  0.96651626  0.86093433  0.99458107  1
  H+  H77  1  0.36289659  0.22980593  0.67480126  1
  H+  H78  1  0.22091924  0.85662670  0.49734856  1
  H+  H79  1  0.26236645  0.63120573  0.00344162  1
  H+  H80  1  0.37382530  0.76441293  0.83365494  1
  H+  H81  1  0.32328504  0.40608215  0.43524780  1
  H+  H82  1  1.03475986  0.64591741  0.15130138  1
  H+  H83  1  0.36068435  -0.02451154  0.15886224  1
  H+  H84  1  0.12795809  0.65255123  0.14761441  1
  H+  H85  1  0.48259433  0.87672158  0.32770950  1
  H+  H86  1  0.62751124  0.77901313  -0.01608439  1
  H+  H87  1  0.23689084  0.87167441  0.32401035  1
  H+  H88  1  0.64247675  0.77930985  0.65289231  1
  H+  H89  1  0.48186003  0.12075918  0.32335854  1
  H+  H90  1  0.87261608  0.74147112  0.34504685  1
  H+  H91  1  0.32941076  0.95596400  0.00756252  1
  H+  H92  1  0.86969738  0.44671658  0.34790660  1
  H+  H93  1  0.60492555  0.73276455  0.49045648  1
  H+  H94  1  0.61482945  0.99739502  0.33501009  1
  H+  H95  1  0.94242931  0.10950243  0.62365490  1
  H+  H96  1  0.77323149  0.63924838  0.82203998  1
  H+  H97  1  0.87057319  0.64681582  -0.00750522  1
  H+  H98  1  0.31917897  0.67317918  0.73127097  1
  H+  H99  1  0.98061361  0.63148676  0.98656728  1
  H+  H100  1  0.47328292  0.11559506  0.16751184  1
  H+  H101  1  0.66371244  0.28726720  0.16092930  1
  H+  H102  1  0.81680205  0.18486701  0.76749642  1
  H+  H103  1  0.78616926  0.86529500  0.33282799  1
  H+  H104  1  0.59102380  0.21822602  0.99290764  1
  H+  H105  1  0.39586255  0.82232627  0.89450935  1
  H+  H106  1  0.13882850  0.63258432  0.98984881  1
  H+  H107  1  0.61643486  1.02522455  0.00322548  1
  H+  H108  1  0.09173537  0.92062643  0.76311316  1
  H+  H109  1  0.61413730  0.22326394  0.49185164  1
  H+  H110  1  0.86457825  0.73793386  -0.00614787  1
  H+  H111  1  0.64080635  0.86711348  0.65860229  1
  H+  H112  1  0.35710367  0.63637604  0.82087258  1
  H+  H113  1  0.63760969  0.54068219  0.83745292  1
  H+  H114  1  0.76036280  0.12372883  0.31590319  1
  H+  H115  1  0.11341622  0.48259473  0.83068044  1
  H+  H116  1  0.11188573  0.33066522  0.34489595  1
  H+  H117  1  0.63332433  0.02457801  0.51372990  1
  H+  H118  1  0.63538687  0.12352171  0.31997108  1
  H+  H119  1  0.63441111  0.11423288  0.51206505  1
  H+  H120  1  0.45306073  0.61280048  0.19585230  1
  H+  H121  1  0.47737148  0.36470445  0.51267563  1
  H+  H122  1  0.53410565  0.14387069  0.69383795  1
  H+  H123  1  0.38227072  0.77124583  0.17342137  1
  H+  H124  1  0.46281545  0.37287618  0.66620300  1
  H+  H125  1  0.13333553  0.30181780  1.01375974  1
  H+  H126  1  0.40701039  0.70671100  0.11775999  1
  H+  H127  1  0.87902699  0.09169970  0.30757489  1
  H+  H128  1  0.37865537  0.53099522  0.49769227  1
  H+  H129  1  0.90672994  0.75803459  0.83965297  1
  H+  H130  1  0.39266045  0.87604688  0.32683823  1
  H+  H131  1  0.77437752  0.63240656  0.13746110  1
  H+  H132  1  0.74242740  0.65073349  0.31307534  1
  H+  H133  1  0.44253612  0.55646999  0.33239483  1
  H+  H134  1  0.38010601  0.78166692  0.66281975  1
  H+  H135  1  0.61089178  0.64153564  -0.00830595  1
  H+  H136  1  0.72441741  0.61453336  0.98580131  1
  H+  H137  1  0.77831447  0.13613591  0.15912573  1
  H+  H138  1  0.88632190  0.61031119  0.83656229  1
  H+  H139  1  0.52721950  0.88334978  0.68682714  1
  H+  H140  1  0.37435663  0.89971331  0.66998803  1
  H+  H141  1  0.62766518  0.02826355  0.17019219  1
  H+  H142  1  0.35901536  0.23133454  0.32233811  1
  H+  H143  1  0.78103506  0.89796478  0.65074722  1
  H+  H144  1  0.76295249  0.88715480  0.99439139  1
  H+  H145  1  0.55029429  0.65767144  0.34734234  1
  H+  H146  1  0.52071073  0.38591043  0.99778089  1
  H+  H147  1  0.10694914  0.19067744  -0.02523065  1
  H+  H148  1  0.87921514  0.98442996  0.14823162  1
  H+  H149  1  0.49961585  0.54387194  0.11992260  1
  H+  H150  1  0.25425329  0.65328900  0.67670030  1
  H+  H151  1  0.64169982  0.84081002  0.92792090  1
  H+  H152  1  0.64818032  0.00405785  0.84771847  1
  H+  H153  1  0.88902858  0.85664218  0.50380412  1
  H+  H154  1  0.89033642  0.77140618  0.66020706  1
  H+  H155  1  0.89078621  0.27595238  0.17120498  1
  H+  H156  1  0.89780792  1.03213527  0.66834429  1
  H+  H157  1  0.68966231  0.73792672  0.29204577  1
  H+  H158  1  0.24082451  0.62611519  0.15937688  1
  H+  H159  1  0.27310309  0.66584271  0.33022603  1
  H+  H160  1  0.11178493  0.48929163  0.51419831  1
  H+  H161  1  0.98823210  0.38972183  0.84359016  1
  H+  H162  1  0.85952456  0.47503767  0.49278763  1
  H+  H163  1  0.73523288  0.89401880  0.81940437  1
  H+  H164  1  0.60856999  0.18545160  0.07692897  1
  H+  H165  1  1.01623267  0.12025421  0.34243956  1
  H+  H166  1  0.16618648  0.60401784  0.57434404  1
  H+  H167  1  0.92514667  0.07728556  0.22128485  1
  H+  H168  1  0.55885728  0.71029824  0.18014195  1
  H+  H169  1  0.22713796  0.86782421  0.17404885  1
  H+  H170  1  0.47828121  0.86953284  0.50640365  1
  H+  H171  1  0.09108141  0.47422057  0.30031653  1
  H+  H172  1  0.36058552  0.39500038  0.83710112  1
  H+  H173  1  0.86837969  0.13781612  0.15832463  1
  H+  H174  1  0.36805061  0.87134646  0.82281839  1
  H+  H175  1  0.38447043  0.36393006  0.99338992  1
  H+  H176  1  0.13572385  0.02306112  0.15683882  1
  H+  H177  1  0.12792141  0.01682113  0.84461447  1
  H+  H178  1  0.87888227  0.15417443  1.00140555  1
  H+  H179  1  0.46348038  0.38416705  0.17148974  1
  H+  H180  1  0.52996591  0.65435101  0.66022858  1
  H+  H181  1  0.89425057  0.51643686  0.65902948  1
  H+  H182  1  0.66597429  0.35392569  0.66087587  1
  H+  H183  1  0.22269077  0.09364004  0.30226666  1
  H+  H184  1  0.11527640  0.88682676  0.49548239  1
  H+  H185  1  0.87954585  0.38637576  0.67961430  1
  H+  H186  1  0.89612744  0.55472270  0.31687564  1
  H+  H187  1  0.26522190  0.63198183  0.82530353  1
  H+  H188  1  0.83109709  0.93325283  0.83388594  1
  H+  H189  1  0.25846480  0.38747513  0.17969083  1
  H+  H190  1  0.12131546  0.88291757  0.34405561  1
  H+  H191  1  0.88843890  0.27078684  0.66004126  1
  H+  H192  1  0.87391570  0.33838019  0.33013936  1
  H+  H193  1  0.12751113  0.53804386  -0.00310534  1
  H+  H194  1  0.02390555  0.88249334  0.15401320  1
  H+  H195  1  0.47169359  0.12225627  0.85175447  1
  H+  H196  1  0.89833261  0.64183973  0.32159588  1
  H+  H197  1  0.11224523  0.39372360  0.16634868  1
  H+  H198  1  0.23125102  0.11459230  0.51270974  1
  H+  H199  1  1.00436652  0.87579358  0.32311929  1
  H+  H200  1  0.72669991  0.86653807  0.50124216  1
  H+  H201  1  0.66127518  0.51343082  0.17168713  1
  H+  H202  1  0.36954121  0.48194037  -0.00488650  1
  H+  H203  1  0.35890240  0.88512105  0.16248070  1
  H+  H204  1  0.78900500  0.37837522  0.67672260  1
  H+  H205  1  0.76446954  0.14815727  0.82746865  1
  H+  H206  1  0.24512944  0.35372551  0.34531619  1
  H+  H207  1  0.97319644  0.36817936  0.51550204  1
  H+  H208  1  0.36856351  0.24500504  0.82303147  1
  H+  H209  1  0.59822987  0.90638277  0.74155432  1
  H+  H210  1  0.88397464  1.00607557  0.31656661  1
  H+  H211  1  0.11114097  0.22738268  0.83844692  1
  H+  H212  1  0.93136461  0.82200286  0.89606756  1
  H+  H213  1  0.83657823  0.90753356  0.42853253  1
  H+  H214  1  0.88095452  0.25586255  0.31508238  1
  H+  H215  1  0.87700428  0.86317582  -0.01279227  1
  H+  H216  1  0.57492726  0.40463361  0.43599650  1
  H+  H217  1  0.98015345  0.86099330  0.50544490  1
  H+  H218  1  0.26978495  0.39314412  0.83865741  1
  H+  H219  1  0.09424985  0.17529725  0.77716260  1
  H+  H220  1  0.10939399  0.53180775  0.67308622  1
  H+  H221  1  0.87543987  0.02262765  0.98557726  1
  H+  H222  1  0.35878814  0.64277939  0.48571131  1
  H+  H223  1  0.90730508  0.53270141  0.16523608  1
  H+  H224  1  0.16303824  0.58664258  0.89709410  1
  H+  H225  1  0.65012766  0.12632563  0.16033606  1
  H+  H226  1  0.36634930  0.15529511  0.82735077  1
  H+  H227  1  0.65338054  0.81552748  0.16868543  1
  H+  H228  1  0.86287339  0.13803560  0.68054761  1
  H+  H229  1  0.37242406  0.62609861  0.17954187  1
  H+  H230  1  0.08875634  0.85569292  0.00793075  1
  H+  H231  1  0.70475986  0.22372121  0.09696958  1
  H+  H232  1  0.63548146  0.52511269  0.98490689  1
  H+  H233  1  0.50973143  0.88987840  0.16748581  1
  H+  H234  1  0.36565284  0.09972394  -0.00021471  1
  H+  H235  1  0.12954516  0.28347663  0.66910065  1
  H+  H236  1  1.03369604  0.14738824  0.69049255  1
  H+  H237  1  0.13210448  0.47534976  0.30854895  1
  H+  H238  1  0.86672604  0.63343953  0.48853652  1
  H+  H239  1  0.14114685  0.27444370  0.51574854  1
  H+  H240  1  0.37065289  -0.01446064  0.33519755  1
  H+  H241  1  0.27919497  0.39827212  1.00282020  1
  H+  H242  1  0.86097663  0.48239082  -0.00034481  1
  H+  H243  1  0.73011274  0.60007022  0.50924478  1
  H+  H244  1  0.92134596  0.59320296  0.92696039  1
  H+  H245  1  0.51374450  0.37888795  0.34244341  1
  H+  H246  1  0.37873261  -0.00869330  0.67642972  1
  H+  H247  1  0.64924582  0.25905834  0.66795009  1
  H+  H248  1  0.97491056  0.60769944  0.50446193  1
  H+  H249  1  0.17104466  0.84218671  0.56044044  1
  H+  H250  1  0.39256090  0.13314543  0.67523788  1
  H+  H251  1  0.38744609  0.11403211  0.51216917  1
  H+  H252  1  0.60581677  0.89596042  0.01023950  1
  H+  H253  1  0.63646189  0.58131519  0.15185484  1
  H+  H254  1  0.13361027  0.38824768  0.00297029  1
  H+  H255  1  1.02588669  0.89172388  0.66986794  1
  H+  H256  1  0.27795661  0.88912332  0.82441625  1
  H+  H257  1  0.27344686  0.64977735  0.49407676  1
  H+  H258  1  0.87283189  0.01570228  0.57107821  1
  H+  H259  1  0.36746849  0.35039079  0.32716790  1
  H+  H260  1  0.59619065  0.70392148  0.18806835  1
  H+  H261  1  1.02655687  0.39826264  0.16452651  1
  H+  H262  1  0.36257901  0.76205926  0.98540113  1
  H+  H263  1  0.38488567  0.52927109  0.83633471  1
  H+  H264  1  0.86909685  0.09046080  0.53218296  1
  H+  H265  1  0.61689823  0.65760293  0.82023843  1
  H+  H266  1  0.77101913  0.13386404  0.67263766  1
  H+  H267  1  0.46697522  0.62244268  0.49867760  1
  H+  H268  1  0.40959885  0.83242107  0.23425062  1
  H+  H269  1  0.35954062  0.23782140  0.16116982  1
  H+  H270  1  0.36315025  0.88499172  0.48788467  1
  H+  H271  1  0.96919262  0.08651718  0.83367595  1
  H+  H272  1  0.60567036  0.90248278  0.17000284  1
  H+  H273  1  0.43791451  0.52282056  0.69007816  1
  H+  H274  1  0.88622246  0.38496140  0.84577846  1
  H+  H275  1  0.23926653  0.88908631  0.65023040  1
  H+  H276  1  0.76568269  0.38769165  0.83061824  1
  H+  H277  1  0.64764247  0.78568759  0.32784041  1
  H+  H278  1  0.88491567  0.86162579  0.15942328  1
  H+  H279  1  0.13901503  0.62590012  0.51140553  1
  H+  H280  1  0.13095617  0.00388103  0.99578804  1
  H+  H281  1  0.39113773  0.11872868  0.31960964  1
  H+  H282  1  0.12427869  0.15229850  0.68121430  1
  H+  H283  1  0.64386803  0.31269326  0.81321739  1
  H+  H284  1  0.60222891  0.38004151  0.34009752  1
  H+  H285  1  0.78687945  0.90364293  0.15456758  1
  H+  H286  1  0.11423475  0.13189210  0.50036249  1
  H+  H287  1  0.02224005  0.40448221  0.01219916  1
  H+  H288  1  0.41580292  0.34081150  0.57288805  1
  H+  H289  1  0.97747409  0.92125392  0.27552132  1
  H+  H290  1  0.68809953  0.85336672  0.23180012  1
  H+  H291  1  0.38384514  0.61525239  0.98783281  1
  H+  H292  1  0.12041531  0.97007693  0.33650780  1
  H+  H293  1  0.65500812  0.07572363  0.61195367  1
  H+  H294  1  0.17169791  0.83765037  0.26681212  1
  H+  H295  1  0.83425364  0.66035193  0.76334609  1
  H+  H296  1  0.09733077  0.69851559  0.06408763  1
  H+  H297  1  0.52517105  0.13403795  0.49029399  1
  H+  H298  1  0.66971459  0.57515484  0.60178113  1
  H+  H299  1  0.08552307  0.66850554  0.43625007  1
  H+  H300  1  0.36439530  0.34883911  0.66689377  1
  H+  H301  1  0.33760885  0.17760115  0.73914241  1
  H+  H302  1  0.65776076  0.08970408  0.25678973  1
  H+  H303  1  0.57544600  0.92143868  0.07089487  1
  H+  H304  1  0.86942774  0.63149951  0.66881064  1
  H+  H305  1  0.58194721  0.43297213  0.77954008  1
  H+  H306  1  0.05882283  0.37997291  0.42742481  1
  H+  H307  1  0.58684288  0.17044254  0.39544743  1
  H+  H308  1  0.59363103  0.16519062  0.78630928  1
  H+  H309  1  0.83640801  0.67241800  0.39879234  1
  H+  H310  1  0.42091552  0.84012767  0.60400577  1
  H+  H311  1  0.83728189  0.41480995  0.77444407  1
  H+  H312  1  0.11181193  -0.01514562  0.67281062  1
  H+  H313  1  0.66204087  0.33533224  0.91774077  1
  H+  H314  1  -0.00051335  0.34456577  0.36829788  1
  H+  H315  1  0.82927444  0.15278690  0.46595688  1
  H+  H316  1  0.61770832  0.89647106  0.49368328  1
  H+  H317  1  0.15435413  0.05917880  0.25005703  1
  H+  H318  1  0.87314329  0.39271130  0.15424324  1
  H+  H319  1  0.29900300  0.15933908  0.37062802  1
  H+  H320  1  0.15845855  0.34279799  0.90779384  1
  H+  H321  1  0.91890738  0.82727201  0.59976846  1
  H+  H322  1  0.86055388  0.72897688  0.13822467  1
  H+  H323  1  0.08197963  0.63750279  0.75451623  1
  H+  H324  1  0.08230117  0.43429850  0.07281598  1
  H+  H325  1  0.08694066  0.17112927  0.09060713  1
  H+  H326  1  0.32730651  0.68189744  0.40207558  1
  H+  H327  1  0.91594528  0.57565523  0.56385514  1
  H+  H328  1  0.31244851  0.90148690  0.06780738  1
  H+  H329  1  0.15021728  0.53906904  0.16735641  1
  H+  H330  1  0.31309087  0.39051637  0.74425713  1
  H+  H331  1  0.68785062  0.61762805  0.25059213  1
  H+  H332  1  0.36987957  0.37487987  0.17844867  1
  H+  H333  1  0.35935109  0.18656394  0.45157215  1
  H+  H334  1  0.19588442  0.81790075  1.00921101  1
  H+  H335  1  0.62814351  0.08240016  0.84827435  1
  H+  H336  1  0.96944175  0.10256156  0.98517493  1
  H+  H337  1  0.15565528  0.06504365  0.93567248  1
  H+  H338  1  0.58603866  0.67675005  0.72057994  1
  H+  H339  1  0.66891211  0.31869861  0.56525172  1
  H+  H340  1  0.66973582  0.33503074  0.26235026  1
  H+  H341  1  0.82395015  0.91542693  0.05378840  1
  H+  H342  1  0.66832846  0.84199915  0.56137322  1
  H+  H343  1  0.12616438  0.27349334  0.17683100  1
  H+  H344  1  0.91069567  0.82117012  0.21547605  1
  H+  H345  1  0.58792417  0.93247551  0.43713195  1
  H+  H346  1  0.33842583  0.92213968  0.39408329  1
  H+  H347  1  0.34178076  0.91433159  0.76072702  1
  H+  H348  1  0.32390123  0.16792884  0.06596325  1
  H+  H349  1  0.83429187  0.42474625  0.05928466  1
  H+  H350  1  0.07684704  0.42093230  0.77184819  1
  H+  H351  1  0.52083265  0.64089971  -0.00582469  1
  H+  H352  1  0.19259804  0.62761839  0.25266919  1
  H+  H353  1  0.65317887  0.07820567  0.94264885  1
  H+  H354  1  0.57841554  0.65469885  0.44375730  1
  H+  H355  1  0.85408849  0.18445862  0.06270199  1
  H+  H356  1  0.90544111  0.06479983  0.88722660  1
  H+  H357  1  0.98767986  0.59714590  0.65179626  1
  H+  H358  1  0.16309942  0.33983162  0.60826810  1
  H+  H359  1  0.91770655  0.33537744  0.60259684  1
  H+  H360  1  0.32147230  0.65860349  0.06322146  1
  H+  H361  1  0.42176497  0.08981612  0.22997818  1
  H+  H362  1  0.07592987  0.90137329  0.06552762  1
  H+  H363  1  0.82274812  0.13698754  0.37004427  1
  H+  H364  1  0.88580061  0.27518504  0.51471678  1
  H+  H365  1  0.02554290  0.12986666  0.50569802  1
  H+  H366  1  0.19139272  0.86433499  0.89182361  1
  H+  H367  1  0.13937577  0.77849505  0.17154887  1
  H+  H368  1  0.12565772  0.10508467  0.85122226  1
  H+  H369  1  0.59845844  0.73670108  0.81648946  1
  H+  H370  1  0.41665692  0.59294054  0.92595276  1
  H+  H371  1  0.40727599  0.33747168  0.26463397  1
  H+  H372  1  0.93656702  0.59894302  0.22072794  1
  H+  H373  1  0.56722614  0.61980515  0.07753033  1
  H+  H374  1  0.45893955  0.14543687  0.62317536  1
  H+  H375  1  0.92799408  0.35921653  0.91053077  1
  H+  H376  1  0.66966263  0.60302165  0.89312873  1
  H+  H377  1  0.17123430  0.09265322  0.60718107  1
  H+  H378  1  0.08836429  0.92037125  0.43738641  1
  H+  H379  1  0.41575945  0.33953745  0.90336353  1
  H+  H380  1  0.40400798  0.05850866  0.56089886  1
  H+  H381  1  0.83385664  0.67272708  0.06514424  1
  H+  H382  1  0.07136296  0.15339152  0.40365317  1
  H+  H383  1  0.41379187  0.60851450  0.59131111  1
  O2-  O384  1  0.08644740  0.17273475  0.13559078  1
  O2-  O385  1  0.08271225  0.16199896  0.48726342  1
  O2-  O386  1  0.08627781  0.16829978  0.82213519  1
  O2-  O387  1  0.08738716  0.42881522  0.15011652  1
  O2-  O388  1  0.08002571  0.42632526  0.50507467  1
  O2-  O389  1  0.07744259  0.42007957  0.81756047  1
  O2-  O390  1  0.09617403  0.68263088  0.13528629  1
  O2-  O391  1  0.08018435  0.66514477  0.48142324  1
  O2-  O392  1  0.08247823  0.64471530  0.79990590  1
  O2-  O393  1  0.08469803  0.91417229  0.14063834  1
  O2-  O394  1  0.08675925  0.92049885  0.48274670  1
  O2-  O395  1  0.09748795  0.92028533  0.80820172  1
  O2-  O396  1  0.33184607  0.17736000  0.14620502  1
  O2-  O397  1  0.34732212  0.17807153  0.49496147  1
  O2-  O398  1  0.34109219  0.18638530  0.80558792  1
  O2-  O399  1  0.31997825  0.41957089  0.16736023  1
  O2-  O400  1  0.33135670  0.41895206  0.47993106  1
  O2-  O401  1  0.32877930  0.42359735  0.82112137  1
  O2-  O402  1  0.35566153  0.68268767  0.14322072  1
  O2-  O403  1  0.33051396  0.67784108  0.47322384  1
  O2-  O404  1  0.32444224  0.66504666  0.80725438  1
  O2-  O405  1  0.32772210  0.91450382  0.14638018  1
  O2-  O406  1  0.33081066  0.91178268  0.46937912  1
  O2-  O407  1  0.34004983  0.90756514  0.80652505  1
  O2-  O408  1  0.64829563  0.20349021  0.11514807  1
  O2-  O409  1  0.58512554  0.16285747  0.47521830  1
  O2-  O410  1  0.58595103  0.15635927  0.83104960  1
  O2-  O411  1  0.57919094  0.39444794  0.12789420  1
  O2-  O412  1  0.57610868  0.40528412  0.48195772  1
  O2-  O413  1  0.58804438  0.43445373  0.82444599  1
  O2-  O414  1  0.56029251  0.58581352  0.11566083  1
  O2-  O415  1  0.56811714  0.67018104  0.48433448  1
  O2-  O416  1  0.57946635  0.67805791  0.80168092  1
  O2-  O417  1  0.57115363  0.92630543  0.15323337  1
  O2-  O418  1  0.58600237  0.92765551  0.48204091  1
  O2-  O419  1  0.63648808  0.90858935  0.81210461  1
  O2-  O420  1  0.83923545  0.17047901  0.14624308  1
  O2-  O421  1  0.82696689  0.15635910  0.50990832  1
  O2-  O422  1  0.80375350  0.20215968  0.80654100  1
  O2-  O423  1  0.84644864  0.42614331  0.13825970  1
  O2-  O424  1  0.82678474  0.41314324  0.47879198  1
  O2-  O425  1  0.83289026  0.41672461  0.81950406  1
  O2-  O426  1  0.83231829  0.67059145  0.11831052  1
  O2-  O427  1  0.83738029  0.66393697  0.47183104  1
  O2-  O428  1  0.83339967  0.65913544  0.80863162  1
  O2-  O429  1  0.84376822  0.92198702  0.13597249  1
  O2-  O430  1  0.83378350  0.90748085  0.47390500  1
  O2-  O431  1  0.77809215  0.87704247  0.82936718  1
  O2-  O432  1  0.16073801  0.08263764  0.17315338  1
  O2-  O433  1  0.17078159  0.08407389  0.52642065  1
  O2-  O434  1  0.14844507  0.06982688  0.86932874  1
  O2-  O435  1  0.14931169  0.33016980  0.19694669  1
  O2-  O436  1  0.17008338  0.33443697  0.53092107  1
  O2-  O437  1  0.16102887  0.33841072  0.86298534  1
  O2-  O438  1  0.18193033  0.60222198  0.17581524  1
  O2-  O439  1  0.17189335  0.59974018  0.52980282  1
  O2-  O440  1  0.16489824  0.58053900  0.85227919  1
  O2-  O441  1  0.16644083  0.83765940  0.18967242  1
  O2-  O442  1  0.16219388  0.83007625  0.51464267  1
  O2-  O443  1  0.19534302  0.86336382  0.84781465  1
  O2-  O444  1  0.41545164  0.08864120  0.18431108  1
  O2-  O445  1  0.41418945  0.07691241  0.51844293  1
  O2-  O446  1  0.41078253  0.10220336  0.86023680  1
  O2-  O447  1  0.40588948  0.34474584  0.18675948  1
  O2-  O448  1  0.41604620  0.33640082  0.52700025  1
  O2-  O449  1  0.41814493  0.34830160  0.85827273  1
  O2-  O450  1  0.39162478  0.58600217  0.20355804  1
  O2-  O451  1  0.40371687  0.59230360  0.50963608  1
  O2-  O452  1  0.41521342  0.59160930  0.84827612  1
  O2-  O453  1  0.40828783  0.83377443  0.18914352  1
  O2-  O454  1  0.41750773  0.84039035  0.52060793  1
  O2-  O455  1  0.40746471  0.82532762  0.84873823  1
  O2-  O456  1  0.66646757  0.08932407  0.18404757  1
  O2-  O457  1  0.66216936  0.08404214  0.53188392  1
  O2-  O458  1  0.66411189  0.06084273  0.86614037  1
  O2-  O459  1  0.68240777  0.34238572  0.18328139  1
  O2-  O460  1  0.66400534  0.32203817  0.52043254  1
  O2-  O461  1  0.67629689  0.35282755  0.84545683  1
  O2-  O462  1  0.68211351  0.57516003  0.17466055  1
  O2-  O463  1  0.67479075  0.56795965  0.53072726  1
  O2-  O464  1  0.66918549  0.60361116  0.84784674  1
  O2-  O465  1  0.68575648  0.87085994  0.18939319  1
  O2-  O466  1  0.66670485  0.84377316  0.51557263  1
  O2-  O467  1  0.58245498  0.83122738  0.84909713  1
  O2-  O468  1  0.92369422  0.08319449  0.17611400  1
  O2-  O469  1  0.90153168  0.05942881  0.53892526  1
  O2-  O470  1  0.90825154  0.04982228  0.84455062  1
  O2-  O471  1  0.91855775  0.33685035  0.18577399  1
  O2-  O472  1  0.90984410  0.33665064  0.52462285  1
  O2-  O473  1  0.92904216  0.36669516  0.86408397  1
  O2-  O474  1  0.94053436  0.59450274  0.17648275  1
  O2-  O475  1  0.91341658  0.57614463  0.51804451  1
  O2-  O476  1  0.91810330  0.58262122  0.85400522  1
  O2-  O477  1  0.91019284  0.82421050  0.17076796  1
  O2-  O478  1  0.91891039  0.82634422  0.51912765  1
  O2-  O479  1  0.95408178  0.80982073  0.85912556  1
  O2-  O480  1  0.16207043  0.05182122  0.29403824  1
  O2-  O481  1  0.16912692  0.09367718  0.65236167  1
  O2-  O482  1  0.15968046  0.06515917  0.98320670  1
  O2-  O483  1  0.14463067  0.31085297  0.31918053  1
  O2-  O484  1  0.15682361  0.34363250  0.65316884  1
  O2-  O485  1  0.16064071  0.35347606  0.98887855  1
  O2-  O486  1  0.20280195  0.64521875  0.29626598  1
  O2-  O487  1  0.13794787  0.59210829  0.65608697  1
  O2-  O488  1  0.16183694  0.59531589  0.97667659  1
  O2-  O489  1  0.17471417  0.83909215  0.31247087  1
  O2-  O490  1  0.18496242  0.86840818  0.62786062  1
  O2-  O491  1  0.13376779  0.78630813  0.99537235  1
  O2-  O492  1  0.42215918  0.08845936  0.30629115  1
  O2-  O493  1  0.43226886  0.11028008  0.65901923  1
  O2-  O494  1  0.39032320  0.06359603  0.98596722  1
  O2-  O495  1  0.40454473  0.32773555  0.30954047  1
  O2-  O496  1  0.40697666  0.33339759  0.64678861  1
  O2-  O497  1  0.41542406  0.33238853  0.98055176  1
  O2-  O498  1  0.38394654  0.54344021  0.32264199  1
  O2-  O499  1  0.42715452  0.62175637  0.63502550  1
  O2-  O500  1  0.41874385  0.59058695  0.97144649  1
  O2-  O501  1  0.42185324  0.84282935  0.31400153  1
  O2-  O502  1  0.41997715  0.84241003  0.64912954  1
  O2-  O503  1  0.37980063  0.81676674  0.96412259  1
  O2-  O504  1  0.66128335  0.08929710  0.30295735  1
  O2-  O505  1  0.65980232  0.07777656  0.65704789  1
  O2-  O506  1  0.64208731  0.08504208  0.98604048  1
  O2-  O507  1  0.66354480  0.33122674  0.30753354  1
  O2-  O508  1  0.68322006  0.31486932  0.64419058  1
  O2-  O509  1  0.65658681  0.33041527  0.96399549  1
  O2-  O510  1  0.69221934  0.64616923  0.29032622  1
  O2-  O511  1  0.66819005  0.58124407  0.64796659  1
  O2-  O512  1  0.66407378  0.58651447  0.97176176  1
  O2-  O513  1  0.69054726  0.79447741  0.29728791  1
  O2-  O514  1  0.67130398  0.84050347  0.63797700  1
  O2-  O515  1  0.65629254  0.84030757  0.97121144  1
  O2-  O516  1  0.91425170  0.06470445  0.29850008  1
  O2-  O517  1  0.93059939  0.09735193  0.66715534  1
  O2-  O518  1  0.90987141  0.08374545  0.97253248  1
  O2-  O519  1  0.91093925  0.31927360  0.31022128  1
  O2-  O520  1  0.92183720  0.33312462  0.64770193  1
  O2-  O521  1  0.92525341  0.34973943  0.97957548  1
  O2-  O522  1  0.93157983  0.61464543  0.30558322  1
  O2-  O523  1  0.92531359  0.57505028  0.64061777  1
  O2-  O524  1  0.92010947  0.59787504  0.97320102  1
  O2-  O525  1  0.95214141  0.86620054  0.29689899  1
  O2-  O526  1  0.91889229  0.83175277  0.64491871  1
  O2-  O527  1  0.90724514  0.83054286  0.97707892  1
  O2-  O528  1  0.08225635  0.14956577  0.00799395  1
  O2-  O529  1  0.07499302  0.15317430  0.35882715  1
  O2-  O530  1  0.09632540  0.18315029  0.69940683  1
  O2-  O531  1  0.08324356  0.43785586  0.02720784  1
  O2-  O532  1  0.04143102  0.33863497  0.39356735  1
  O2-  O533  1  0.07888458  0.42869533  0.69462482  1
  O2-  O534  1  0.09496428  0.69720066  0.01706687  1
  O2-  O535  1  0.09331703  0.67951094  0.35668609  1
  O2-  O536  1  0.08770105  0.63054142  0.67793329  1
  O2-  O537  1  0.06905731  0.89602027  0.02013597  1
  O2-  O538  1  0.08947843  0.91236595  0.35842753  1
  O2-  O539  1  0.08649416  0.92333426  0.68460698  1
  O2-  O540  1  0.32394438  0.16468375  0.02084551  1
  O2-  O541  1  0.33040536  0.16666176  0.33306822  1
  O2-  O542  1  0.33567169  0.17011930  0.69159284  1
  O2-  O543  1  0.34087762  0.42191638  0.01038448  1
  O2-  O544  1  0.30724205  0.38418898  0.35842817  1
  O2-  O545  1  0.30371265  0.36651385  0.70254712  1
  O2-  O546  1  0.32305523  0.65676294  0.01808763  1
  O2-  O547  1  0.33307865  0.68839192  0.35553364  1
  O2-  O548  1  0.31617579  0.67974134  0.68615253  1
  O2-  O549  1  0.29974594  0.89557067  0.02338605  1
  O2-  O550  1  0.34067285  0.92403284  0.34831668  1
  O2-  O551  1  0.34481550  0.93012009  0.68752749  1
  O2-  O552  1  0.56383918  0.16265994  0.01506972  1
  O2-  O553  1  0.58500295  0.17011528  0.35002076  1
  O2-  O554  1  0.59563058  0.17014154  0.70546643  1
  O2-  O555  1  0.58319273  0.41722424  0.00997353  1
  O2-  O556  1  0.57213204  0.40663018  0.36017082  1
  O2-  O557  1  0.56672281  0.43512468  0.69991038  1
  O2-  O558  1  0.58117745  0.66992625  0.01084101  1
  O2-  O559  1  0.55442126  0.60912740  0.36278134  1
  O2-  O560  1  0.59021290  0.67672603  0.67538209  1
  O2-  O561  1  0.57687468  0.92616954  0.02627965  1
  O2-  O562  1  0.58762452  0.93839008  0.35502255  1
  O2-  O563  1  0.58928351  0.91363012  0.69678234  1
  O2-  O564  1  0.86297730  0.19555960  0.01866162  1
  O2-  O565  1  0.82302374  0.14477752  0.32634383  1
  O2-  O566  1  0.83244572  0.17125313  0.68364680  1
  O2-  O567  1  0.82995361  0.42201431  0.01393845  1
  O2-  O568  1  0.82244186  0.39216155  0.36176327  1
  O2-  O569  1  0.84683361  0.41513831  0.69399482  1
  O2-  O570  1  0.83592990  0.67404397  0.00833133  1
  O2-  O571  1  0.83824675  0.67978682  0.35245370  1
  O2-  O572  1  0.84014849  0.66245498  0.68384839  1
  O2-  O573  1  0.82392223  0.91476502  0.00871144  1
  O2-  O574  1  0.84257911  0.90571168  0.35133074  1
  O2-  O575  1  0.84476575  0.93362295  0.64695119  1
