# generated using pymatgen
data_H2O
_symmetry_space_group_name_H-M   'P 1'
_cell_length_a   17.98250755
_cell_length_b   17.97611534
_cell_length_c   21.98370027
_cell_angle_alpha   89.94806153
_cell_angle_beta   90.03757844
_cell_angle_gamma   120.01547935
_symmetry_Int_Tables_number   1
_chemical_formula_structural   H2O
_chemical_formula_sum   'H384 O192'
_cell_volume   6153.32098474
_cell_formula_units_Z   192
loop_
 _symmetry_equiv_pos_site_id
 _symmetry_equiv_pos_as_xyz
  1  'x, y, z'
loop_
 _atom_type_symbol
 _atom_type_oxidation_number
  H+  1.0
  O2-  -2.0
loop_
 _atom_site_type_symbol
 _atom_site_label
 _atom_site_symmetry_multiplicity
 _atom_site_fract_x
 _atom_site_fract_y
 _atom_site_fract_z
 _atom_site_occupancy
  H+  H0  1  0.99407233  0.37420072  0.70135231  1
  H+  H1  1  0.86694257  0.38915871  1.00106591  1
  H+  H2  1  0.37962188  0.27649288  0.50757433  1
  H+  H3  1  0.74653669  0.11882998  0.17645442  1
  H+  H4  1  0.35927293  0.85169124  0.35509106  1
  H+  H5  1  0.38638743  0.52854555  0.51393463  1
  H+  H6  1  0.64612687  0.61087085  -0.00827700  1
  H+  H7  1  0.11329095  0.89811622  0.02862919  1
  H+  H8  1  0.61374808  0.73370247  0.33615821  1
  H+  H9  1  0.87323988  0.46833590  0.15272492  1
  H+  H10  1  0.28664588  0.68120056  0.83034938  1
  H+  H11  1  0.88665236  0.15997370  0.52412384  1
  H+  H12  1  0.36251256  0.37922009  0.83069888  1
  H+  H13  1  0.87901860  0.99477390  0.00239823  1
  H+  H14  1  0.88412347  0.24139365  0.70341083  1
  H+  H15  1  0.02499377  0.89666822  0.01680208  1
  H+  H16  1  0.74257200  0.17621689  0.48191097  1
  H+  H17  1  0.88134302  0.15002371  0.68625342  1
  H+  H18  1  0.39800049  0.27944630  0.99676043  1
  H+  H19  1  0.36500602  0.63722135  0.67774256  1
  H+  H20  1  0.48001646  0.85710590  0.33280044  1
  H+  H21  1  0.85574286  0.39151098  0.35418217  1
  H+  H22  1  0.33808342  0.35758050  0.33869099  1
  H+  H23  1  0.10377497  0.48604153  0.50398421  1
  H+  H24  1  0.89218473  1.02941926  0.84946291  1
  H+  H25  1  0.60212819  0.42374534  0.06408433  1
  H+  H26  1  0.63189735  0.87448015  0.16962849  1
  H+  H27  1  0.13593652  0.11502800  0.49932019  1
  H+  H28  1  0.89583954  0.77539261  0.84583192  1
  H+  H29  1  0.32685072  0.65736510  0.40781778  1
  H+  H30  1  0.21621878  0.12689881  0.32759573  1
  H+  H31  1  0.14712986  0.63417700  0.83691931  1
  H+  H32  1  0.22298050  0.59707196  0.16964966  1
  H+  H33  1  0.92802323  0.30190190  0.25825421  1
  H+  H34  1  0.36423112  0.71817492  0.34952809  1
  H+  H35  1  0.82835055  0.40155466  0.06278545  1
  H+  H36  1  0.62333262  0.22610918  0.81557479  1
  H+  H37  1  0.22411722  0.84378835  0.33930123  1
  H+  H38  1  0.89074545  0.77975017  0.17949846  1
  H+  H39  1  0.75176184  0.13188104  0.34350529  1
  H+  H40  1  0.38897398  0.52533463  0.66854678  1
  H+  H41  1  0.14074195  0.80364338  0.58748894  1
  H+  H42  1  0.89088442  0.03378219  0.67791566  1
  H+  H43  1  0.58538902  0.42219940  0.72821372  1
  H+  H44  1  0.85471315  0.20537123  0.33800690  1
  H+  H45  1  0.63491686  0.14832677  0.16677139  1
  H+  H46  1  0.12826090  0.62461920  0.51127230  1
  H+  H47  1  0.12999614  0.73628323  0.98727431  1
  H+  H48  1  0.88607092  0.52259073  0.32760750  1
  H+  H49  1  0.14616507  0.49810532  0.34906293  1
  H+  H50  1  0.78621459  0.64992869  0.16301883  1
  H+  H51  1  0.60898625  0.47837598  0.49691913  1
  H+  H52  1  0.86407893  0.12354120  0.83437242  1
  H+  H53  1  0.90354010  0.01222171  0.51552171  1
  H+  H54  1  0.12888619  0.03702037  0.32841199  1
  H+  H55  1  0.99696592  0.13285032  0.98832530  1
  H+  H56  1  0.60860135  0.24084248  0.49544456  1
  H+  H57  1  0.23301004  0.11366395  0.65529068  1
  H+  H58  1  0.38920692  0.77117829  0.53293347  1
  H+  H59  1  0.26033319  0.84071368  0.01611266  1
  H+  H60  1  0.76973064  0.40411960  0.49655383  1
  H+  H61  1  0.13294748  0.85458982  0.64499037  1
  H+  H62  1  0.92535393  0.58221550  0.10730714  1
  H+  H63  1  0.38422654  -0.00413790  0.84628748  1
  H+  H64  1  -0.03694952  0.11203338  0.31371754  1
  H+  H65  1  0.07922178  0.23281210  0.15479884  1
  H+  H66  1  0.37821417  0.27748318  0.31629962  1
  H+  H67  1  0.54112132  0.88268759  0.90857356  1
  H+  H68  1  0.36508673  0.83554156  0.61880615  1
  H+  H69  1  0.53988929  0.77784601  1.06255622  1
  H+  H70  1  0.86512525  0.39926099  0.82812298  1
  H+  H71  1  0.36011099  0.37922376  1.00301127  1
  H+  H72  1  0.08415133  0.22413196  0.33106443  1
  H+  H73  1  0.74979127  0.13920167  0.65401742  1
  H+  H74  1  0.11229420  0.72909905  0.81590590  1
  H+  H75  1  0.87368056  0.28210147  0.84204125  1
  H+  H76  1  0.63491788  0.62035576  0.50351526  1
  H+  H77  1  0.14472631  0.09798753  0.84503227  1
  H+  H78  1  0.56854655  0.82528235  0.06754599  1
  H+  H79  1  0.14713436  1.03514077  0.00475202  1
  H+  H80  1  0.36647795  0.94102733  0.36306545  1
  H+  H81  1  0.65153820  0.28123895  0.17583893  1
  H+  H82  1  0.77460488  0.39889829  0.82786549  1
  H+  H83  1  0.16657303  0.55752859  0.83282339  1
  H+  H84  1  0.11570061  0.62652368  0.33093706  1
  H+  H85  1  0.10161418  0.47848799  0.16113491  1
  H+  H86  1  0.73477040  0.86695687  0.85169094  1
  H+  H87  1  0.12352982  0.38953604  0.67264198  1
  H+  H88  1  0.73068058  0.37110981  0.65663643  1
  H+  H89  1  0.09074485  0.13925655  0.33573159  1
  H+  H90  1  0.79119374  0.90169216  0.00523879  1
  H+  H91  1  0.37023739  0.92451632  0.89186718  1
  H+  H92  1  0.47569721  0.36341548  0.66292779  1
  H+  H93  1  0.83068422  0.43205622  0.40973197  1
  H+  H94  1  0.59811119  0.00024651  1.01539465  1
  H+  H95  1  -0.01160695  0.85774494  0.86264626  1
  H+  H96  1  0.58634352  0.92864789  0.39440922  1
  H+  H97  1  0.86737967  0.73465678  0.66477325  1
  H+  H98  1  0.72334891  0.37089949  0.33302499  1
  H+  H99  1  0.61812242  0.47804274  0.82304449  1
  H+  H100  1  0.11722016  0.90338086  0.17140583  1
  H+  H101  1  0.13852364  0.36995288  0.32356125  1
  H+  H102  1  0.83812416  0.26621696  0.47987744  1
  H+  H103  1  0.86044320  0.88913895  0.47771137  1
  H+  H104  1  0.89878606  0.87813103  1.00118304  1
  H+  H105  1  0.90608416  0.12945466  0.99292323  1
  H+  H106  1  0.41662125  0.33112358  0.15339843  1
  H+  H107  1  0.87118839  0.89599745  0.33182358  1
  H+  H108  1  0.64052770  0.85963030  0.85834227  1
  H+  H109  1  0.63646857  0.37305167  0.50654800  1
  H+  H110  1  0.47608988  0.60156459  0.84263121  1
  H+  H111  1  0.34503460  0.16162127  0.06451728  1
  H+  H112  1  0.12672511  0.20277798  0.83416218  1
  H+  H113  1  0.34230576  0.68641543  0.72994070  1
  H+  H114  1  0.52087240  0.14947163  0.33774448  1
  H+  H115  1  0.48220384  0.59753175  -0.00363358  1
  H+  H116  1  0.64639639  0.40335174  0.16223351  1
  H+  H117  1  0.61730982  0.13025489  0.00826160  1
  H+  H118  1  0.22883527  0.61539335  0.66056202  1
  H+  H119  1  -0.05114610  0.14134681  0.15554436  1
  H+  H120  1  0.97538456  0.86895914  0.49104465  1
  H+  H121  1  0.34955669  0.00894446  1.00062573  1
  H+  H122  1  0.37570977  0.01549334  0.64642754  1
  H+  H123  1  0.88845629  0.63089599  0.50732145  1
  H+  H124  1  0.38634023  0.03408102  0.50681925  1
  H+  H125  1  0.02419010  0.62384032  0.02057703  1
  H+  H126  1  0.28174989  0.13450498  0.82976630  1
  H+  H127  1  0.88809562  0.62224455  0.82696605  1
  H+  H128  1  0.62252037  0.38956831  0.00264327  1
  H+  H129  1  0.78083418  0.64531545  1.00366270  1
  H+  H130  1  0.41466184  0.16288646  -0.01262327  1
  H+  H131  1  0.62703646  0.01254105  0.85312783  1
  H+  H132  1  0.14497951  0.78121222  0.17191141  1
  H+  H133  1  0.28022687  0.89675065  0.16481930  1
  H+  H134  1  0.50349975  0.91758436  0.01105696  1
  H+  H135  1  0.37936387  0.36480011  0.51419426  1
  H+  H136  1  0.12024041  0.81553100  0.96301969  1
  H+  H137  1  0.59424800  0.66324552  0.06871340  1
  H+  H138  1  0.23304259  0.62227198  0.32745467  1
  H+  H139  1  0.48756803  0.86302793  0.64515011  1
  H+  H140  1  0.88537125  0.78046988  0.33000969  1
  H+  H141  1  0.93464181  0.35111785  0.76028633  1
  H+  H142  1  0.85226476  0.04089655  0.15252753  1
  H+  H143  1  0.77054680  0.86835475  0.69976448  1
  H+  H144  1  0.65785680  0.54385573  0.17298786  1
  H+  H145  1  0.56115437  0.93869627  0.10939454  1
  H+  H146  1  0.14216271  0.24561397  0.01301732  1
  H+  H147  1  0.61091542  0.48220524  0.66917540  1
  H+  H148  1  0.13649033  0.84885993  0.33302916  1
  H+  H149  1  0.18593411  0.81954105  0.49912235  1
  H+  H150  1  0.62630090  0.02555252  0.32493495  1
  H+  H151  1  0.92819229  0.10179740  0.90128593  1
  H+  H152  1  0.64239125  0.37046484  0.65569281  1
  H+  H153  1  0.10224897  0.92713939  0.28532274  1
  H+  H154  1  0.39049324  0.52721738  0.33597145  1
  H+  H155  1  0.86038464  0.73385754  0.48842196  1
  H+  H156  1  0.88686941  0.52645162  0.83251508  1
  H+  H157  1  0.15537130  0.12750270  1.00184569  1
  H+  H158  1  0.37686578  0.04837885  0.31324417  1
  H+  H159  1  0.36505579  0.22586965  0.67405567  1
  H+  H160  1  0.63604169  0.78069801  0.49197481  1
  H+  H161  1  0.39966353  0.12993459  0.83595265  1
  H+  H162  1  0.47475387  0.12553671  0.50409786  1
  H+  H163  1  0.41948690  0.58825936  0.57297664  1
  H+  H164  1  0.62251832  -0.00543203  0.48182227  1
  H+  H165  1  0.40941744  0.76869953  0.98708630  1
  H+  H166  1  0.07635479  0.66590321  0.75714422  1
  H+  H167  1  0.60812789  0.39450666  0.30923789  1
  H+  H168  1  0.12735408  0.98249276  0.66030315  1
  H+  H169  1  0.12843501  0.36513602  0.51307059  1
  H+  H170  1  0.22982418  0.33757433  0.85617505  1
  H+  H171  1  0.10984059  1.04161163  0.17671139  1
  H+  H172  1  0.63851690  0.36341015  0.82945842  1
  H+  H173  1  0.72368257  0.61971016  0.50352570  1
  H+  H174  1  0.50963062  0.86030317  0.84306872  1
  H+  H175  1  0.63608549  0.27997900  0.32940996  1
  H+  H176  1  0.03164772  0.12684124  0.82673131  1
  H+  H177  1  0.40303725  0.02611434  0.17071311  1
  H+  H178  1  0.09385072  0.15976062  0.73543746  1
  H+  H179  1  0.73125241  0.36102790  0.98659730  1
  H+  H180  1  0.89211797  0.54446594  0.50628767  1
  H+  H181  1  0.51990546  0.39608428  0.30505357  1
  H+  H182  1  0.52203488  0.38961482  0.50071585  1
  H+  H183  1  0.11884563  0.13340168  0.67225530  1
  H+  H184  1  0.58798828  0.67372092  0.76422025  1
  H+  H185  1  0.63767928  0.53268891  0.31087170  1
  H+  H186  1  0.37101629  0.64263195  0.49985306  1
  H+  H187  1  0.14159036  0.61261077  0.17039838  1
  H+  H188  1  0.87280948  0.00132888  0.31907356  1
  H+  H189  1  0.78267970  0.38275461  0.16219881  1
  H+  H190  1  0.36122191  0.14507381  0.48779799  1
  H+  H191  1  0.64151008  0.62328887  0.32532524  1
  H+  H192  1  0.65117293  0.52564968  0.98847498  1
  H+  H193  1  0.07772249  0.41988422  0.82913908  1
  H+  H194  1  0.14034087  0.27093215  0.66315624  1
  H+  H195  1  0.06875701  0.16722297  0.43361649  1
  H+  H196  1  0.27557279  0.38808375  0.67654161  1
  H+  H197  1  0.88069032  0.52217477  1.01881054  1
  H+  H198  1  0.26534517  0.39124612  0.50183653  1
  H+  H199  1  0.86486876  0.64466655  0.66790865  1
  H+  H200  1  0.20190589  0.35809674  0.15930403  1
  H+  H201  1  0.84016746  0.93148115  0.39081675  1
  H+  H202  1  0.61109967  0.86972007  0.64212854  1
  H+  H203  1  0.88451682  0.34674047  0.16749934  1
  H+  H204  1  0.52251632  0.64327858  0.49387827  1
  H+  H205  1  0.86384411  0.64262962  0.33670162  1
  H+  H206  1  0.97870717  0.33101689  0.32096015  1
  H+  H207  1  0.84184376  0.68072523  0.10227849  1
  H+  H208  1  0.90910701  0.88189150  0.64844895  1
  H+  H209  1  0.61915307  0.65105667  0.66636562  1
  H+  H210  1  0.12669780  0.87714001  0.86008686  1
  H+  H211  1  0.10515073  0.66975014  0.09827363  1
  H+  H212  1  0.35556561  0.15175378  0.33064543  1
  H+  H213  1  0.12922269  0.27586124  0.50560420  1
  H+  H214  1  0.61645010  0.72457375  0.82711279  1
  H+  H215  1  0.04040896  0.64428720  0.15306905  1
  H+  H216  1  0.35106492  0.84625185  0.01354440  1
  H+  H217  1  0.70987985  0.90568988  0.63044163  1
  H+  H218  1  0.34136116  0.99427033  -0.03194565  1
  H+  H219  1  0.26734920  0.30480381  0.38729808  1
  H+  H220  1  0.77444258  0.64188538  0.33669927  1
  H+  H221  1  0.62498940  0.71626419  1.00767821  1
  H+  H222  1  0.20636182  0.34082040  0.31897630  1
  H+  H223  1  0.60548539  0.14143501  0.34066007  1
  H+  H224  1  0.84229025  0.12419080  0.53165804  1
  H+  H225  1  0.20023708  0.47389285  0.39163037  1
  H+  H226  1  0.40308106  0.81175964  0.92463763  1
  H+  H227  1  1.01770307  0.62403472  0.33010125  1
  H+  H228  1  0.33130290  0.19332497  0.15459621  1
  H+  H229  1  0.11885555  0.32811917  0.92688816  1
  H+  H230  1  0.50161098  0.14525206  -0.01157183  1
  H+  H231  1  0.74404200  0.12298119  0.99583342  1
  H+  H232  1  0.72513320  0.62137331  0.65580713  1
  H+  H233  1  0.11182877  0.71881827  0.33789317  1
  H+  H234  1  0.62350594  0.12240149  0.50644742  1
  H+  H235  1  0.38791207  0.63901718  0.00476368  1
  H+  H236  1  0.52872347  0.38846675  0.82475222  1
  H+  H237  1  0.65026220  0.03680383  0.17779647  1
  H+  H238  1  0.52303945  0.90785515  0.17553024  1
  H+  H239  1  0.32439811  0.45807731  0.13766224  1
  H+  H240  1  0.52569332  0.64396190  0.33959776  1
  H+  H241  1  1.00538089  0.37811115  0.15922386  1
  H+  H242  1  0.50615949  0.09217435  0.67463027  1
  H+  H243  1  0.61398651  0.73789089  0.66369712  1
  H+  H244  1  0.72547794  0.86905453  0.32060629  1
  H+  H245  1  0.13598167  1.02583265  0.49863806  1
  H+  H246  1  0.87948066  0.23152768  0.01166435  1
  H+  H247  1  0.88704540  0.52984276  0.65906958  1
  H+  H248  1  0.43579500  0.53473004  0.19082908  1
  H+  H249  1  0.38025343  0.61077575  0.33701658  1
  H+  H250  1  0.36862706  0.83255191  0.81842214  1
  H+  H251  1  0.10131598  0.60544769  1.00254700  1
  H+  H252  1  0.97619779  0.37798310  0.50840341  1
  H+  H253  1  0.36850877  0.12895020  0.15342585  1
  H+  H254  1  0.36443622  0.13563817  0.67235543  1
  H+  H255  1  0.01772068  0.88292842  0.32462001  1
  H+  H256  1  0.26136585  0.87111663  0.64350197  1
  H+  H257  1  0.36496835  0.62583159  0.16282775  1
  H+  H258  1  0.10351688  0.38612972  0.15777579  1
  H+  H259  1  0.99122810  0.87208537  0.64782302  1
  H+  H260  1  0.33484631  0.33979882  0.15826370  1
  H+  H261  1  0.24684785  0.86303361  0.83977849  1
  H+  H262  1  0.39441316  0.27399421  0.84042224  1
  H+  H263  1  0.61230980  0.89484702  0.33388514  1
  H+  H264  1  0.65217879  0.11615317  0.65477060  1
  H+  H265  1  0.47746333  0.61662387  0.66569871  1
  H+  H266  1  0.86961402  0.73662609  1.00874210  1
  H+  H267  1  0.64867085  0.84590164  1.00143691  1
  H+  H268  1  0.28835822  0.14033827  0.00331476  1
  H+  H269  1  1.01833820  0.63169684  0.66825940  1
  H+  H270  1  0.77956116  0.64100074  0.82071731  1
  H+  H271  1  0.76309127  0.11580667  0.82959869  1
  H+  H272  1  0.48596339  0.36971187  0.99590083  1
  H+  H273  1  0.35031422  0.70608409  0.16457971  1
  H+  H274  1  0.77289533  0.89289740  0.47848329  1
  H+  H275  1  0.64057106  0.27593033  -0.01523181  1
  H+  H276  1  0.67091909  0.34311657  0.56468716  1
  H+  H277  1  0.54399361  0.65711046  0.16546877  1
  H+  H278  1  0.56401269  0.40973210  0.16943446  1
  H+  H279  1  0.76661316  0.92075986  0.15312538  1
  H+  H280  1  0.97516244  0.87170636  0.18409524  1
  H+  H281  1  1.02974798  0.12928208  0.49980280  1
  H+  H282  1  0.36387971  0.38759898  0.67881080  1
  H+  H283  1  0.63264673  0.65685159  0.16327457  1
  H+  H284  1  0.10858253  0.71874202  0.66623367  1
  H+  H285  1  0.87494981  0.39982280  0.69017166  1
  H+  H286  1  0.87841880  0.89220703  0.84574046  1
  H+  H287  1  0.13714342  0.61064769  0.66102238  1
  H+  H288  1  0.41167093  0.33100282  0.60610120  1
  H+  H289  1  0.91287367  0.83621597  0.26685152  1
  H+  H290  1  0.89374182  0.08138536  0.25540340  1
  H+  H291  1  0.32905553  0.17731205  0.39392920  1
  H+  H292  1  0.27038489  0.14100386  0.48681060  1
  H+  H293  1  0.35838201  0.46672581  0.00204969  1
  H+  H294  1  0.63616665  0.10561022  0.83895251  1
  H+  H295  1  0.06978504  0.13959613  0.15969958  1
  H+  H296  1  0.62299126  0.90559897  0.47979383  1
  H+  H297  1  0.68041956  0.60272625  0.23285962  1
  H+  H298  1  0.92140112  0.84491234  0.55237045  1
  H+  H299  1  0.02795155  0.67082940  0.49993835  1
  H+  H300  1  0.09615801  0.86664103  0.47891363  1
  H+  H301  1  0.38693900  0.51386089  0.84668123  1
  H+  H302  1  0.89723569  0.61911839  0.15967732  1
  H+  H303  1  0.66273998  0.84275079  0.54862508  1
  H+  H304  1  0.66655761  0.84273429  0.26180472  1
  H+  H305  1  0.33445554  0.90032537  0.10694514  1
  H+  H306  1  0.66720535  0.09215144  0.26888328  1
  H+  H307  1  0.91436440  0.57537264  0.26492677  1
  H+  H308  1  0.83416462  0.43421601  0.73579840  1
  H+  H309  1  0.30885077  0.89581396  0.44696888  1
  H+  H310  1  0.88789169  0.61655517  1.02229668  1
  H+  H311  1  0.57656678  0.17984348  0.43613218  1
  H+  H312  1  0.52750659  0.87245609  0.71045994  1
  H+  H313  1  0.32461739  0.40657107  0.77484090  1
  H+  H314  1  0.97639564  0.37039840  1.02477585  1
  H+  H315  1  0.18410710  0.08967653  0.90821758  1
  H+  H316  1  0.17332635  0.58569641  0.26537523  1
  H+  H317  1  0.49188940  0.12994796  0.83556039  1
  H+  H318  1  0.80233544  0.19442359  0.41027949  1
  H+  H319  1  0.84074253  0.67694063  0.76150288  1
  H+  H320  1  0.33582218  0.16590564  0.76675147  1
  H+  H321  1  0.64623024  0.79257518  0.16685468  1
  H+  H322  1  0.67954066  0.82629488  0.93853697  1
  H+  H323  1  0.15291438  0.57140873  0.93090039  1
  H+  H324  1  0.32689724  0.89170679  0.69708833  1
  H+  H325  1  0.83150132  0.66975822  0.43199063  1
  H+  H326  1  0.13435703  0.10427351  0.23232023  1
  H+  H327  1  0.29338905  0.76147349  0.22214010  1
  H+  H328  1  0.35404806  0.84350589  0.18453740  1
  H+  H329  1  0.64296715  0.61439651  0.83310048  1
  H+  H330  1  0.35660027  0.67155179  0.06165375  1
  H+  H331  1  0.08755101  0.91529372  0.42162405  1
  H+  H332  1  0.59699340  0.16792947  0.10709542  1
  H+  H333  1  0.83408205  0.95286903  0.09467214  1
  H+  H334  1  0.45276311  0.13933075  0.91980710  1
  H+  H335  1  0.84364334  0.92290307  0.78963529  1
  H+  H336  1  0.16054132  0.58972682  0.56606331  1
  H+  H337  1  0.17023910  0.83087489  0.23487820  1
  H+  H338  1  0.15095232  0.33654593  0.22485969  1
  H+  H339  1  0.93519915  0.06599490  0.57794509  1
  H+  H340  1  0.18356356  0.80727690  0.89216528  1
  H+  H341  1  0.41819392  0.09021782  0.59785724  1
  H+  H342  1  0.12410804  0.48050602  0.66832067  1
  H+  H343  1  0.38692177  0.32855152  0.25492498  1
  H+  H344  1  0.16636264  0.32928520  0.60297605  1
  H+  H345  1  0.66478728  0.59161089  0.59680741  1
  H+  H346  1  0.42204587  0.10277300  0.25538254  1
  H+  H347  1  0.36910180  0.75162496  0.63720250  1
  H+  H348  1  0.30595383  0.39883793  0.07716138  1
  H+  H349  1  0.12017827  0.44830736  0.76424482  1
  H+  H350  1  0.75522689  0.93856385  0.72759044  1
  H+  H351  1  0.08184270  0.93159510  0.11540179  1
  H+  H352  1  0.83335130  0.15727952  0.76679049  1
  H+  H353  1  0.17270443  0.08584673  0.59491357  1
  H+  H354  1  0.42817220  0.58939344  0.24321475  1
  H+  H355  1  0.12585206  0.96468778  0.86922544  1
  H+  H356  1  0.09749523  0.91793549  0.71686441  1
  H+  H357  1  0.98606581  0.11564917  0.67228317  1
  H+  H358  1  0.53514705  0.06285930  0.03842683  1
  H+  H359  1  0.42348843  0.57236166  0.93587753  1
  H+  H360  1  0.26500461  0.94835022  0.46349395  1
  H+  H361  1  0.84907753  0.16612644  0.06932028  1
  H+  H362  1  0.98472257  0.62362451  0.82539598  1
  H+  H363  1  0.91666777  0.59226885  0.59964548  1
  H+  H364  1  0.07535585  0.48516392  -0.04298375  1
  H+  H365  1  0.91015206  0.34158051  0.56419552  1
  H+  H366  1  0.57913780  0.67035891  0.43211226  1
  H+  H367  1  0.42560018  0.33467339  0.89972308  1
  H+  H368  1  0.68345733  0.09321748  0.93580730  1
  H+  H369  1  0.08599860  0.18399286  0.06684106  1
  H+  H370  1  0.49310322  0.11719047  0.17188864  1
  H+  H371  1  0.32555873  0.41714251  0.44378751  1
  H+  H372  1  0.68017911  0.34043842  0.23588147  1
  H+  H373  1  0.67627755  0.10386500  0.55837986  1
  H+  H374  1  0.92501680  0.84191155  0.94294154  1
  H+  H375  1  0.94708073  0.36059686  0.88360011  1
  H+  H376  1  0.08562248  0.42626081  0.44621625  1
  H+  H377  1  0.86159601  0.40875146  0.49764116  1
  H+  H378  1  0.53772850  0.03020314  0.69924596  1
  H+  H379  1  0.89206737  0.25807489  0.16516977  1
  H+  H380  1  0.58278440  0.14730412  0.76545284  1
  H+  H381  1  0.66793366  0.33260337  0.88843819  1
  H+  H382  1  0.40620670  0.81669973  0.27921480  1
  H+  H383  1  0.67498117  0.58622328  0.89250051  1
  O2-  O384  1  0.04445782  0.17301001  0.13874370  1
  O2-  O385  1  0.08403594  0.17108163  0.47719739  1
  O2-  O386  1  0.09064875  0.14653862  0.81237024  1
  O2-  O387  1  0.07038785  0.41712092  0.14423271  1
  O2-  O388  1  0.07623497  0.42297058  0.49059948  1
  O2-  O389  1  0.12960235  0.46233199  0.80841882  1
  O2-  O390  1  0.10352598  0.67435291  0.14410508  1
  O2-  O391  1  0.08982978  0.70218526  0.48541400  1
  O2-  O392  1  0.07336267  0.66805456  0.80323470  1
  O2-  O393  1  0.08406218  0.93201626  0.16078026  1
  O2-  O394  1  0.08311952  0.91200417  0.46610592  1
  O2-  O395  1  0.09258786  0.90171805  0.87722028  1
  O2-  O396  1  0.32788222  0.14351853  0.13338450  1
  O2-  O397  1  0.33057787  0.17413266  0.47092662  1
  O2-  O398  1  0.34128683  0.16772711  0.81223265  1
  O2-  O399  1  0.29560820  0.39751086  0.12629094  1
  O2-  O400  1  0.32718969  0.42229144  0.48841412  1
  O2-  O401  1  0.32408840  0.40259428  0.82017310  1
  O2-  O402  1  0.32855293  0.64811847  0.14664395  1
  O2-  O403  1  0.33752445  0.66868165  0.48181946  1
  O2-  O404  1  0.34600340  0.71365583  0.80998021  1
  O2-  O405  1  0.34048178  0.91691356  0.15152722  1
  O2-  O406  1  0.28861543  0.91542777  0.48241069  1
  O2-  O407  1  0.36014750  0.93229294  0.84931754  1
  O2-  O408  1  0.60075828  0.17536445  0.15183798  1
  O2-  O409  1  0.57388570  0.17904640  0.48141847  1
  O2-  O410  1  0.59044348  0.16220738  0.80973433  1
  O2-  O411  1  0.61732362  0.43518417  0.14622134  1
  O2-  O412  1  0.58126993  0.41721346  0.48455377  1
  O2-  O413  1  0.58854311  0.41744838  0.80791062  1
  O2-  O414  1  0.60186611  0.68663403  0.14694639  1
  O2-  O415  1  0.58232646  0.67389282  0.47743687  1
  O2-  O416  1  0.58821962  0.66629141  0.80911325  1
  O2-  O417  1  0.57625237  0.93182805  0.15231940  1
  O2-  O418  1  0.59430985  0.93639125  0.46358303  1
  O2-  O419  1  0.56339673  0.89500360  0.86655606  1
  O2-  O420  1  0.84396459  0.15785387  0.14574844  1
  O2-  O421  1  0.78772123  0.22516230  0.45502381  1
  O2-  O422  1  0.82572208  0.14889243  0.81607001  1
  O2-  O423  1  0.84099250  0.40597170  0.14273468  1
  O2-  O424  1  0.83162180  0.43823768  0.48104920  1
  O2-  O425  1  0.83686457  0.43369624  0.81554572  1
  O2-  O426  1  0.84669784  0.67817389  0.14752869  1
  O2-  O427  1  0.83059471  0.67156268  0.47740663  1
  O2-  O428  1  0.84138002  0.67203865  0.80699813  1
  O2-  O429  1  0.82584137  0.96442454  0.13840169  1
  O2-  O430  1  0.83368850  0.92302070  0.46276715  1
  O2-  O431  1  0.84626661  0.92300632  0.83444976  1
  O2-  O432  1  0.12274226  0.10006566  0.18826977  1
  O2-  O433  1  0.16670506  0.08509663  0.51474544  1
  O2-  O434  1  0.18256665  0.07819538  0.86360960  1
  O2-  O435  1  0.14398064  0.33604336  0.17939093  1
  O2-  O436  1  0.16079121  0.33503578  0.52339582  1
  O2-  O437  1  0.18188471  0.28798454  0.87951966  1
  O2-  O438  1  0.16353722  0.57435830  0.18690922  1
  O2-  O439  1  0.14725835  0.58350855  0.52173267  1
  O2-  O440  1  0.18794681  0.61655091  0.85173360  1
  O2-  O441  1  0.17186443  0.83985071  0.19046429  1
  O2-  O442  1  0.12379741  0.78970529  0.51100841  1
  O2-  O443  1  0.18511468  0.82288310  0.84821239  1
  O2-  O444  1  0.43115492  0.08749926  0.18409687  1
  O2-  O445  1  0.41338050  0.09445612  0.51990042  1
  O2-  O446  1  0.43437988  0.10602596  0.85643252  1
  O2-  O447  1  0.36342798  0.30889417  0.17650937  1
  O2-  O448  1  0.40904783  0.33362082  0.52786714  1
  O2-  O449  1  0.42589747  0.33497996  0.85428479  1
  O2-  O450  1  0.43495149  0.58786059  0.19788357  1
  O2-  O451  1  0.41967957  0.58963895  0.52738239  1
  O2-  O452  1  0.42002127  0.57287780  0.86345024  1
  O2-  O453  1  0.35259868  0.79344462  0.20760604  1
  O2-  O454  1  0.39636037  0.76157713  0.48895288  1
  O2-  O455  1  0.39101620  0.79873802  0.83875849  1
  O2-  O456  1  0.68579869  0.09699307  0.19222280  1
  O2-  O457  1  0.66477600  0.10124572  0.51327121  1
  O2-  O458  1  0.66634122  0.07561044  0.85587234  1
  O2-  O459  1  0.68424466  0.34226786  0.19009549  1
  O2-  O460  1  0.67041963  0.34381375  0.51846331  1
  O2-  O461  1  0.66993210  0.33287430  0.84317257  1
  O2-  O462  1  0.68256291  0.60423936  0.18687645  1
  O2-  O463  1  0.66419928  0.59002532  0.52032306  1
  O2-  O464  1  0.67592063  0.58603481  0.84701189  1
  O2-  O465  1  0.67059153  0.85281832  0.18266753  1
  O2-  O466  1  0.66996819  0.84298837  0.50396158  1
  O2-  O467  1  0.67381850  0.82967313  0.86453611  1
  O2-  O468  1  0.88628829  0.11154793  0.17206572  1
  O2-  O469  1  0.95437685  0.05214081  0.53974268  1
  O2-  O470  1  0.91898765  0.09309409  0.85552967  1
  O2-  O471  1  0.92035768  0.32068430  0.18041630  1
  O2-  O472  1  0.91311984  0.35119723  0.52040881  1
  O2-  O473  1  0.91302661  0.34406048  0.84028995  1
  O2-  O474  1  0.92757804  0.58541290  0.15338940  1
  O2-  O475  1  0.92308803  0.60452910  0.52235488  1
  O2-  O476  1  0.92095743  0.59236598  0.84178771  1
  O2-  O477  1  0.91511299  0.83746365  0.19893802  1
  O2-  O478  1  0.91580225  0.84138777  0.50732481  1
  O2-  O479  1  0.92410128  0.83340336  0.86477351  1
  O2-  O480  1  0.15393100  0.09762069  0.31610124  1
  O2-  O481  1  0.17189723  0.08122767  0.64025198  1
  O2-  O482  1  0.18241962  0.09397202  0.98752989  1
  O2-  O483  1  0.14997227  0.32832945  0.30137090  1
  O2-  O484  1  0.16979825  0.33147910  0.64828501  1
  O2-  O485  1  0.11343833  0.31001674  0.88431393  1
  O2-  O486  1  0.17211748  0.59137402  0.31077306  1
  O2-  O487  1  0.16920499  0.58335037  0.64399723  1
  O2-  O488  1  0.12341019  0.54353431  0.96928120  1
  O2-  O489  1  0.16493492  0.81572642  0.32117992  1
  O2-  O490  1  0.15680863  0.81782820  0.63121259  1
  O2-  O491  1  0.16211100  0.79659681  0.96816184  1
  O2-  O492  1  0.41525802  0.10764442  0.30097166  1
  O2-  O493  1  0.41333730  0.07895663  0.64278042  1
  O2-  O494  1  0.46820072  0.16639418  0.96348192  1
  O2-  O495  1  0.40109031  0.33673900  0.29911696  1
  O2-  O496  1  0.41320796  0.33028289  0.65165569  1
  O2-  O497  1  0.42592927  0.33881122  0.97991806  1
  O2-  O498  1  0.41479712  0.58513264  0.31932292  1
  O2-  O499  1  0.41632619  0.58553679  0.65224085  1
  O2-  O500  1  0.42176894  0.57036420  0.98235158  1
  O2-  O501  1  0.41601664  0.81819772  0.32387464  1
  O2-  O502  1  0.39529689  0.80342204  0.60966760  1
  O2-  O503  1  0.42899882  0.82708843  0.96561903  1
  O2-  O504  1  0.65764569  0.08858875  0.31396458  1
  O2-  O505  1  0.69539776  0.10955916  0.63143127  1
  O2-  O506  1  0.68339440  0.09610260  0.98096195  1
  O2-  O507  1  0.66743311  0.33923319  0.31169621  1
  O2-  O508  1  0.67233179  0.34114117  0.63911986  1
  O2-  O509  1  0.67103384  0.33469438  0.96952557  1
  O2-  O510  1  0.67484628  0.59738313  0.30823529  1
  O2-  O511  1  0.66406408  0.59296545  0.64265285  1
  O2-  O512  1  0.67958754  0.58583401  0.97287678  1
  O2-  O513  1  0.66490810  0.83888931  0.30728184  1
  O2-  O514  1  0.65454962  0.85243550  0.62930869  1
  O2-  O515  1  0.68618520  0.82654864  0.98431696  1
  O2-  O516  1  0.90136354  0.07241588  0.29886517  1
  O2-  O517  1  0.92392085  0.09109232  0.65951972  1
  O2-  O518  1  0.93618825  0.10041158  0.97432167  1
  O2-  O519  1  0.93449124  0.28166899  0.29895537  1
  O2-  O520  1  0.93201038  0.34418908  0.71523668  1
  O2-  O521  1  0.93547198  0.34637305  0.99107695  1
  O2-  O522  1  0.92061516  0.58206395  0.30915399  1
  O2-  O523  1  0.91667232  0.59138165  0.64533259  1
  O2-  O524  1  0.91725717  0.58296467  1.03201449  1
  O2-  O525  1  0.91638197  0.84100060  0.31438502  1
  O2-  O526  1  0.93022210  0.84501916  0.63313177  1
  O2-  O527  1  0.92719039  0.84487089  0.98848080  1
  O2-  O528  1  0.10265549  0.18545158  0.02300633  1
  O2-  O529  1  0.05344120  0.16393533  0.34691755  1
  O2-  O530  1  0.08942821  0.16289268  0.69006646  1
  O2-  O531  1  -0.00415738  0.38326522  -0.06159100  1
  O2-  O532  1  0.14366954  0.44904647  0.37251214  1
  O2-  O533  1  0.09717764  0.42302328  0.68899989  1
  O2-  O534  1  0.08791069  0.64945915  0.02280637  1
  O2-  O535  1  0.07970695  0.65365815  0.34625475  1
  O2-  O536  1  0.07910617  0.65969728  0.68400483  1
  O2-  O537  1  0.08391268  0.93039589  0.03642008  1
  O2-  O538  1  0.08356348  0.91362932  0.32779588  1
  O2-  O539  1  0.09446969  0.91896962  0.67258329  1
  O2-  O540  1  0.34961344  0.17161088  0.01812613  1
  O2-  O541  1  0.32347360  0.17850257  0.34831541  1
  O2-  O542  1  0.33256151  0.16403818  0.68784896  1
  O2-  O543  1  0.32397233  0.40461686  0.01491909  1
  O2-  O544  1  0.29233420  0.35928173  0.36517348  1
  O2-  O545  1  0.33476847  0.41901115  0.69405403  1
  O2-  O546  1  0.37072568  0.68151988  0.01815631  1
  O2-  O547  1  0.32669455  0.65613158  0.36143297  1
  O2-  O548  1  0.33448214  0.67013643  0.68640187  1
  O2-  O549  1  0.31263212  0.85644438  0.03987316  1
  O2-  O550  1  0.32571506  0.88041466  0.37025429  1
  O2-  O551  1  0.32469973  0.90172049  0.65366467  1
  O2-  O552  1  0.56515004  0.12558505  0.02915010  1
  O2-  O553  1  0.57905973  0.17550168  0.35580830  1
  O2-  O554  1  0.55467707  0.09102728  0.69675777  1
  O2-  O555  1  0.59433658  0.42088572  0.01924309  1
  O2-  O556  1  0.58209238  0.42941840  0.29660309  1
  O2-  O557  1  0.58244237  0.42127155  0.68286852  1
  O2-  O558  1  0.59282839  0.65662087  0.02357608  1
  O2-  O559  1  0.58662176  0.67397267  0.35275928  1
  O2-  O560  1  0.58918803  0.68124565  0.68347674  1
  O2-  O561  1  0.54348562  0.96511707  0.03815023  1
  O2-  O562  1  0.57920977  0.92262017  0.34752604  1
  O2-  O563  1  0.54204777  0.89717809  0.66978412  1
  O2-  O564  1  0.84844658  0.16982047  0.02316880  1
  O2-  O565  1  0.80943662  0.16093658  0.36550764  1
  O2-  O566  1  0.84859329  0.17598254  0.70546044  1
  O2-  O567  1  0.82825626  0.40922952  0.01768736  1
  O2-  O568  1  0.83143905  0.42820571  0.36293758  1
  O2-  O569  1  0.84143220  0.43006804  0.69116444  1
  O2-  O570  1  0.83886944  0.67603377  0.02355753  1
  O2-  O571  1  0.83518176  0.67311485  0.35274710  1
  O2-  O572  1  0.83577047  0.67654178  0.68297697  1
  O2-  O573  1  0.85009866  0.93710384  0.02258618  1
  O2-  O574  1  0.84182447  0.93022348  0.34389134  1
  O2-  O575  1  0.80087092  0.92780964  0.71419925  1
