# generated using pymatgen
data_H2O
_symmetry_space_group_name_H-M   'P 1'
_cell_length_a   18.00503586
_cell_length_b   17.99998697
_cell_length_c   22.00971962
_cell_angle_alpha   90.00145939
_cell_angle_beta   90.00277294
_cell_angle_gamma   119.98386853
_symmetry_Int_Tables_number   1
_chemical_formula_structural   H2O
_chemical_formula_sum   'H384 O192'
_cell_volume   6178.48354444
_cell_formula_units_Z   192
loop_
 _symmetry_equiv_pos_site_id
 _symmetry_equiv_pos_as_xyz
  1  'x, y, z'
loop_
 _atom_type_symbol
 _atom_type_oxidation_number
  H+  1.0
  O2-  -2.0
loop_
 _atom_site_type_symbol
 _atom_site_label
 _atom_site_symmetry_multiplicity
 _atom_site_fract_x
 _atom_site_fract_y
 _atom_site_fract_z
 _atom_site_occupancy
  H+  H0  1  0.15350018  0.28702323  0.65113211  1
  H+  H1  1  0.72591055  0.11074466  0.32004875  1
  H+  H2  1  0.40652097  0.06321442  0.65225720  1
  H+  H3  1  0.59985561  0.48498071  0.00935118  1
  H+  H4  1  0.12726484  0.26285078  0.17290233  1
  H+  H5  1  0.62338444  0.74893372  1.01430675  1
  H+  H6  1  0.62715189  0.02210074  0.84628772  1
  H+  H7  1  0.36294674  0.63427078  0.68064841  1
  H+  H8  1  0.86486957  0.14443059  0.34018315  1
  H+  H9  1  0.61418093  0.34758985  0.82825547  1
  H+  H10  1  0.85458709  0.39121259  0.18821022  1
  H+  H11  1  0.11556216  0.96154531  0.46872186  1
  H+  H12  1  0.07290875  0.15431606  0.10356816  1
  H+  H13  1  0.10626151  -0.02873985  0.32865812  1
  H+  H14  1  0.85906968  0.40674991  0.80628840  1
  H+  H15  1  0.26154757  0.88381308  0.82907488  1
  H+  H16  1  0.87810008  0.27958582  0.32940461  1
  H+  H17  1  0.28654272  0.16368257  0.80567177  1
  H+  H18  1  1.01357511  0.36539082  0.85513924  1
  H+  H19  1  0.62189026  0.84501025  0.65914525  1
  H+  H20  1  0.52860764  0.88749107  0.32821046  1
  H+  H21  1  1.00409840  0.88331566  1.00844400  1
  H+  H22  1  0.36042261  0.63004723  0.16064720  1
  H+  H23  1  0.61199671  0.73142055  0.34320879  1
  H+  H24  1  0.86459724  0.39944193  0.68371932  1
  H+  H25  1  0.41326385  0.08561815  0.93789834  1
  H+  H26  1  0.13616060  0.77310227  0.17831006  1
  H+  H27  1  0.14677325  0.53243421  0.50543602  1
  H+  H28  1  0.89138103  0.88018167  0.31809530  1
  H+  H29  1  0.14091456  0.51091383  0.17200641  1
  H+  H30  1  0.45878866  0.08424578  0.33310004  1
  H+  H31  1  0.36256368  0.72215562  0.67418672  1
  H+  H32  1  0.12182852  0.09519304  0.86282513  1
  H+  H33  1  0.90075125  0.51544680  0.96632497  1
  H+  H34  1  0.58047084  0.90429374  0.42512634  1
  H+  H35  1  0.33172999  0.38829394  0.34055792  1
  H+  H36  1  0.34627644  0.93888520  0.67852592  1
  H+  H37  1  0.45366214  0.60850201  0.84898588  1
  H+  H38  1  0.76060953  0.39340433  0.34342558  1
  H+  H39  1  0.90423845  0.38850386  0.49871112  1
  H+  H40  1  0.31639563  0.91108784  0.06602138  1
  H+  H41  1  0.72696895  0.36851595  0.67056184  1
  H+  H42  1  0.61043025  0.24075918  0.17057405  1
  H+  H43  1  0.32349598  0.66776892  0.77172739  1
  H+  H44  1  0.76501324  0.38884021  0.19407683  1
  H+  H45  1  0.87939744  0.61836251  0.18640252  1
  H+  H46  1  0.60643115  0.87049204  0.48578816  1
  H+  H47  1  0.39442633  0.53415148  0.51227808  1
  H+  H48  1  0.14623263  0.28298302  0.50133139  1
  H+  H49  1  0.78597008  0.67553656  0.33975006  1
  H+  H50  1  0.62225463  0.24514299  0.67160331  1
  H+  H51  1  0.13443009  0.01412056  0.17643996  1
  H+  H52  1  0.62197024  0.73742076  0.16162026  1
  H+  H53  1  0.14212528  0.61987840  0.66646608  1
  H+  H54  1  0.61012957  0.37860052  0.66341323  1
  H+  H55  1  0.11894829  0.84551630  0.82617862  1
  H+  H56  1  0.87408216  0.36671697  0.32767436  1
  H+  H57  1  0.57478052  0.87337810  0.81047823  1
  H+  H58  1  0.92642824  0.27750829  0.87552954  1
  H+  H59  1  0.15468125  0.11465667  0.63863006  1
  H+  H60  1  0.88375508  0.60960295  0.34844350  1
  H+  H61  1  0.35244219  0.36773855  0.17313073  1
  H+  H62  1  0.23486393  0.35938507  0.83664532  1
  H+  H63  1  0.38807660  0.39759832  0.52009896  1
  H+  H64  1  0.41607763  0.33261850  0.89413427  1
  H+  H65  1  0.85847513  0.74665714  0.91456281  1
  H+  H66  1  0.70788075  0.84255605  1.01082915  1
  H+  H67  1  0.36994662  0.77188534  0.84319609  1
  H+  H68  1  0.85251781  0.71542519  0.50290414  1
  H+  H69  1  0.82972526  0.34245549  -0.08998581  1
  H+  H70  1  0.37784668  0.25823013  0.18394088  1
  H+  H71  1  0.17864528  0.33843271  0.89890774  1
  H+  H72  1  0.77387946  0.38518041  0.83617101  1
  H+  H73  1  0.60502054  0.13112513  0.83104586  1
  H+  H74  1  0.50069042  0.14653389  0.65653084  1
  H+  H75  1  0.35863318  0.47283636  0.81877305  1
  H+  H76  1  0.60694185  0.71236355  0.67652720  1
  H+  H77  1  0.84388001  0.88093979  0.00244720  1
  H+  H78  1  0.61363118  0.63130239  0.49071304  1
  H+  H79  1  -0.01376177  0.87823984  0.04014544  1
  H+  H80  1  0.70896110  0.84191498  0.66242599  1
  H+  H81  1  0.52051845  0.38255320  0.82185620  1
  H+  H82  1  0.68323574  0.17324802  0.63932300  1
  H+  H83  1  0.34024685  0.72775049  0.33609224  1
  H+  H84  1  0.77525124  0.88349353  0.49474062  1
  H+  H85  1  0.08328482  0.17091734  0.91430095  1
  H+  H86  1  1.01538719  0.12552766  0.16289767  1
  H+  H87  1  0.72603380  0.86286877  0.17519742  1
  H+  H88  1  0.51145069  0.64233583  0.34446859  1
  H+  H89  1  0.63289431  0.32155327  0.24680417  1
  H+  H90  1  0.91912143  0.33759636  0.23856579  1
  H+  H91  1  0.13478603  0.39480022  0.82632476  1
  H+  H92  1  0.39821973  0.25434963  0.51940233  1
  H+  H93  1  0.23843502  0.36748680  0.50211758  1
  H+  H94  1  0.22201816  0.60510096  0.32272008  1
  H+  H95  1  0.83070790  0.65561458  0.44121070  1
  H+  H96  1  0.47214294  0.86494278  0.49576482  1
  H+  H97  1  0.88967701  0.11890865  1.00151843  1
  H+  H98  1  0.28722525  0.39053586  0.66027714  1
  H+  H99  1  0.99342512  0.35658850  0.94802204  1
  H+  H100  1  0.64149702  0.83842763  0.86743943  1
  H+  H101  1  0.36971112  0.75598903  0.99278707  1
  H+  H102  1  0.21669817  0.94415273  0.04474429  1
  H+  H103  1  0.84741884  0.97110299  0.00778802  1
  H+  H104  1  0.99467573  0.61385091  0.71087718  1
  H+  H105  1  1.02782838  0.88194335  0.15896818  1
  H+  H106  1  0.03386732  0.62590561  -0.00311991  1
  H+  H107  1  0.59121365  0.86243247  0.01424954  1
  H+  H108  1  0.29746985  0.81727888  0.30122033  1
  H+  H109  1  0.50589604  0.12786940  0.01524981  1
  H+  H110  1  0.38910249  0.62092998  0.50541153  1
  H+  H111  1  0.24284427  0.06933387  0.43646732  1
  H+  H112  1  0.38459203  0.16114432  0.66093419  1
  H+  H113  1  0.85522501  0.97068376  0.16403782  1
  H+  H114  1  0.01724953  0.14110119  0.48538156  1
  H+  H115  1  0.40488431  0.57648549  0.23215551  1
  H+  H116  1  0.62190035  0.14887211  0.16244253  1
  H+  H117  1  0.60068529  0.12775508  0.32444321  1
  H+  H118  1  0.50699900  0.38412738  0.18377099  1
  H+  H119  1  0.85835936  0.47815006  0.49721900  1
  H+  H120  1  0.59587317  0.36588622  0.39407259  1
  H+  H121  1  0.63380623  0.61446258  0.99353293  1
  H+  H122  1  0.92749696  0.16646494  0.63202285  1
  H+  H123  1  0.36936760  0.50704841  0.17926075  1
  H+  H124  1  0.35780247  0.63734001  0.01097186  1
  H+  H125  1  0.97529671  0.85798211  0.50498691  1
  H+  H126  1  0.27397776  0.64011381  0.49301097  1
  H+  H127  1  0.10880868  0.87375858  0.48885955  1
  H+  H128  1  0.35993044  0.14155249  0.00678176  1
  H+  H129  1  0.63741316  0.85980142  0.32741546  1
  H+  H130  1  0.37635681  0.09343172  0.17986432  1
  H+  H131  1  0.92547350  0.69616305  0.04617470  1
  H+  H132  1  0.13383800  0.59992809  0.99264401  1
  H+  H133  1  0.10604808  0.63585717  0.78305753  1
  H+  H134  1  0.13338701  0.35620086  -0.00856087  1
  H+  H135  1  0.51272620  0.12733757  0.82545763  1
  H+  H136  1  0.10857610  0.72227593  0.50369398  1
  H+  H137  1  -0.00003251  0.41779925  0.66121350  1
  H+  H138  1  0.52613887  0.89079887  0.17146767  1
  H+  H139  1  0.28185873  0.14273694  0.66022583  1
  H+  H140  1  0.60538188  0.09174980  1.00780877  1
  H+  H141  1  0.71911017  0.60865989  0.98946317  1
  H+  H142  1  0.12584085  0.50924839  0.32444335  1
  H+  H143  1  0.63761089  0.86554489  0.17885678  1
  H+  H144  1  0.37513415  0.02926920  0.99947264  1
  H+  H145  1  0.56302482  0.60223556  0.84395786  1
  H+  H146  1  0.15641249  -0.01826251  1.02569467  1
  H+  H147  1  0.08227153  0.69202807  0.40906756  1
  H+  H148  1  0.96722191  0.30950626  0.01718226  1
  H+  H149  1  0.48782598  0.37201156  0.63664447  1
  H+  H150  1  0.36856670  0.86147696  0.84633012  1
  H+  H151  1  0.36291591  0.96265669  0.42891271  1
  H+  H152  1  0.87860887  0.10237919  0.85189074  1
  H+  H153  1  0.25540401  0.85426097  0.67971669  1
  H+  H154  1  0.86071914  0.14620031  0.16627817  1
  H+  H155  1  0.82266397  0.19888688  0.64440093  1
  H+  H156  1  1.01390639  0.13189481  1.01040500  1
  H+  H157  1  0.62915989  0.53438207  0.19492877  1
  H+  H158  1  0.88957232  0.86277485  0.16455480  1
  H+  H159  1  0.35080837  0.45749742  0.01556793  1
  H+  H160  1  0.76853255  0.86806100  0.84423202  1
  H+  H161  1  0.22467172  0.61439675  0.84562817  1
  H+  H162  1  0.59952676  0.70363651  0.84442728  1
  H+  H163  1  0.14871204  0.86638340  0.18384013  1
  H+  H164  1  0.89965921  0.60112477  0.97920035  1
  H+  H165  1  0.38506726  0.62652322  0.32951683  1
  H+  H166  1  0.21921926  0.34899585  0.99515530  1
  H+  H167  1  0.88218133  0.53202890  0.19515095  1
  H+  H168  1  0.19643529  0.07047846  0.86668115  1
  H+  H169  1  0.61537920  0.35960161  0.18611711  1
  H+  H170  1  0.11250015  0.63674188  0.49807836  1
  H+  H171  1  0.26258071  0.85174708  0.14769824  1
  H+  H172  1  0.66841540  0.82596487  0.27176657  1
  H+  H173  1  0.13164634  0.10202830  0.18033926  1
  H+  H174  1  0.10126457  0.13858213  0.50275607  1
  H+  H175  1  0.77023172  0.13904446  0.85900240  1
  H+  H176  1  0.38742445  0.88167486  0.32237089  1
  H+  H177  1  0.46631709  0.84924167  -0.00399003  1
  H+  H178  1  0.94673228  0.60897301  0.79874644  1
  H+  H179  1  0.39496937  0.77185780  0.17547707  1
  H+  H180  1  0.83986007  0.21487014  0.00945681  1
  H+  H181  1  0.30322142  0.93222364  0.33694008  1
  H+  H182  1  0.77732163  0.89143416  0.34349850  1
  H+  H183  1  0.13813091  0.76965764  0.81222837  1
  H+  H184  1  0.61324705  0.99410391  0.49990769  1
  H+  H185  1  0.59381609  0.40020754  0.03400353  1
  H+  H186  1  0.58944735  -0.04831219  1.01167903  1
  H+  H187  1  0.52520675  0.63719324  0.49374320  1
  H+  H188  1  0.84494393  0.93999600  0.68117426  1
  H+  H189  1  0.18124585  0.35199748  0.33110913  1
  H+  H190  1  0.16721393  0.79435238  0.33254559  1
  H+  H191  1  0.77384019  0.62188550  0.66815159  1
  H+  H192  1  0.12689099  0.10338044  1.00940709  1
  H+  H193  1  0.23103977  0.61929892  0.66384408  1
  H+  H194  1  0.21726186  0.34994636  0.17544346  1
  H+  H195  1  0.46390545  0.85194584  0.64824585  1
  H+  H196  1  0.38301265  0.53693807  0.33476113  1
  H+  H197  1  0.71997629  0.61775898  0.18053878  1
  H+  H198  1  0.64506014  0.36574989  0.51850069  1
  H+  H199  1  0.63700216  0.51404547  0.65328901  1
  H+  H200  1  1.01353596  0.64595401  0.16405422  1
  H+  H201  1  0.89835346  0.66460643  0.84776627  1
  H+  H202  1  0.74841258  0.11406913  0.48467618  1
  H+  H203  1  0.84143944  0.12556664  0.48175735  1
  H+  H204  1  0.87960440  0.76364588  0.81753011  1
  H+  H205  1  0.86589597  0.88583026  0.49646059  1
  H+  H206  1  -0.02490748  0.36616458  0.17604621  1
  H+  H207  1  0.88436519  0.84189097  0.66622521  1
  H+  H208  1  0.63783665  0.03323029  0.16570687  1
  H+  H209  1  0.35236585  0.37062949  1.00418971  1
  H+  H210  1  0.87711184  0.60391695  0.51543700  1
  H+  H211  1  0.67280498  0.61501591  0.82504252  1
  H+  H212  1  0.89806752  0.71789004  0.37594746  1
  H+  H213  1  0.37094576  0.84129903  0.65523452  1
  H+  H214  1  0.13239157  0.08531484  0.32930412  1
  H+  H215  1  0.39805252  0.30157167  0.24941862  1
  H+  H216  1  0.72224644  0.30237433  0.95869132  1
  H+  H217  1  0.99013364  0.11412828  0.33081163  1
  H+  H218  1  0.12595804  0.40225032  0.67537365  1
  H+  H219  1  0.37284425  0.15771733  0.34739606  1
  H+  H220  1  0.35971409  0.73062242  0.48658732  1
  H+  H221  1  0.39154108  0.36748554  0.83326996  1
  H+  H222  1  0.13407509  0.50699501  -0.00795694  1
  H+  H223  1  0.85440066  0.48003705  0.34280284  1
  H+  H224  1  0.22867918  0.86319824  0.51504371  1
  H+  H225  1  0.84868281  0.35225333  -0.01956095  1
  H+  H226  1  0.10682494  0.37662500  0.15720779  1
  H+  H227  1  0.03638028  0.40951157  0.48938601  1
  H+  H228  1  0.62197477  0.64385691  0.16947348  1
  H+  H229  1  0.26901281  0.13087091  0.16381144  1
  H+  H230  1  0.26991324  0.13972307  1.00974361  1
  H+  H231  1  0.27698283  0.89475059  0.99850198  1
  H+  H232  1  0.39252766  0.56968986  1.06596014  1
  H+  H233  1  0.00288921  0.86982598  0.33025450  1
  H+  H234  1  0.39690628  0.37851112  0.63481027  1
  H+  H235  1  0.08136317  0.91499192  0.75513252  1
  H+  H236  1  0.14058074  0.51460262  0.84384426  1
  H+  H237  1  0.38524551  0.11339907  0.83439581  1
  H+  H238  1  0.37283448  0.20979884  0.45284361  1
  H+  H239  1  0.11980069  -0.03038227  0.66133104  1
  H+  H240  1  0.35401704  0.85874969  0.14255822  1
  H+  H241  1  0.14719426  0.84729245  0.98441227  1
  H+  H242  1  0.01536768  0.39757531  0.33920112  1
  H+  H243  1  0.10527482  0.22241008  0.00917796  1
  H+  H244  1  0.96724441  0.10146213  0.85621025  1
  H+  H245  1  0.89808611  0.02898857  0.33494704  1
  H+  H246  1  0.92250581  0.33041356  0.64292538  1
  H+  H247  1  0.37787716  0.02086493  0.83854332  1
  H+  H248  1  -0.03415467  0.60500096  0.51325194  1
  H+  H249  1  0.90343346  0.07138302  0.64135306  1
  H+  H250  1  0.12232524  0.71334986  0.99769663  1
  H+  H251  1  0.63723140  0.76722865  0.50242509  1
  H+  H252  1  0.47616852  0.61060384  0.66277878  1
  H+  H253  1  0.54832436  0.57208307  0.05155644  1
  H+  H254  1  0.41116248  0.14388180  0.50469087  1
  H+  H255  1  0.38621587  0.91892054  0.48712181  1
  H+  H256  1  0.61797173  0.47326572  0.49073102  1
  H+  H257  1  0.13426449  0.75278785  0.67193495  1
  H+  H258  1  0.59979189  0.20880498  0.00815611  1
  H+  H259  1  0.67636978  0.34100762  0.60283007  1
  H+  H260  1  0.26525989  0.63095539  0.00244289  1
  H+  H261  1  0.61577370  -0.02253343  0.32935875  1
  H+  H262  1  0.47202168  0.60618295  0.02341960  1
  H+  H263  1  0.86663412  0.71114259  0.00115335  1
  H+  H264  1  0.85598945  0.72778025  0.16060766  1
  H+  H265  1  -0.02797634  0.85815030  0.79800536  1
  H+  H266  1  0.12231669  0.40131484  0.48638591  1
  H+  H267  1  1.04438707  0.14769040  0.64810152  1
  H+  H268  1  0.40001320  0.02957117  0.49616529  1
  H+  H269  1  0.92216833  0.82585942  0.95409431  1
  H+  H270  1  0.37772064  0.24434646  0.81623642  1
  H+  H271  1  0.85251464  -0.03710871  0.83597491  1
  H+  H272  1  0.61574511  0.46462711  0.81899111  1
  H+  H273  1  0.72501361  0.61389628  0.50309100  1
  H+  H274  1  0.08855399  0.95711690  0.82277413  1
  H+  H275  1  0.53444418  0.38853993  0.50895716  1
  H+  H276  1  0.49614394  0.88502754  0.82441396  1
  H+  H277  1  0.60310698  0.96437660  0.66539296  1
  H+  H278  1  0.46481265  0.36212784  0.99066959  1
  H+  H279  1  0.23022669  0.60263190  0.17454228  1
  H+  H280  1  0.61563856  0.12505483  0.47430292  1
  H+  H281  1  0.63892266  0.60270151  0.66102792  1
  H+  H282  1  0.67565379  0.35081292  0.98409573  1
  H+  H283  1  0.19945035  0.83767203  0.26621355  1
  H+  H284  1  0.91444581  0.59045030  0.28352946  1
  H+  H285  1  0.54879362  0.15629121  0.47890128  1
  H+  H286  1  0.46425158  0.29939515  0.34234375  1
  H+  H287  1  0.38021366  0.26859182  0.98837018  1
  H+  H288  1  0.87563065  0.85613628  0.80912079  1
  H+  H289  1  0.37468389  0.48041571  0.66273532  1
  H+  H290  1  0.94946403  0.60013342  0.87370430  1
  H+  H291  1  0.85220531  0.78316588  0.30249466  1
  H+  H292  1  0.15139554  0.30986063  0.26595811  1
  H+  H293  1  0.65936203  0.82378384  0.56239075  1
  H+  H294  1  0.85639663  0.47267657  0.71321184  1
  H+  H295  1  0.72516688  0.16778047  0.57726534  1
  H+  H296  1  0.56826297  0.40334936  0.71852486  1
  H+  H297  1  0.57825323  0.66700446  0.40747374  1
  H+  H298  1  0.89511064  0.39802845  0.07623855  1
  H+  H299  1  0.88763637  0.22391484  0.70033067  1
  H+  H300  1  0.90204726  0.07724215  0.24697644  1
  H+  H301  1  0.73149332  0.66322958  0.27782866  1
  H+  H302  1  0.57646844  0.65294956  0.73612017  1
  H+  H303  1  0.16816559  0.56864263  0.25475468  1
  H+  H304  1  0.34855657  0.63694654  0.83280048  1
  H+  H305  1  0.61087203  0.24507287  0.82883298  1
  H+  H306  1  0.41021438  0.84005245  0.55420630  1
  H+  H307  1  0.90355885  0.61027364  0.70437229  1
  H+  H308  1  0.09858965  0.16154804  0.70783078  1
  H+  H309  1  0.60605711  0.04459853  0.55664749  1
  H+  H310  1  0.08370952  0.41008921  0.09624151  1
  H+  H311  1  0.31027819  0.41653259  0.40165945  1
  H+  H312  1  0.66863975  0.08363120  0.25917352  1
  H+  H313  1  0.08213401  0.42938357  0.39553219  1
  H+  H314  1  0.15785802  0.05475447  0.26697403  1
  H+  H315  1  0.58842820  0.66242543  0.09755523  1
  H+  H316  1  0.83722732  0.91849542  0.40222047  1
  H+  H317  1  0.56116596  0.42592768  0.12412355  1
  H+  H318  1  0.14331682  0.05819237  0.95326853  1
  H+  H319  1  0.59010058  0.16978845  0.72361808  1
  H+  H320  1  0.57871884  0.17551246  0.10450361  1
  H+  H321  1  0.39022374  0.05354549  0.23816263  1
  H+  H322  1  0.06572008  0.89040939  0.39025861  1
  H+  H323  1  0.13774658  0.84714985  0.66514273  1
  H+  H324  1  0.13143893  0.49404226  0.67861323  1
  H+  H325  1  0.60362117  0.25601309  0.33486218  1
  H+  H326  1  0.57751824  0.91131486  0.10997691  1
  H+  H327  1  0.81764456  0.65713377  0.73093751  1
  H+  H328  1  0.82482850  0.41911590  0.43652912  1
  H+  H329  1  1.02788265  0.66608737  0.34931939  1
  H+  H330  1  0.86827773  0.23989456  0.16664586  1
  H+  H331  1  0.66188464  0.79983794  0.92336895  1
  H+  H332  1  0.07368523  0.66749352  0.10474657  1
  H+  H333  1  0.19397281  0.08171993  0.58697319  1
  H+  H334  1  0.56253204  0.91291742  0.72589800  1
  H+  H335  1  0.34089846  0.41671779  0.75777138  1
  H+  H336  1  0.91842084  0.09438693  0.54443315  1
  H+  H337  1  0.89702314  0.42855946  0.05197117  1
  H+  H338  1  0.81011905  0.88928559  0.74164623  1
  H+  H339  1  0.33189518  0.66829288  0.10409532  1
  H+  H340  1  0.10727510  0.91468841  0.11060991  1
  H+  H341  1  0.32959213  0.16668058  0.10502716  1
  H+  H342  1  0.73412277  0.36665423  0.51666968  1
  H+  H343  1  0.64501816  0.31189664  0.89075402  1
  H+  H344  1  0.40481357  0.82655861  0.93179453  1
  H+  H345  1  0.17911438  0.34913824  0.59463077  1
  H+  H346  1  0.86751790  0.19871820  0.07521521  1
  H+  H347  1  0.12648371  0.20817749  0.33920149  1
  H+  H348  1  0.94891405  0.38954727  0.56021386  1
  H+  H349  1  0.82832088  0.91593182  0.10169512  1
  H+  H350  1  0.68997143  0.08559494  1.00945724  1
  H+  H351  1  0.81019566  0.03431420  0.22037171  1
  H+  H352  1  0.79385522  0.63936052  0.84936843  1
  H+  H353  1  0.64316785  0.07034275  0.90994778  1
  H+  H354  1  0.17019728  0.82839113  0.57445581  1
  H+  H355  1  0.32570184  0.39262286  0.10970700  1
  H+  H356  1  0.38766035  0.56700991  0.90337014  1
  H+  H357  1  0.91861916  0.83688052  0.22466466  1
  H+  H358  1  0.15891487  0.81382757  0.91950184  1
  H+  H359  1  0.66126295  0.58116252  0.55988896  1
  H+  H360  1  0.44407762  0.10717605  0.56039078  1
  H+  H361  1  0.11738998  0.22447562  0.85531050  1
  H+  H362  1  0.09597240  0.15738146  0.40229153  1
  H+  H363  1  0.92145939  0.83258581  0.56708091  1
  H+  H364  1  0.32389151  0.90473316  0.77318502  1
  H+  H365  1  0.02822621  0.88166148  0.66601479  1
  H+  H366  1  0.10104963  0.42788141  0.76910216  1
  H+  H367  1  0.18002636  0.10100562  0.42377837  1
  H+  H368  1  0.40880010  0.44226610  0.45743436  1
  H+  H369  1  0.17344283  0.58947920  0.56694733  1
  H+  H370  1  0.72850555  0.12418082  0.16387309  1
  H+  H371  1  0.32364383  0.67029534  0.39622625  1
  H+  H372  1  0.57793380  0.15264617  0.38835789  1
  H+  H373  1  0.16444220  0.57194512  0.91281040  1
  H+  H374  1  0.89259930  0.75920244  0.66016487  1
  H+  H375  1  0.88494255  0.02269020  0.49244090  1
  H+  H376  1  0.41872494  0.59244112  0.60279725  1
  H+  H377  1  0.40248421  0.83289128  0.23020255  1
  H+  H378  1  0.81842304  0.16284989  0.39521290  1
  H+  H379  1  0.66837436  0.58046250  0.89359877  1
  H+  H380  1  0.83300294  0.18676441  0.80607647  1
  H+  H381  1  0.90316901  0.07484038  0.94178873  1
  H+  H382  1  0.34492802  0.18402856  0.72383670  1
  H+  H383  1  0.82277962  0.65815507  0.10704369  1
  O2-  O384  1  0.07472516  0.15387664  0.14895151  1
  O2-  O385  1  0.08193470  0.17219884  0.47989214  1
  O2-  O386  1  0.08250532  0.16332859  0.87011027  1
  O2-  O387  1  0.07897972  0.40899803  0.14160178  1
  O2-  O388  1  0.09768696  0.43627391  0.47196966  1
  O2-  O389  1  0.10353892  0.42613078  0.81537402  1
  O2-  O390  1  0.07242321  0.68210171  0.14747045  1
  O2-  O391  1  0.07799081  0.66383517  0.48646501  1
  O2-  O392  1  0.13742415  0.69137463  0.76251340  1
  O2-  O393  1  0.09142821  0.91532814  0.15417055  1
  O2-  O394  1  0.07654657  0.89826840  0.46824307  1
  O2-  O395  1  0.06373956  0.90223051  0.79948571  1
  O2-  O396  1  0.32983433  0.16438577  0.15003794  1
  O2-  O397  1  0.37539115  0.19798683  0.49646317  1
  O2-  O398  1  0.34682615  0.18483606  0.79618520  1
  O2-  O399  1  0.32391373  0.39770910  0.15448642  1
  O2-  O400  1  0.36765932  0.42884165  0.49047417  1
  O2-  O401  1  0.33773708  0.41394243  0.80309310  1
  O2-  O402  1  0.33541030  0.66726194  0.14869059  1
  O2-  O403  1  0.33354245  0.66972663  0.47426222  1
  O2-  O404  1  0.31989214  0.66859275  0.81769182  1
  O2-  O405  1  0.30556028  0.85341565  0.11818280  1
  O2-  O406  1  0.36295193  0.95820715  0.47501529  1
  O2-  O407  1  0.32427738  0.91440701  0.81808945  1
  O2-  O408  1  0.58986541  0.18034169  0.15000013  1
  O2-  O409  1  0.59958248  0.16529653  0.45616053  1
  O2-  O410  1  0.57510101  0.15982617  0.81187399  1
  O2-  O411  1  0.56728759  0.42042706  0.16797817  1
  O2-  O412  1  0.58731029  0.41001080  0.48420660  1
  O2-  O413  1  0.57997944  0.40442813  0.80473209  1
  O2-  O414  1  0.59511666  0.67578733  0.14726216  1
  O2-  O415  1  0.58378147  0.66398153  0.47501406  1
  O2-  O416  1  0.55919688  0.64834206  0.82337140  1
  O2-  O417  1  0.58662726  0.92212487  0.15420817  1
  O2-  O418  1  0.57460744  0.89927693  0.47018674  1
  O2-  O419  1  0.55553058  0.91492599  0.80555918  1
  O2-  O420  1  0.83878944  0.18063533  0.14590395  1
  O2-  O421  1  0.80656138  0.15160682  0.46940689  1
  O2-  O422  1  0.83262779  0.16998911  0.84830045  1
  O2-  O423  1  0.82639434  0.42620613  0.18610451  1
  O2-  O424  1  0.82917924  0.41670222  0.48145399  1
  O2-  O425  1  0.83261972  0.40020238  0.84644456  1
  O2-  O426  1  0.81924008  0.66470360  0.15113776  1
  O2-  O427  1  0.82078891  0.65488809  0.49011214  1
  O2-  O428  1  0.85321592  0.68800868  0.85357982  1
  O2-  O429  1  0.82885132  0.91185619  0.14682802  1
  O2-  O430  1  0.83542388  0.91550413  0.47973192  1
  O2-  O431  1  0.82219757  0.90230235  0.82038695  1
  O2-  O432  1  0.16416764  0.07414907  0.19423649  1
  O2-  O433  1  0.19313416  0.06951489  0.45410690  1
  O2-  O434  1  0.13463654  0.04721326  0.86894713  1
  O2-  O435  1  0.15562987  0.32292721  0.18782035  1
  O2-  O436  1  0.17896883  0.34312153  0.51641905  1
  O2-  O437  1  0.17553129  0.33371156  0.85329110  1
  O2-  O438  1  0.17181200  0.56817703  0.19221824  1
  O2-  O439  1  0.17682223  0.59290946  0.52172759  1
  O2-  O440  1  0.16478385  0.57512134  0.86305959  1
  O2-  O441  1  0.17719063  0.83292955  0.19403999  1
  O2-  O442  1  0.16924370  0.83498400  0.52911581  1
  O2-  O443  1  0.15426212  0.82030372  0.83900453  1
  O2-  O444  1  0.40088208  0.05862408  0.19430997  1
  O2-  O445  1  0.43795047  0.10358616  0.51534242  1
  O2-  O446  1  0.41335317  0.08274104  0.85122188  1
  O2-  O447  1  0.40388647  0.31559316  0.20557456  1
  O2-  O448  1  0.43211546  0.35014508  0.55088808  1
  O2-  O449  1  0.42100329  0.33589344  0.84824040  1
  O2-  O450  1  0.39762917  0.56950833  0.18769880  1
  O2-  O451  1  0.42257154  0.59585298  0.52402838  1
  O2-  O452  1  0.39142089  0.57442460  0.85926357  1
  O2-  O453  1  0.42406619  0.83328440  0.18851975  1
  O2-  O454  1  0.41247429  0.84774285  0.50908883  1
  O2-  O455  1  0.40154812  0.83204953  0.85988697  1
  O2-  O456  1  0.66751492  0.09522574  0.17814094  1
  O2-  O457  1  0.63505345  0.05329885  0.51769584  1
  O2-  O458  1  0.65463916  0.07975382  0.86542004  1
  O2-  O459  1  0.63961944  0.32359263  0.20138152  1
  O2-  O460  1  0.67660090  0.33943611  0.53758021  1
  O2-  O461  1  0.64104627  0.31171394  0.84444088  1
  O2-  O462  1  0.66258246  0.59761605  0.19998332  1
  O2-  O463  1  0.66054651  0.58355212  0.51488767  1
  O2-  O464  1  0.67864972  0.57295601  0.84961292  1
  O2-  O465  1  0.66612262  0.83235625  0.19176300  1
  O2-  O466  1  0.66400197  0.82786233  0.51734612  1
  O2-  O467  1  0.66639208  0.80253727  0.87712790  1
  O2-  O468  1  0.86978724  0.06282902  0.20656104  1
  O2-  O469  1  0.91354947  0.08633479  0.49981842  1
  O2-  O470  1  0.90439767  0.06655475  0.86346271  1
  O2-  O471  1  0.91569914  0.33413487  0.19280065  1
  O2-  O472  1  0.94607399  0.37345657  0.51699682  1
  O2-  O473  1  0.96849217  0.33676119  0.88731106  1
  O2-  O474  1  0.91555696  0.59567172  0.20212926  1
  O2-  O475  1  0.90618125  0.57174240  0.52831548  1
  O2-  O476  1  0.95759178  0.63876544  0.83945498  1
  O2-  O477  1  0.91897625  0.83170378  0.17900878  1
  O2-  O478  1  0.91670659  0.83473293  0.52229213  1
  O2-  O479  1  0.90391284  0.82249926  0.79394100  1
  O2-  O480  1  0.15232224  0.04581309  0.31277307  1
  O2-  O481  1  0.18948027  0.08574616  0.63106195  1
  O2-  O482  1  0.16006206  0.07541834  0.99586333  1
  O2-  O483  1  0.14679198  0.29736890  0.31036019  1
  O2-  O484  1  0.18164030  0.34833417  0.64019247  1
  O2-  O485  1  0.16070389  0.32155630  0.97615427  1
  O2-  O486  1  0.16362901  0.57164505  0.30379294  1
  O2-  O487  1  0.17130228  0.58912749  0.64785873  1
  O2-  O488  1  0.16461592  0.56928190  0.97553219  1
  O2-  O489  1  0.21870012  0.83888758  0.30955388  1
  O2-  O490  1  0.16686082  0.81567780  0.65168768  1
  O2-  O491  1  0.16816476  0.81218910  0.96392099  1
  O2-  O492  1  0.39392039  0.05557341  0.32818642  1
  O2-  O493  1  0.43879073  0.12259239  0.63846549  1
  O2-  O494  1  0.41370404  0.08992431  0.98270679  1
  O2-  O495  1  0.40242439  0.27800845  0.33294952  1
  O2-  O496  1  0.42615565  0.34496460  0.61877011  1
  O2-  O497  1  0.40859720  0.32830678  0.97000222  1
  O2-  O498  1  0.41791446  0.59654634  0.31895451  1
  O2-  O499  1  0.41570236  0.58429005  0.64800666  1
  O2-  O500  1  0.40670965  0.57817264  1.02256200  1
  O2-  O501  1  0.35736569  0.82468316  0.30300735  1
  O2-  O502  1  0.40415025  0.81879102  0.63298677  1
  O2-  O503  1  0.40535746  0.82071308  0.97823260  1
  O2-  O504  1  0.66532592  0.07717336  0.30409466  1
  O2-  O505  1  0.72742732  0.16269369  0.62135580  1
  O2-  O506  1  0.63332754  0.05926214  0.99061732  1
  O2-  O507  1  0.63302621  0.32019777  0.32579619  1
  O2-  O508  1  0.66865188  0.33825581  0.65117484  1
  O2-  O509  1  0.66360889  0.29985185  0.96068706  1
  O2-  O510  1  0.76030186  0.70320821  0.31124573  1
  O2-  O511  1  0.67088700  0.57626338  0.64306322  1
  O2-  O512  1  0.66208445  0.58514957  0.97135200  1
  O2-  O513  1  0.66618439  0.82611788  0.31714514  1
  O2-  O514  1  0.65021100  0.81307557  0.64481094  1
  O2-  O515  1  0.64761261  0.80619218  0.99563020  1
  O2-  O516  1  0.92928849  0.08871604  0.31789871  1
  O2-  O517  1  0.94668234  0.12367710  0.62150814  1
  O2-  O518  1  0.90642728  0.07681399  0.98723583  1
  O2-  O519  1  0.90847846  0.33968323  0.31412081  1
  O2-  O520  1  0.94260713  0.39262883  0.64205012  1
  O2-  O521  1  0.99877982  0.36827282  0.99688030  1
  O2-  O522  1  0.91374757  0.57981241  0.32784569  1
  O2-  O523  1  0.93241281  0.58319300  0.72543453  1
  O2-  O524  1  0.93077601  0.57661917  0.95717335  1
  O2-  O525  1  0.90915618  0.84086980  0.29956826  1
  O2-  O526  1  0.92137727  0.82133258  0.64884969  1
  O2-  O527  1  0.86200122  0.78031342  0.95203998  1
  O2-  O528  1  0.07526667  0.16090744  0.02337843  1
  O2-  O529  1  0.10049040  0.14876692  0.35811510  1
  O2-  O530  1  0.10405310  0.16746047  0.66367651  1
  O2-  O531  1  0.09052638  0.41048737  0.01604414  1
  O2-  O532  1  0.07750403  0.42789540  0.35009692  1
  O2-  O533  1  0.10026642  0.43340289  0.69550571  1
  O2-  O534  1  0.09178659  0.65393367  0.01532535  1
  O2-  O535  1  0.08128345  0.71263514  0.36739419  1
  O2-  O536  1  0.09802307  0.66971290  0.70083384  1
  O2-  O537  1  0.15545895  0.92973491  0.04156744  1
  O2-  O538  1  0.06437865  0.89776905  0.34507713  1
  O2-  O539  1  0.08888246  0.91323711  0.68161755  1
  O2-  O540  1  0.33154128  0.17393503  0.02151853  1
  O2-  O541  1  0.35704571  0.19695876  0.36779790  1
  O2-  O542  1  0.34284909  0.18041682  0.67729449  1
  O2-  O543  1  0.32034077  0.39558426  0.02518029  1
  O2-  O544  1  0.31649319  0.42883018  0.35805253  1
  O2-  O545  1  0.34905632  0.41742027  0.67316269  1
  O2-  O546  1  0.32600116  0.66935214  0.01660731  1
  O2-  O547  1  0.32237649  0.66860717  0.35057515  1
  O2-  O548  1  0.33442604  0.66608242  0.69614350  1
  O2-  O549  1  0.31046571  0.94145866  0.02757846  1
  O2-  O550  1  0.36285684  0.96923294  0.35485659  1
  O2-  O551  1  0.31798851  0.88194916  0.69649385  1
  O2-  O552  1  0.56718668  0.15441720  0.03130369  1
  O2-  O553  1  0.56513297  0.14998619  0.34259190  1
  O2-  O554  1  0.59026122  0.17932923  0.67945551  1
  O2-  O555  1  0.56175062  0.43062131  0.03177898  1
  O2-  O556  1  0.57632153  0.34939016  0.35147104  1
  O2-  O557  1  0.57234266  0.40488641  0.67368295  1
  O2-  O558  1  0.57155198  0.63223061  0.03982315  1
  O2-  O559  1  0.57389830  0.67044835  0.36013270  1
  O2-  O560  1  0.57955378  0.65170170  0.69146116  1
  O2-  O561  1  0.55819458  0.89104605  0.02633505  1
  O2-  O562  1  0.58615742  0.91634775  0.34562236  1
  O2-  O563  1  0.56901874  0.90628433  0.68145134  1
  O2-  O564  1  0.88526245  0.21010748  0.03040027  1
  O2-  O565  1  0.82636086  0.16731062  0.34941849  1
  O2-  O566  1  0.88529076  0.22191440  0.65608437  1
  O2-  O567  1  0.81136313  0.31079831  -0.05017546  1
  O2-  O568  1  0.82081228  0.41683312  0.35542451  1
  O2-  O569  1  0.82456621  0.40907946  0.70973693  1
  O2-  O570  1  0.86950503  0.66563382  0.02614056  1
  O2-  O571  1  0.84711550  0.66137445  0.37902178  1
  O2-  O572  1  0.83171283  0.65458205  0.68852989  1
  O2-  O573  1  0.81619946  0.90972500  0.02203051  1
  O2-  O574  1  0.83797434  0.92504525  0.35690448  1
  O2-  O575  1  0.81108036  0.88169556  0.69669552  1
