# generated using pymatgen
data_H2O
_symmetry_space_group_name_H-M   'P 1'
_cell_length_a   18.00048716
_cell_length_b   17.99355727
_cell_length_c   22.00795344
_cell_angle_alpha   90.00105591
_cell_angle_beta   89.99999222
_cell_angle_gamma   119.99928557
_symmetry_Int_Tables_number   1
_chemical_formula_structural   H2O
_chemical_formula_sum   'H384 O192'
_cell_volume   6173.26195310
_cell_formula_units_Z   192
loop_
 _symmetry_equiv_pos_site_id
 _symmetry_equiv_pos_as_xyz
  1  'x, y, z'
loop_
 _atom_type_symbol
 _atom_type_oxidation_number
  H+  1.0
  O2-  -2.0
loop_
 _atom_site_type_symbol
 _atom_site_label
 _atom_site_symmetry_multiplicity
 _atom_site_fract_x
 _atom_site_fract_y
 _atom_site_fract_z
 _atom_site_occupancy
  H+  H0  1  0.60695622  0.45069805  0.34686797  1
  H+  H1  1  0.39383638  0.76904233  0.64069171  1
  H+  H2  1  0.74114893  0.12095145  0.17245692  1
  H+  H3  1  0.87240312  0.61916180  0.68148075  1
  H+  H4  1  0.61707955  0.26773496  0.84696041  1
  H+  H5  1  0.85835521  0.13775008  0.81672487  1
  H+  H6  1  0.01546868  0.13596356  0.33522702  1
  H+  H7  1  0.52672749  0.63375228  0.15438563  1
  H+  H8  1  0.84278061  0.91083273  0.72309518  1
  H+  H9  1  0.13907287  0.26879087  0.99269017  1
  H+  H10  1  -0.00846741  0.61075265  0.14568632  1
  H+  H11  1  0.39299768  0.86768662  0.99592413  1
  H+  H12  1  0.47970793  0.11697459  0.16902073  1
  H+  H13  1  0.89505037  0.27524736  0.83710578  1
  H+  H14  1  0.58117547  0.65918055  0.77134160  1
  H+  H15  1  0.97245044  0.34661589  0.99885580  1
  H+  H16  1  0.63737867  0.77041798  0.17070730  1
  H+  H17  1  0.86861154  0.39316876  0.67897094  1
  H+  H18  1  0.10960666  0.90759365  0.35257115  1
  H+  H19  1  0.47915863  0.60900689  0.33061944  1
  H+  H20  1  0.14219384  1.02913530  0.65084137  1
  H+  H21  1  0.83554438  0.91658865  0.38767826  1
  H+  H22  1  0.13247984  0.87029152  0.26568284  1
  H+  H23  1  0.13151650  0.22995719  0.66618848  1
  H+  H24  1  0.97068469  0.86240917  0.33497977  1
  H+  H25  1  0.63039601  0.59602916  -0.01044095  1
  H+  H26  1  0.51734753  0.13421894  0.31204011  1
  H+  H27  1  0.47934297  0.61649375  0.66146559  1
  H+  H28  1  0.88592615  0.02292600  0.17038327  1
  H+  H29  1  0.72370946  0.37554030  0.20591551  1
  H+  H30  1  0.09873440  0.98837964  0.34785891  1
  H+  H31  1  0.73290656  0.86622808  0.66037016  1
  H+  H32  1  0.38043817  0.03475796  0.65543828  1
  H+  H33  1  0.10720001  0.38924724  0.16836413  1
  H+  H34  1  0.47710322  0.60499922  0.84229150  1
  H+  H35  1  0.98194951  0.86304512  0.84044300  1
  H+  H36  1  0.62223896  0.24618163  0.01670160  1
  H+  H37  1  0.15789976  0.61879136  0.31757816  1
  H+  H38  1  0.53501125  0.38832872  1.01470056  1
  H+  H39  1  0.11667734  0.48114763  0.17839194  1
  H+  H40  1  0.87210400  0.22140442  0.49349058  1
  H+  H41  1  0.86473575  0.88790175  0.15881996  1
  H+  H42  1  0.13902198  0.36649151  0.84274834  1
  H+  H43  1  0.27633734  0.80100082  0.70259377  1
  H+  H44  1  0.24576827  0.61555750  0.16494587  1
  H+  H45  1  0.33341010  0.66130702  0.92570618  1
  H+  H46  1  0.36119372  0.23785697  0.00528562  1
  H+  H47  1  0.52978617  0.88645598  0.67273214  1
  H+  H48  1  0.68123515  0.08506280  0.26099837  1
  H+  H49  1  0.90496476  0.79052180  0.99629108  1
  H+  H50  1  0.02491080  0.13367460  0.15738471  1
  H+  H51  1  1.02981514  0.89683005  1.00809876  1
  H+  H52  1  0.62109245  0.15503485  0.01068195  1
  H+  H53  1  0.41383184  1.03745579  0.32038516  1
  H+  H54  1  0.31167405  0.83632241  0.47697381  1
  H+  H55  1  0.85431183  0.13022725  0.00561771  1
  H+  H56  1  0.13437053  0.10740820  0.17155167  1
  H+  H57  1  0.74662198  0.36510206  0.51384377  1
  H+  H58  1  0.36793449  1.02271667  -0.01804686  1
  H+  H59  1  0.11904862  0.97911304  0.82635242  1
  H+  H60  1  0.78456311  0.95843651  0.45058050  1
  H+  H61  1  0.64916323  0.52990939  0.83864990  1
  H+  H62  1  0.89462283  0.77268815  0.84940416  1
  H+  H63  1  0.72168725  0.11529539  0.99066905  1
  H+  H64  1  0.97923272  0.86432657  0.16198496  1
  H+  H65  1  0.84960156  0.37693945  0.16879763  1
  H+  H66  1  1.04655047  0.13835444  0.66737224  1
  H+  H67  1  0.85488370  0.37417223  1.01260740  1
  H+  H68  1  0.66882798  0.83415706  0.57262967  1
  H+  H69  1  0.90217547  0.28245835  0.66193722  1
  H+  H70  1  -0.02945462  0.10882460  -0.00934423  1
  H+  H71  1  0.02703277  0.38859466  0.83270438  1
  H+  H72  1  0.51209434  0.64067457  0.49548926  1
  H+  H73  1  0.24616469  0.14176344  0.46527463  1
  H+  H74  1  0.64463156  0.86961380  0.66377637  1
  H+  H75  1  0.82494298  0.51282157  0.52911546  1
  H+  H76  1  0.64075928  0.61969819  0.15431825  1
  H+  H77  1  0.85832657  0.37422150  0.32993646  1
  H+  H78  1  0.72024961  0.86534869  0.83808277  1
  H+  H79  1  0.84544413  0.64428178  0.50934103  1
  H+  H80  1  0.36886179  0.11279044  0.98288065  1
  H+  H81  1  0.66505614  0.82952296  0.26423683  1
  H+  H82  1  0.09439918  0.69857533  0.35215552  1
  H+  H83  1  0.86573450  0.98419007  0.48842897  1
  H+  H84  1  0.83013727  0.91778755  0.10308651  1
  H+  H85  1  0.36041079  0.47109173  0.82681552  1
  H+  H86  1  0.48919188  0.88505631  0.17289211  1
  H+  H87  1  0.41442091  0.77811079  0.50198472  1
  H+  H88  1  0.19402552  0.36407181  0.32204433  1
  H+  H89  1  0.78173879  0.13459717  0.49534373  1
  H+  H90  1  0.22321211  0.86705637  0.65930175  1
  H+  H91  1  0.10351268  0.47530646  0.32021456  1
  H+  H92  1  0.39024918  0.52319993  0.66340729  1
  H+  H93  1  0.14324224  0.86797042  0.83699178  1
  H+  H94  1  0.63056901  0.98382347  0.49556681  1
  H+  H95  1  0.18177311  0.66193172  0.51136611  1
  H+  H96  1  0.11716971  0.26722740  0.32011839  1
  H+  H97  1  0.11617478  0.23309047  0.48932558  1
  H+  H98  1  0.62822919  0.14583136  0.31551217  1
  H+  H99  1  0.61213393  -0.02094071  0.67551588  1
  H+  H100  1  0.29198318  0.39740514  0.01331678  1
  H+  H101  1  0.97234198  0.36557277  0.17695962  1
  H+  H102  1  0.63071081  0.89308825  0.49560625  1
  H+  H103  1  0.72005966  0.07456404  0.87603671  1
  H+  H104  1  0.38951236  0.72964681  1.00243050  1
  H+  H105  1  0.98489789  0.36031127  0.51087065  1
  H+  H106  1  -0.01316439  0.11500478  0.50110429  1
  H+  H107  1  0.09456823  0.45331739  0.00730300  1
  H+  H108  1  0.12280516  0.72046253  0.13111861  1
  H+  H109  1  0.53602487  0.06060411  0.12244737  1
  H+  H110  1  0.91890704  0.11724427  0.65955422  1
  H+  H111  1  0.62499469  0.99575365  0.83064447  1
  H+  H112  1  0.71879375  0.36178105  -0.00682211  1
  H+  H113  1  0.78628431  -0.01037387  0.87254500  1
  H+  H114  1  0.23227771  0.12085996  0.99819901  1
  H+  H115  1  0.39479501  0.51011821  0.00593502  1
  H+  H116  1  0.02954664  0.38534283  0.67449497  1
  H+  H117  1  0.34053489  0.42005929  0.09371023  1
  H+  H118  1  0.77269772  0.88552590  0.00983650  1
  H+  H119  1  0.36465581  0.14388373  0.15865217  1
  H+  H120  1  0.47349889  0.35844427  0.66011814  1
  H+  H121  1  0.63156902  0.98211310  0.16387074  1
  H+  H122  1  -0.03145955  0.36486951  0.32014098  1
  H+  H123  1  -0.01208939  0.61709880  0.85296783  1
  H+  H124  1  0.90523238  0.46495696  0.46494512  1
  H+  H125  1  0.37824297  0.27399478  0.17821030  1
  H+  H126  1  0.63740014  0.46375620  0.15503259  1
  H+  H127  1  0.39236169  0.86538867  0.33073563  1
  H+  H128  1  0.01970029  0.89079096  0.66825431  1
  H+  H129  1  0.10361252  0.61216960  0.65430606  1
  H+  H130  1  0.88832392  0.11376111  0.16780213  1
  H+  H131  1  0.10651636  0.73880834  0.66920792  1
  H+  H132  1  0.27069203  0.88109658  0.00499778  1
  H+  H133  1  0.89822219  0.61189218  0.86757885  1
  H+  H134  1  0.91350062  0.67581616  0.00729571  1
  H+  H135  1  0.63796720  0.32410054  0.90807789  1
  H+  H136  1  0.85578669  0.46402359  0.33510695  1
  H+  H137  1  0.61704073  0.98408468  0.00754072  1
  H+  H138  1  0.12847671  0.11779872  0.32707017  1
  H+  H139  1  0.77442585  0.62935088  0.84751845  1
  H+  H140  1  0.62646647  0.23556765  0.30415602  1
  H+  H141  1  0.88527980  0.02048438  0.31802553  1
  H+  H142  1  0.83178557  0.67526275  0.43461092  1
  H+  H143  1  0.63134076  0.23990377  0.52204507  1
  H+  H144  1  0.04590396  0.69570850  0.51384417  1
  H+  H145  1  0.86544994  0.89074281  1.00963246  1
  H+  H146  1  0.08989482  0.70308596  0.52272519  1
  H+  H147  1  0.36634742  0.72450147  0.86893664  1
  H+  H148  1  0.17422234  0.08354608  0.93846127  1
  H+  H149  1  0.76308191  0.62963137  0.36318744  1
  H+  H150  1  0.38019589  0.25122906  0.50151379  1
  H+  H151  1  0.29525851  0.65775140  0.49567386  1
  H+  H152  1  -0.04181145  0.60547959  0.32290906  1
  H+  H153  1  0.38930005  1.02286024  0.83213018  1
  H+  H154  1  0.86944847  0.88029043  0.81914427  1
  H+  H155  1  0.89357505  0.58703735  0.62182660  1
  H+  H156  1  0.04901701  0.51498251  0.45757122  1
  H+  H157  1  0.28793132  0.89844293  0.14674279  1
  H+  H158  1  0.85547836  0.96132648  0.81933614  1
  H+  H159  1  0.70409603  0.12010905  0.67773700  1
  H+  H160  1  0.40178055  0.32923745  0.34276915  1
  H+  H161  1  0.64457543  0.10902904  0.17290065  1
  H+  H162  1  0.63992283  0.86711143  -0.00007249  1
  H+  H163  1  0.23756873  0.37041807  0.65944511  1
  H+  H164  1  0.13089630  0.48393923  0.51221875  1
  H+  H165  1  0.61244694  0.38737412  0.66982791  1
  H+  H166  1  0.61926620  0.13369189  0.82655746  1
  H+  H167  1  0.09596122  0.90627909  0.50185274  1
  H+  H168  1  0.72573216  0.85923109  0.51107123  1
  H+  H169  1  0.33254954  0.16722275  0.76922422  1
  H+  H170  1  0.52651812  0.63187568  0.00678237  1
  H+  H171  1  0.78088268  0.63464260  0.14495795  1
  H+  H172  1  0.30993665  0.36447868  0.33263592  1
  H+  H173  1  0.12319475  0.97374099  0.16061465  1
  H+  H174  1  0.71198477  0.61140887  0.65203066  1
  H+  H175  1  0.04264571  0.59282314  0.48318991  1
  H+  H176  1  0.86548268  0.13398414  0.33597058  1
  H+  H177  1  0.23467469  0.93587361  0.49530897  1
  H+  H178  1  0.39699361  0.28130998  0.84045238  1
  H+  H179  1  0.52647177  0.12726144  0.82673283  1
  H+  H180  1  0.48350910  0.87221523  0.84444574  1
  H+  H181  1  0.29200309  0.90619516  0.33458187  1
  H+  H182  1  1.00778437  0.13658298  0.80403531  1
  H+  H183  1  0.35898362  0.05023358  0.47832843  1
  H+  H184  1  0.12206396  1.02914277  0.50280590  1
  H+  H185  1  0.39561878  0.51412118  0.33090829  1
  H+  H186  1  0.13942151  0.52679575  0.83978360  1
  H+  H187  1  0.61537323  0.63361482  0.82968657  1
  H+  H188  1  0.42782501  0.84796570  0.90559277  1
  H+  H189  1  0.36460323  0.63489110  0.64631400  1
  H+  H190  1  0.29231203  0.64910991  0.67454610  1
  H+  H191  1  0.22744336  0.61381909  0.85985611  1
  H+  H192  1  0.64558650  1.00324270  0.33135795  1
  H+  H193  1  0.10916755  0.89400785  0.67040063  1
  H+  H194  1  0.35125894  0.19211534  0.36537766  1
  H+  H195  1  0.35713727  0.38643238  0.16128617  1
  H+  H196  1  0.15070813  0.12205584  0.65103577  1
  H+  H197  1  0.72902673  0.36436358  0.67181535  1
  H+  H198  1  0.38792422  0.37220311  1.00371600  1
  H+  H199  1  0.30696388  0.84031255  0.51049104  1
  H+  H200  1  0.89489289  0.36378587  0.84513191  1
  H+  H201  1  0.12275831  0.39507873  0.49848068  1
  H+  H202  1  0.08956005  0.38242982  0.32367589  1
  H+  H203  1  0.63331742  0.60957316  0.34443500  1
  H+  H204  1  0.39227667  0.85604072  0.65206060  1
  H+  H205  1  0.61396707  0.72499676  1.00496000  1
  H+  H206  1  0.27264796  0.13676495  0.15955955  1
  H+  H207  1  0.38189240  0.90996623  0.15629347  1
  H+  H208  1  0.11492599  0.47387835  0.67681806  1
  H+  H209  1  0.11975051  0.64109384  0.83043227  1
  H+  H210  1  0.64631484  0.11671422  0.51661942  1
  H+  H211  1  0.07791818  0.15877510  0.06195229  1
  H+  H212  1  0.85349674  0.46638410  0.16138469  1
  H+  H213  1  0.88246692  0.85896097  0.64517462  1
  H+  H214  1  0.35972602  0.22764998  0.67571900  1
  H+  H215  1  0.14640834  0.36563337  0.65941244  1
  H+  H216  1  0.85784773  0.22181712  0.00487552  1
  H+  H217  1  1.01539150  0.65360824  0.68038484  1
  H+  H218  1  0.15234985  0.11843180  0.84395263  1
  H+  H219  1  0.71203748  0.62831770  0.50470522  1
  H+  H220  1  0.85444471  0.63013788  0.36099749  1
  H+  H221  1  0.85085280  0.73231755  0.66614543  1
  H+  H222  1  0.10396797  0.58433553  0.98900399  1
  H+  H223  1  0.36797160  0.13666459  0.82491662  1
  H+  H224  1  0.42574281  0.56624128  0.94165002  1
  H+  H225  1  0.72962454  0.86012984  0.32155472  1
  H+  H226  1  0.12269252  0.98193933  0.00853041  1
  H+  H227  1  0.27155591  0.13663874  0.67049390  1
  H+  H228  1  0.23475709  0.36307582  0.50485614  1
  H+  H229  1  0.51112150  0.87304828  0.50303103  1
  H+  H230  1  0.61235158  0.72910613  0.67263407  1
  H+  H231  1  0.39003967  0.60634304  0.85964509  1
  H+  H232  1  0.14520244  0.86010614  0.15481108  1
  H+  H233  1  0.22806567  0.36169140  0.16041867  1
  H+  H234  1  0.27854909  0.88425808  0.82744058  1
  H+  H235  1  0.90565519  0.81438023  0.58923603  1
  H+  H236  1  0.48237021  0.37331359  0.83827760  1
  H+  H237  1  0.14209621  0.77820632  0.84072579  1
  H+  H238  1  0.36780169  0.39031092  0.67388770  1
  H+  H239  1  0.38777391  0.63748920  1.00045174  1
  H+  H240  1  0.38881442  0.03392967  0.17002139  1
  H+  H241  1  0.62447069  0.37399505  0.33642242  1
  H+  H242  1  0.19423039  0.59788093  0.25582385  1
  H+  H243  1  0.89706780  0.11275864  0.50534981  1
  H+  H244  1  0.86611381  0.22873691  0.15506377  1
  H+  H245  1  0.63070116  0.36991715  0.99964942  1
  H+  H246  1  0.36309186  0.38413707  0.82516188  1
  H+  H247  1  0.16384878  1.08213476  0.23306172  1
  H+  H248  1  0.91999669  0.58542734  0.52213667  1
  H+  H249  1  0.62959828  0.50368243  0.99105830  1
  H+  H250  1  0.86227715  0.47873745  0.68619906  1
  H+  H251  1  0.77142209  0.13962855  0.81042835  1
  H+  H252  1  0.60647121  0.63716738  0.66826042  1
  H+  H253  1  0.73852460  0.11825831  0.32432767  1
  H+  H254  1  0.58457587  0.16817123  0.57070262  1
  H+  H255  1  0.23927868  0.11595754  0.84076478  1
  H+  H256  1  0.21221651  0.11065734  0.33941635  1
  H+  H257  1  0.38701050  0.51176138  0.16631895  1
  H+  H258  1  0.87050324  0.63517419  0.15090732  1
  H+  H259  1  0.59031363  0.47625822  0.48841970  1
  H+  H260  1  0.72803992  0.85935617  0.17400686  1
  H+  H261  1  0.21972320  0.35367119  0.83635884  1
  H+  H262  1  0.10931805  0.13070753  0.00349659  1
  H+  H263  1  0.89290274  0.35203726  0.50260072  1
  H+  H264  1  0.89140900  0.77666858  0.15854197  1
  H+  H265  1  0.06308839  0.23255928  0.82260931  1
  H+  H266  1  0.60517462  0.47257760  0.66598761  1
  H+  H267  1  0.61382587  0.72612741  0.33818102  1
  H+  H268  1  0.88231536  1.02000210  -0.00133482  1
  H+  H269  1  0.61955085  0.61798979  0.50209903  1
  H+  H270  1  0.32541890  0.88657510  0.73929371  1
  H+  H271  1  0.88438775  0.77224166  0.33706065  1
  H+  H272  1  0.60559837  0.38599969  0.82980682  1
  H+  H273  1  0.37607827  0.64495809  0.49697324  1
  H+  H274  1  0.36816913  0.61280380  0.34143702  1
  H+  H275  1  0.40948051  0.08157775  0.89168697  1
  H+  H276  1  0.87656922  0.47517133  0.84339763  1
  H+  H277  1  0.36603441  0.52502414  0.51759999  1
  H+  H278  1  0.48162181  0.14545643  0.51345828  1
  H+  H279  1  0.48636200  0.87492723  -0.00140444  1
  H+  H280  1  0.86360538  0.88073687  0.33079753  1
  H+  H281  1  0.37937871  0.12276958  0.66429731  1
  H+  H282  1  0.38441353  0.77535284  0.31907628  1
  H+  H283  1  0.81876616  0.13708669  0.66143731  1
  H+  H284  1  0.36382527  0.35677991  0.49521605  1
  H+  H285  1  0.63802492  0.27706432  0.66750843  1
  H+  H286  1  0.10390177  0.37021902  1.00575226  1
  H+  H287  1  0.40652185  0.45367570  0.48165381  1
  H+  H288  1  0.79683654  0.68656850  0.72542101  1
  H+  H289  1  0.33319313  0.17456422  0.06351435  1
  H+  H290  1  0.33847294  0.92492753  0.05928987  1
  H+  H291  1  0.81700770  0.39779590  0.06925704  1
  H+  H292  1  0.14444881  0.56170524  0.93513384  1
  H+  H293  1  0.69478531  0.62317163  0.21013189  1
  H+  H294  1  0.48036163  0.31681311  0.33712182  1
  H+  H295  1  0.58655536  0.92439122  0.77417612  1
  H+  H296  1  0.88288931  0.27016996  0.32582229  1
  H+  H297  1  0.91393264  0.32226529  0.93874597  1
  H+  H298  1  0.40931560  0.32029014  0.60336853  1
  H+  H299  1  0.21435476  0.95687235  0.27751271  1
  H+  H300  1  0.17295781  0.60458644  0.56741477  1
  H+  H301  1  0.41712812  0.34237740  0.94228067  1
  H+  H302  1  0.11651592  0.14432790  0.48810086  1
  H+  H303  1  0.90399590  0.32399083  0.22900009  1
  H+  H304  1  0.84296667  0.42041432  0.78244788  1
  H+  H305  1  0.41851302  0.57279204  0.22564251  1
  H+  H306  1  0.57953683  0.67236451  0.40034656  1
  H+  H307  1  0.16920204  0.32872839  0.93461161  1
  H+  H308  1  0.31757055  0.71537611  0.76133255  1
  H+  H309  1  0.17842369  0.81402908  0.20189549  1
  H+  H310  1  0.83004074  0.39900666  0.42476516  1
  H+  H311  1  0.44207615  0.84010127  0.56702893  1
  H+  H312  1  0.08416272  0.92183101  0.76610711  1
  H+  H313  1  0.17383775  0.09385208  0.55733926  1
  H+  H314  1  0.36458039  0.62130161  0.14833209  1
  H+  H315  1  0.88632059  0.81016908  0.48096152  1
  H+  H316  1  0.83162643  0.16582761  0.09640134  1
  H+  H317  1  0.05255149  0.52552748  0.61879209  1
  H+  H318  1  0.16371229  0.32750431  0.21738301  1
  H+  H319  1  0.60277695  0.72991767  0.49728083  1
  H+  H320  1  0.61687114  0.41299985  0.09423047  1
  H+  H321  1  0.61591324  0.93605232  0.39681624  1
  H+  H322  1  0.58558286  0.66970863  0.09373951  1
  H+  H323  1  0.62132107  0.88822600  0.16184215  1
  H+  H324  1  0.96207167  0.58617386  0.21124619  1
  H+  H325  1  0.67419158  0.84679291  0.93971296  1
  H+  H326  1  0.40458583  0.31716693  0.24224015  1
  H+  H327  1  0.27249093  0.62198281  0.33535333  1
  H+  H328  1  0.87371896  0.05635200  0.90539133  1
  H+  H329  1  0.85819095  0.68478075  0.05908507  1
  H+  H330  1  0.46502047  0.34459253  0.50655883  1
  H+  H331  1  0.17610030  0.86342329  0.59689284  1
  H+  H332  1  0.08617196  0.65393310  0.07689194  1
  H+  H333  1  0.41415703  0.58252852  0.57594843  1
  H+  H334  1  0.43176514  0.09404129  0.25682679  1
  H+  H335  1  0.68903537  0.34787265  0.57391804  1
  H+  H336  1  0.56930883  0.40625545  0.43642641  1
  H+  H337  1  0.74141303  0.36827153  0.30674102  1
  H+  H338  1  0.36887026  0.88438635  0.82959250  1
  H+  H339  1  0.41216993  0.11294664  0.56468205  1
  H+  H340  1  0.64922818  0.89538392  0.84597042  1
  H+  H341  1  0.61650990  0.11339347  0.66487999  1
  H+  H342  1  0.58654841  0.42109122  0.76680253  1
  H+  H343  1  0.30080018  1.04491876  0.42441413  1
  H+  H344  1  0.63916482  0.89828165  0.33343247  1
  H+  H345  1  0.27874341  0.67110076  0.75885231  1
  H+  H346  1  0.33931434  0.95513817  0.39385824  1
  H+  H347  1  0.09302361  0.72580229  -0.01019717  1
  H+  H348  1  0.09454221  0.91860435  0.09884401  1
  H+  H349  1  0.11521820  0.22164926  0.15269720  1
  H+  H350  1  0.93511451  0.08170836  0.59716569  1
  H+  H351  1  0.51404709  0.14144878  0.67827608  1
  H+  H352  1  0.65058136  0.58106536  0.59356375  1
  H+  H353  1  0.17779143  0.33824956  0.56502075  1
  H+  H354  1  0.57808817  0.16362824  0.73666788  1
  H+  H355  1  0.06046167  0.92734012  0.44322281  1
  H+  H356  1  0.87761936  0.58057358  0.27883912  1
  H+  H357  1  0.42735558  0.85734332  0.23076539  1
  H+  H358  1  0.33754498  0.65463679  0.40176359  1
  H+  H359  1  0.33812965  0.41950287  0.73438779  1
  H+  H360  1  0.83735466  0.16254836  0.39762999  1
  H+  H361  1  0.16295364  0.83483614  0.93252085  1
  H+  H362  1  0.05223376  0.60758291  0.38404792  1
  H+  H363  1  0.58604601  0.15603539  0.09492901  1
  H+  H364  1  0.87461322  -0.02595783  0.66500661  1
  H+  H365  1  0.84636612  0.64569302  0.79678578  1
  H+  H366  1  0.96275205  0.60506328  0.94893195  1
  H+  H367  1  0.66740312  0.57765637  0.90425182  1
  H+  H368  1  0.15738007  0.61981101  0.16628247  1
  H+  H369  1  0.65742294  0.08770081  0.93341160  1
  H+  H370  1  0.08581706  0.41661103  0.77282881  1
  H+  H371  1  0.59316472  0.92640653  0.06864959  1
  H+  H372  1  0.33316642  0.64942421  0.08894923  1
  H+  H373  1  0.13124424  0.86192877  -0.00701901  1
  H+  H374  1  0.17171143  0.83601374  0.49780548  1
  H+  H375  1  0.07739839  0.17116572  0.39473638  1
  H+  H376  1  0.85445736  0.17140162  0.72951744  1
  H+  H377  1  0.92743440  0.85048133  0.93756532  1
  H+  H378  1  0.92352550  0.33793772  0.60196137  1
  H+  H379  1  0.08634624  0.67204109  0.77286244  1
  H+  H380  1  0.91525228  0.08411304  0.26055349  1
  H+  H381  1  0.67522177  0.08231350  0.57092295  1
  H+  H382  1  0.34848754  0.39835243  0.39923536  1
  H+  H383  1  0.66395077  0.56614033  0.29520095  1
  O2-  O384  1  0.08469871  0.15883339  0.14164567  1
  O2-  O385  1  0.08491131  0.17368274  0.47242294  1
  O2-  O386  1  0.00826516  0.19081584  0.80333750  1
  O2-  O387  1  0.07633839  0.41881285  0.18185078  1
  O2-  O388  1  0.09226285  0.42851713  0.49343874  1
  O2-  O389  1  0.08826207  0.42220704  0.81764367  1
  O2-  O390  1  0.09355139  0.65799264  0.12207827  1
  O2-  O391  1  0.01916202  0.54788548  0.45187466  1
  O2-  O392  1  0.08896137  0.67285579  0.81764031  1
  O2-  O393  1  0.09741719  0.91388538  0.14446357  1
  O2-  O394  1  0.05858085  0.92889571  0.48842506  1
  O2-  O395  1  0.08765700  0.91871691  0.81121090  1
  O2-  O396  1  0.33182449  0.17076532  0.14307714  1
  O2-  O397  1  0.29835250  0.18547923  0.44186590  1
  O2-  O398  1  0.33540607  0.16703738  0.81448932  1
  O2-  O399  1  0.33130381  0.41873739  0.14273645  1
  O2-  O400  1  0.35081837  0.40162541  0.47661986  1
  O2-  O401  1  0.33065213  0.41190041  0.80856336  1
  O2-  O402  1  0.33097127  0.64807103  0.13402031  1
  O2-  O403  1  0.35316249  0.67989602  0.47662058  1
  O2-  O404  1  0.33362465  0.66259755  0.88005403  1
  O2-  O405  1  0.34947368  0.93807042  0.13783649  1
  O2-  O406  1  0.31328934  1.00664464  0.44925402  1
  O2-  O407  1  0.33698508  0.91043289  0.80853366  1
  O2-  O408  1  0.56790470  0.11958896  0.13734312  1
  O2-  O409  1  0.59447778  0.17488487  0.52689507  1
  O2-  O410  1  0.58601240  0.15918309  0.80955955  1
  O2-  O411  1  0.63081267  0.41041701  0.13871682  1
  O2-  O412  1  0.54611416  0.42029332  0.47252787  1
  O2-  O413  1  0.58682748  0.42639656  0.81151050  1
  O2-  O414  1  0.58743023  0.66944468  0.14029772  1
  O2-  O415  1  0.57089622  0.67167851  0.47798111  1
  O2-  O416  1  0.57902240  0.65780495  0.81606820  1
  O2-  O417  1  0.59599432  0.92328044  0.14688317  1
  O2-  O418  1  0.60304822  0.92472095  0.47654497  1
  O2-  O419  1  0.58645829  0.92831032  0.81883603  1
  O2-  O420  1  0.83585941  0.16675388  0.14218884  1
  O2-  O421  1  0.84043234  0.16122406  0.47751483  1
  O2-  O422  1  0.83394893  0.16995718  0.79630849  1
  O2-  O423  1  0.81356198  0.40399948  0.16092081  1
  O2-  O424  1  0.84867239  0.41238105  0.46838593  1
  O2-  O425  1  0.84856197  0.41637133  0.82661811  1
  O2-  O426  1  0.84364958  0.66793788  0.13613386  1
  O2-  O427  1  0.82909038  0.68465716  0.48750146  1
  O2-  O428  1  0.84123861  0.66001750  0.83858205  1
  O2-  O429  1  0.83097389  0.91760151  0.14870905  1
  O2-  O430  1  0.81701304  0.93288676  0.46711972  1
  O2-  O431  1  0.83879436  0.90637159  0.79790862  1
  O2-  O432  1  0.16516727  0.07792086  0.18819445  1
  O2-  O433  1  0.16420021  0.09176268  0.51219121  1
  O2-  O434  1  0.17732708  0.08358985  0.85605353  1
  O2-  O435  1  0.16536801  0.32640278  0.17264241  1
  O2-  O436  1  0.17518767  0.33854519  0.51909230  1
  O2-  O437  1  0.16097757  0.32716543  0.85387377  1
  O2-  O438  1  0.18829283  0.59535007  0.18817625  1
  O2-  O439  1  0.19341175  0.61677662  0.52413818  1
  O2-  O440  1  0.16357092  0.58644126  0.85613640  1
  O2-  O441  1  0.17690286  0.82637821  0.15898698  1
  O2-  O442  1  0.18501080  0.88892309  0.51885060  1
  O2-  O443  1  0.17432531  0.83967742  0.85417725  1
  O2-  O444  1  0.42091454  0.09407374  0.18737223  1
  O2-  O445  1  0.42046430  0.12661879  0.52071759  1
  O2-  O446  1  0.41949995  0.08351212  0.84571607  1
  O2-  O447  1  0.39830357  0.32926667  0.19974769  1
  O2-  O448  1  0.40607192  0.30563804  0.52449343  1
  O2-  O449  1  0.42156143  0.34178030  0.85337035  1
  O2-  O450  1  0.42208612  0.57463476  0.18121295  1
  O2-  O451  1  0.40880221  0.58364222  0.52887483  1
  O2-  O452  1  0.41711319  0.56991327  0.85885911  1
  O2-  O453  1  0.43020744  0.86801018  0.18640891  1
  O2-  O454  1  0.44902127  0.83852568  0.51957417  1
  O2-  O455  1  0.42277642  0.84140227  0.86000216  1
  O2-  O456  1  0.68201765  0.08823260  0.19196209  1
  O2-  O457  1  0.67585777  0.08304043  0.52576856  1
  O2-  O458  1  0.68107614  0.08228711  0.84941064  1
  O2-  O459  1  0.67483861  0.37232145  0.23108414  1
  O2-  O460  1  0.68795009  0.34361349  0.52862810  1
  O2-  O461  1  0.62467195  0.32176208  0.86339831  1
  O2-  O462  1  0.67673718  0.59511631  0.17097988  1
  O2-  O463  1  0.65206595  0.58910318  0.51590645  1
  O2-  O464  1  0.68019647  0.58869624  0.85697554  1
  O2-  O465  1  0.66721567  0.82928352  0.18963852  1
  O2-  O466  1  0.66568319  0.83182815  0.52636362  1
  O2-  O467  1  0.69372739  0.88600409  0.86755302  1
  O2-  O468  1  0.91819072  0.08413132  0.18507246  1
  O2-  O469  1  0.92699312  0.08124481  0.51844200  1
  O2-  O470  1  0.84498701  0.03874515  0.86474924  1
  O2-  O471  1  0.90827679  0.32871772  0.18392332  1
  O2-  O472  1  0.92304976  0.32494620  0.52255424  1
  O2-  O473  1  0.92605910  0.33193151  0.85729561  1
  O2-  O474  1  0.93787436  0.58534041  0.17158844  1
  O2-  O475  1  0.86482577  0.57326814  0.53913473  1
  O2-  O476  1  0.93382029  0.58496218  0.87686253  1
  O2-  O477  1  0.91768852  0.83744897  0.17148894  1
  O2-  O478  1  0.89679662  0.77049273  0.50627309  1
  O2-  O479  1  0.92218095  0.83576741  0.85650138  1
  O2-  O480  1  0.15723709  0.08389426  0.31629374  1
  O2-  O481  1  0.17840774  0.08801793  0.63441394  1
  O2-  O482  1  0.17037186  0.08396307  0.98336765  1
  O2-  O483  1  0.14113313  0.32596916  0.30081478  1
  O2-  O484  1  0.17858718  0.33938963  0.64116028  1
  O2-  O485  1  0.17083311  0.32988492  0.97982924  1
  O2-  O486  1  0.19314126  0.59422796  0.30364214  1
  O2-  O487  1  0.11085755  0.56714305  0.63154511  1
  O2-  O488  1  0.13621891  0.55523139  0.97971674  1
  O2-  O489  1  0.18291567  0.89768096  0.29208641  1
  O2-  O490  1  0.16604812  0.84731567  0.64074553  1
  O2-  O491  1  0.15623731  0.82634757  0.97758065  1
  O2-  O492  1  0.44362894  0.09689952  0.30301207  1
  O2-  O493  1  0.41317963  0.09579124  0.64597384  1
  O2-  O494  1  0.38939700  0.07818485  0.96084970  1
  O2-  O495  1  0.41733420  0.28664401  0.32921048  1
  O2-  O496  1  0.41114338  0.32811135  0.64822072  1
  O2-  O497  1  0.41235800  0.33464783  0.98669337  1
  O2-  O498  1  0.41678202  0.57506458  0.31884048  1
  O2-  O499  1  0.41874791  0.58273270  0.64466745  1
  O2-  O500  1  0.42855820  0.57383253  0.98641531  1
  O2-  O501  1  0.42021395  0.83653090  0.31082015  1
  O2-  O502  1  0.42823348  0.83384715  0.63369534  1
  O2-  O503  1  0.42713279  0.84134357  0.98128140  1
  O2-  O504  1  0.67752774  0.08414198  0.30816350  1
  O2-  O505  1  0.65364153  0.08746284  0.65222296  1
  O2-  O506  1  0.65949023  0.08551328  0.97844922  1
  O2-  O507  1  0.67921246  0.33807226  0.29144299  1
  O2-  O508  1  0.67126060  0.33699987  0.65201511  1
  O2-  O509  1  0.65678404  0.33088592  0.98228718  1
  O2-  O510  1  0.66579512  0.57747538  0.33874368  1
  O2-  O511  1  0.65107712  0.57917938  0.63897633  1
  O2-  O512  1  0.65359551  0.56347877  0.96908605  1
  O2-  O513  1  0.66683976  0.83312612  0.31053757  1
  O2-  O514  1  0.67133736  0.83674304  0.64676128  1
  O2-  O515  1  0.66941532  0.83623305  0.98449385  1
  O2-  O516  1  0.91406296  0.08251009  0.30659996  1
  O2-  O517  1  0.93789553  0.07834124  0.64240713  1
  O2-  O518  1  0.90822656  0.07842180  0.97962068  1
  O2-  O519  1  0.90547061  0.32869096  0.30835232  1
  O2-  O520  1  0.92641497  0.34283871  0.64721883  1
  O2-  O521  1  0.90991544  0.31784702  0.98377573  1
  O2-  O522  1  0.89428740  0.57921099  0.32102382  1
  O2-  O523  1  0.90545734  0.59226095  0.66581682  1
  O2-  O524  1  0.97282189  0.62275422  0.99345187  1
  O2-  O525  1  0.91134771  0.82914261  0.31847894  1
  O2-  O526  1  0.90940702  0.82305936  0.63357836  1
  O2-  O527  1  0.92921684  0.85311538  0.98270866  1
  O2-  O528  1  0.07608464  0.15881145  0.01659063  1
  O2-  O529  1  0.07682249  0.17015512  0.34909340  1
  O2-  O530  1  0.10790334  0.16951105  0.67925048  1
  O2-  O531  1  0.06700163  0.39258238  0.02152474  1
  O2-  O532  1  0.06672635  0.41901858  0.33911884  1
  O2-  O533  1  0.08995118  0.41394136  0.69012206  1
  O2-  O534  1  0.06540418  0.66193092  0.00128205  1
  O2-  O535  1  0.06456675  0.63699315  0.34376387  1
  O2-  O536  1  0.07855033  0.68000507  0.68702943  1
  O2-  O537  1  0.09068637  0.92065165  0.02305101  1
  O2-  O538  1  0.07109705  0.92855709  0.36563411  1
  O2-  O539  1  0.07821855  0.92333254  0.68554542  1
  O2-  O540  1  0.32948506  0.17439015  0.01835407  1
  O2-  O541  1  0.30264070  0.14096318  0.38715973  1
  O2-  O542  1  0.33026292  0.16628923  0.69007992  1
  O2-  O543  1  0.35047479  0.42513155  0.03005543  1
  O2-  O544  1  0.36023938  0.40789752  0.35437042  1
  O2-  O545  1  0.34023787  0.42359296  0.68817633  1
  O2-  O546  1  0.35258715  0.66655622  0.00532439  1
  O2-  O547  1  0.33437756  0.64465614  0.35616271  1
  O2-  O548  1  0.33258904  0.66705385  0.64064503  1
  O2-  O549  1  0.33274839  0.91606523  0.01436249  1
  O2-  O550  1  0.34909266  0.93597041  0.35318640  1
  O2-  O551  1  0.31146072  0.86268908  0.69538496  1
  O2-  O552  1  0.59989965  0.18607344  0.03562398  1
  O2-  O553  1  0.59614046  0.17676252  0.32344345  1
  O2-  O554  1  0.57559200  0.16690535  0.69031652  1
  O2-  O555  1  0.59719262  0.42003848  0.02225642  1
  O2-  O556  1  0.58649413  0.39086965  0.35832153  1
  O2-  O557  1  0.57714002  0.41322802  0.68262123  1
  O2-  O558  1  0.58776106  0.66636929  0.02246244  1
  O2-  O559  1  0.58303563  0.66642528  0.35530239  1
  O2-  O560  1  0.57777729  0.66790338  0.68535056  1
  O2-  O561  1  0.58981396  0.92370889  0.02326903  1
  O2-  O562  1  0.61899375  0.93865016  0.35132036  1
  O2-  O563  1  0.58910920  0.91867611  0.68884209  1
  O2-  O564  1  0.82297763  0.15969914  0.02009444  1
  O2-  O565  1  0.83526991  0.16427002  0.35229130  1
  O2-  O566  1  0.87008704  0.17767493  0.68337769  1
  O2-  O567  1  0.82485236  0.40527484  0.02504521  1
  O2-  O568  1  0.82496599  0.40286435  0.34659892  1
  O2-  O569  1  0.83410780  0.41704368  0.69673600  1
  O2-  O570  1  0.87307637  0.69660530  0.01529151  1
  O2-  O571  1  0.82527110  0.66106410  0.37819003  1
  O2-  O572  1  0.81486098  0.67406160  0.68676648  1
  O2-  O573  1  0.83295716  0.91841800  0.02588179  1
  O2-  O574  1  0.83286594  0.91355731  0.34277472  1
  O2-  O575  1  0.83996442  0.91203785  0.67710843  1
