# generated using pymatgen
data_H2O
_symmetry_space_group_name_H-M   'P 1'
_cell_length_a   17.98376175
_cell_length_b   17.98499896
_cell_length_c   21.99979905
_cell_angle_alpha   90.02919632
_cell_angle_beta   89.97064622
_cell_angle_gamma   120.02247107
_symmetry_Int_Tables_number   1
_chemical_formula_structural   H2O
_chemical_formula_sum   'H384 O192'
_cell_volume   6160.86715361
_cell_formula_units_Z   192
loop_
 _symmetry_equiv_pos_site_id
 _symmetry_equiv_pos_as_xyz
  1  'x, y, z'
loop_
 _atom_type_symbol
 _atom_type_oxidation_number
  H+  1.0
  O2-  -2.0
loop_
 _atom_site_type_symbol
 _atom_site_label
 _atom_site_symmetry_multiplicity
 _atom_site_fract_x
 _atom_site_fract_y
 _atom_site_fract_z
 _atom_site_occupancy
  H+  H0  1  0.22409212  0.56095952  0.82880640  1
  H+  H1  1  0.36515031  0.22563619  -0.00488305  1
  H+  H2  1  0.35126321  0.86509879  0.15033079  1
  H+  H3  1  0.20943925  0.11786165  0.83309928  1
  H+  H4  1  0.77213437  0.63345412  1.00443633  1
  H+  H5  1  0.22916041  0.61537567  0.17208238  1
  H+  H6  1  0.64689492  0.78100389  0.18466569  1
  H+  H7  1  0.11306183  0.73087980  0.32546449  1
  H+  H8  1  0.11477766  0.57148189  0.52789133  1
  H+  H9  1  0.36747826  0.13898635  0.33412113  1
  H+  H10  1  0.39318661  0.11022582  0.98618950  1
  H+  H11  1  0.95262629  0.05016786  1.00657281  1
  H+  H12  1  0.48595482  0.86604804  0.84168458  1
  H+  H13  1  0.10083956  0.88193171  0.66568659  1
  H+  H14  1  0.91118824  0.09213842  0.41263422  1
  H+  H15  1  0.25682301  0.57319945  0.34181604  1
  H+  H16  1  0.53267321  0.14225478  1.00929190  1
  H+  H17  1  0.27464413  0.14174854  0.66813112  1
  H+  H18  1  0.64119349  0.27441618  -0.00231896  1
  H+  H19  1  0.73900844  0.36519963  0.50734740  1
  H+  H20  1  0.45285406  0.92597789  0.20914204  1
  H+  H21  1  0.64287482  0.52934552  0.16687271  1
  H+  H22  1  0.97977535  0.86891585  0.32863530  1
  H+  H23  1  0.14124022  0.85546729  0.98694157  1
  H+  H24  1  0.87876085  0.61017370  0.17154718  1
  H+  H25  1  0.59703460  0.50841861  0.31572618  1
  H+  H26  1  0.30173969  0.95207240  0.70413440  1
  H+  H27  1  0.85824294  0.72669491  0.67861472  1
  H+  H28  1  -0.01328724  0.86439409  0.17211312  1
  H+  H29  1  0.57547062  0.65472908  0.73233791  1
  H+  H30  1  0.61681640  0.20594236  0.50344026  1
  H+  H31  1  0.47885279  0.37700255  0.17004235  1
  H+  H32  1  0.26881264  0.59582788  0.83642925  1
  H+  H33  1  0.07857480  0.26348651  0.80858961  1
  H+  H34  1  0.34404799  0.41294622  0.74316056  1
  H+  H35  1  0.50209303  0.07445760  0.18294675  1
  H+  H36  1  0.40854061  0.28080284  0.50767038  1
  H+  H37  1  0.23604672  0.35833569  0.32290326  1
  H+  H38  1  0.23110805  0.35250834  0.51139515  1
  H+  H39  1  0.63757526  0.65860142  0.17170205  1
  H+  H40  1  0.86978960  0.38612888  0.00438514  1
  H+  H41  1  0.12242967  0.89368734  0.15896435  1
  H+  H42  1  0.13156324  0.75460040  0.84127573  1
  H+  H43  1  0.85109037  0.47091342  0.15673839  1
  H+  H44  1  0.59733529  0.87317052  0.50715685  1
  H+  H45  1  0.88864869  0.57031524  0.60068104  1
  H+  H46  1  -0.01628330  0.61221510  -0.00914680  1
  H+  H47  1  0.52265834  0.62763434  0.49582607  1
  H+  H48  1  0.38097546  0.29777198  0.16481621  1
  H+  H49  1  0.11231969  0.08800406  0.84377690  1
  H+  H50  1  0.51447576  0.61918555  0.82579372  1
  H+  H51  1  0.32317006  0.87607931  0.69518324  1
  H+  H52  1  0.88325521  0.61704509  0.50683151  1
  H+  H53  1  0.41142371  0.98929514  0.84283979  1
  H+  H54  1  0.61477923  0.96712650  0.50325728  1
  H+  H55  1  0.75619015  0.39558581  0.82665532  1
  H+  H56  1  -0.04270201  0.59279850  0.51553365  1
  H+  H57  1  0.47428925  0.61468872  0.08715504  1
  H+  H58  1  0.86287939  0.23540984  0.16695155  1
  H+  H59  1  0.13032602  0.84233660  0.83534575  1
  H+  H60  1  0.23081953  0.86362050  0.17196255  1
  H+  H61  1  0.63232317  0.61069921  0.65940580  1
  H+  H62  1  0.62577547  -0.01572915  0.15815552  1
  H+  H63  1  0.87392696  0.52951793  0.83955808  1
  H+  H64  1  0.13962214  0.77817405  0.18038336  1
  H+  H65  1  0.84160327  0.39396997  0.81226171  1
  H+  H66  1  0.40348525  0.58405943  0.90219500  1
  H+  H67  1  0.73509639  0.88826891  0.85442848  1
  H+  H68  1  0.64864182  0.86098117  0.66357113  1
  H+  H69  1  0.37166458  0.73035232  0.15483741  1
  H+  H70  1  0.51845013  0.13807972  0.48980654  1
  H+  H71  1  0.50304094  0.62754224  -0.00619295  1
  H+  H72  1  0.70464961  0.93413716  0.90118342  1
  H+  H73  1  0.11469335  0.13911882  0.67887933  1
  H+  H74  1  0.11909530  0.90280041  0.50649863  1
  H+  H75  1  0.84382453  0.64817840  0.34169454  1
  H+  H76  1  0.38977101  0.37017986  0.99170731  1
  H+  H77  1  0.35681547  0.48237496  -0.00294841  1
  H+  H78  1  0.71455256  0.35315010  0.16397811  1
  H+  H79  1  0.33995832  0.24511964  0.82145930  1
  H+  H80  1  0.86967622  0.35683939  0.66506189  1
  H+  H81  1  0.34185140  0.09607049  0.84751165  1
  H+  H82  1  0.37491631  0.64632803  0.14057455  1
  H+  H83  1  0.58534393  0.17063461  0.07226131  1
  H+  H84  1  0.14111047  0.35413560  0.98321946  1
  H+  H85  1  0.49933163  0.12035197  0.83916405  1
  H+  H86  1  0.86698911  0.16531614  0.46954687  1
  H+  H87  1  0.14056812  0.12325482  0.50413972  1
  H+  H88  1  0.72962534  0.13997187  0.31324372  1
  H+  H89  1  0.50316961  0.84998240  0.35467457  1
  H+  H90  1  0.64992924  0.12787390  0.99853822  1
  H+  H91  1  0.84339957  0.21003491  0.83487271  1
  H+  H92  1  0.36647239  0.22769439  0.33125462  1
  H+  H93  1  0.10572385  0.96036795  0.82486374  1
  H+  H94  1  0.89233478  0.87427106  0.50996848  1
  H+  H95  1  0.02824451  -0.10168829  0.50202904  1
  H+  H96  1  0.49254698  0.61357672  0.34387553  1
  H+  H97  1  0.48833770  0.39275479  0.84723528  1
  H+  H98  1  0.97563912  0.12303067  0.17623709  1
  H+  H99  1  0.91199643  0.31191191  0.31917181  1
  H+  H100  1  0.00151677  0.31969561  0.82561670  1
  H+  H101  1  0.61922308  0.59915785  0.99151203  1
  H+  H102  1  0.53185380  0.39965621  0.69522784  1
  H+  H103  1  0.13218052  0.72968201  -0.00980270  1
  H+  H104  1  0.86364058  0.48939883  0.35498112  1
  H+  H105  1  0.01595329  0.87348576  0.82363164  1
  H+  H106  1  0.38461377  0.83457083  0.99537367  1
  H+  H107  1  0.12243716  0.47197968  0.34626997  1
  H+  H108  1  0.12446927  0.36402880  0.49706921  1
  H+  H109  1  0.38644752  0.35788639  0.32563911  1
  H+  H110  1  0.85779127  0.96996015  0.69017491  1
  H+  H111  1  0.33539953  0.90942023  0.05668075  1
  H+  H112  1  0.88835938  0.26852882  1.00425903  1
  H+  H113  1  0.61207902  0.14743767  0.33408904  1
  H+  H114  1  0.08011024  0.40902795  0.82445641  1
  H+  H115  1  0.12088376  0.13799694  0.33239097  1
  H+  H116  1  0.10542123  0.79793039  0.49957375  1
  H+  H117  1  -0.02307402  0.37035397  0.16911396  1
  H+  H118  1  0.35132555  0.78047078  0.47170834  1
  H+  H119  1  0.60553647  0.97543473  0.82331059  1
  H+  H120  1  0.89115841  0.02566103  0.33103304  1
  H+  H121  1  0.24419150  0.36915334  0.88060976  1
  H+  H122  1  0.85372448  0.22635261  0.68104576  1
  H+  H123  1  0.80213950  0.46588130  0.49744017  1
  H+  H124  1  0.55085316  0.66179018  0.15646806  1
  H+  H125  1  0.37272431  0.38750022  0.83697720  1
  H+  H126  1  0.36726632  0.46099955  0.49886943  1
  H+  H127  1  0.51266265  0.16581046  0.13746340  1
  H+  H128  1  0.11252357  0.62750295  0.68163883  1
  H+  H129  1  0.89451210  0.52324580  -0.00604628  1
  H+  H130  1  -0.04599220  0.62089942  0.31866013  1
  H+  H131  1  0.63124221  0.02599878  0.66333880  1
  H+  H132  1  0.95897252  0.35451678  0.66586722  1
  H+  H133  1  0.10584820  0.13836778  0.15725027  1
  H+  H134  1  0.91397398  0.31281845  0.91531841  1
  H+  H135  1  0.11405887  0.70504175  0.52084371  1
  H+  H136  1  0.23331870  0.86470917  0.33136812  1
  H+  H137  1  0.12000095  0.89206760  0.34392161  1
  H+  H138  1  0.13236930  0.09901621  0.99229338  1
  H+  H139  1  0.09714796  0.70808920  0.67684009  1
  H+  H140  1  0.80108344  0.90222488  0.01092271  1
  H+  H141  1  0.50020986  0.36735153  0.50981818  1
  H+  H142  1  0.59729225  0.42581700  0.43007314  1
  H+  H143  1  0.87175612  0.73058135  0.15922964  1
  H+  H144  1  0.35631288  0.60481424  0.34012668  1
  H+  H145  1  0.64031086  0.84163751  1.01021186  1
  H+  H146  1  0.86601568  0.88944268  0.33604178  1
  H+  H147  1  0.59560374  0.60782479  0.81906196  1
  H+  H148  1  0.64173795  0.39239270  0.85476423  1
  H+  H149  1  0.27975661  0.88166273  0.99610736  1
  H+  H150  1  0.61259557  0.39070058  0.33278862  1
  H+  H151  1  0.11371770  0.22625403  0.49058838  1
  H+  H152  1  0.39775177  0.92783962  0.37364887  1
  H+  H153  1  0.17416202  0.33760364  0.22539509  1
  H+  H154  1  0.77989808  0.64754107  0.49998666  1
  H+  H155  1  0.77871694  0.15750522  0.48367829  1
  H+  H156  1  0.14399127  0.27358525  0.32031465  1
  H+  H157  1  0.87997056  0.10771082  0.69026303  1
  H+  H158  1  0.61405232  0.09421572  0.85118111  1
  H+  H159  1  0.63101561  0.11390631  0.15986576  1
  H+  H160  1  0.47746417  0.36540978  0.99344524  1
  H+  H161  1  0.98339084  0.11512080  0.33040087  1
  H+  H162  1  0.74361595  0.04663099  0.54493157  1
  H+  H163  1  0.02715660  0.87941990  0.00419700  1
  H+  H164  1  0.11474608  0.38716604  0.15554727  1
  H+  H165  1  0.62374296  0.26366230  0.16555224  1
  H+  H166  1  0.36513793  0.14378885  0.67249486  1
  H+  H167  1  -0.02619308  0.86500516  0.66215034  1
  H+  H168  1  0.89777746  0.86859850  -0.00355886  1
  H+  H169  1  0.72689797  0.34830575  0.63065095  1
  H+  H170  1  0.84272892  0.62826539  0.83097318  1
  H+  H171  1  0.86094165  0.97158069  0.82900148  1
  H+  H172  1  0.16912171  0.82660328  0.92436638  1
  H+  H173  1  0.73159487  0.36377824  -0.00656991  1
  H+  H174  1  0.12987349  0.26743055  0.65510475  1
  H+  H175  1  0.32480344  0.67129568  0.48859867  1
  H+  H176  1  0.88738649  0.78158149  0.33012178  1
  H+  H177  1  0.37172747  -0.04273435  0.15959020  1
  H+  H178  1  0.63287487  0.11675351  0.65851496  1
  H+  H179  1  0.14191596  0.26697491  0.97958521  1
  H+  H180  1  0.27796941  0.13498624  -0.00336253  1
  H+  H181  1  0.59562110  0.26397749  0.82084485  1
  H+  H182  1  0.07227175  0.54536802  0.83928942  1
  H+  H183  1  0.86817328  0.16088568  0.33143468  1
  H+  H184  1  0.86141910  0.14517993  0.16860939  1
  H+  H185  1  0.16467643  0.32544581  0.57141148  1
  H+  H186  1  0.36956750  0.10412908  0.15674683  1
  H+  H187  1  0.64825630  0.52524180  0.50559521  1
  H+  H188  1  0.15474261  0.40304889  0.34586088  1
  H+  H189  1  0.37336078  0.37624825  0.49798743  1
  H+  H190  1  0.17987657  0.84479459  0.26885887  1
  H+  H191  1  0.37744347  0.52101799  0.84122721  1
  H+  H192  1  0.77227601  0.88780241  0.49287024  1
  H+  H193  1  0.14542054  0.03771967  0.50727566  1
  H+  H194  1  0.06711388  0.15302080  0.06403134  1
  H+  H195  1  0.96650957  0.11299457  0.83654825  1
  H+  H196  1  0.65013068  0.56847768  0.93332375  1
  H+  H197  1  0.88308424  0.86154039  0.66590249  1
  H+  H198  1  0.62629046  0.27889455  0.32094766  1
  H+  H199  1  0.11185148  0.63617591  0.16465534  1
  H+  H200  1  0.08713588  0.57655609  0.31288770  1
  H+  H201  1  0.15479324  0.55247896  0.61398959  1
  H+  H202  1  0.18952663  0.83748607  0.65952986  1
  H+  H203  1  0.94035294  0.37230443  0.85801874  1
  H+  H204  1  0.09900843  0.45676782  0.68201237  1
  H+  H205  1  0.61347199  0.38400255  0.00597531  1
  H+  H206  1  0.19806212  0.56295102  0.51580101  1
  H+  H207  1  0.65677460  0.41726194  0.47923526  1
  H+  H208  1  0.37212370  0.46984303  0.34882568  1
  H+  H209  1  0.64960027  0.77786022  0.33356143  1
  H+  H210  1  0.23119336  0.37170590  0.16505883  1
  H+  H211  1  0.88327015  0.89819594  0.15926059  1
  H+  H212  1  0.88777352  0.77397960  0.99542961  1
  H+  H213  1  0.48279059  0.90311408  0.53773638  1
  H+  H214  1  0.72429852  0.12252580  0.16546464  1
  H+  H215  1  0.73459572  0.61632645  0.17300393  1
  H+  H216  1  0.38182002  0.88163549  0.84058861  1
  H+  H217  1  0.87006180  0.76331950  0.84337185  1
  H+  H218  1  0.83695392  0.66955041  0.09976409  1
  H+  H219  1  0.70970783  0.10631020  0.83955438  1
  H+  H220  1  0.35374066  0.81259021  0.33288478  1
  H+  H221  1  0.21912093  0.59258612  0.66994278  1
  H+  H222  1  0.61862485  0.48887665  0.68700412  1
  H+  H223  1  0.14995121  0.24409859  0.82465957  1
  H+  H224  1  0.91115935  0.82560620  0.90084945  1
  H+  H225  1  0.78368230  0.14777185  0.01083876  1
  H+  H226  1  0.85293050  0.87799587  0.83498472  1
  H+  H227  1  0.32465456  0.06773296  0.16234646  1
  H+  H228  1  0.43072633  0.86652571  0.69404974  1
  H+  H229  1  0.86648233  0.60078174  0.66315441  1
  H+  H230  1  0.13488065  0.02819009  0.16719416  1
  H+  H231  1  0.76652054  0.13569231  0.67869295  1
  H+  H232  1  0.63606779  0.76937180  0.51112487  1
  H+  H233  1  0.37690673  0.58474436  0.50944154  1
  H+  H234  1  0.52203816  0.85441192  0.01269546  1
  H+  H235  1  1.01448541  0.62890910  0.83001371  1
  H+  H236  1  0.86192299  0.63448113  1.00509882  1
  H+  H237  1  0.96295553  0.60374217  0.18356526  1
  H+  H238  1  0.39355424  0.02060797  0.99054271  1
  H+  H239  1  0.27885061  0.15374454  0.48823375  1
  H+  H240  1  0.11171821  0.23003905  0.15316231  1
  H+  H241  1  0.25115273  0.87612100  0.50508230  1
  H+  H242  1  0.60999617  0.38676410  0.15745852  1
  H+  H243  1  0.25677040  0.16641668  0.14686546  1
  H+  H244  1  0.87366294  0.10086827  0.83697306  1
  H+  H245  1  0.40671479  0.64848157  0.81742092  1
  H+  H246  1  0.41342233  0.04112347  0.64443364  1
  H+  H247  1  0.09429348  0.43947601  0.50198184  1
  H+  H248  1  0.34979888  0.71627048  0.66835155  1
  H+  H249  1  0.59764182  0.45375226  0.77841794  1
  H+  H250  1  0.11593916  0.47653631  0.15042423  1
  H+  H251  1  0.37959707  0.12102455  0.49947607  1
  H+  H252  1  0.84062240  0.46980141  0.66333384  1
  H+  H253  1  0.76731018  0.63920537  0.67665169  1
  H+  H254  1  0.87806487  0.98475736  0.16077626  1
  H+  H255  1  0.62240918  0.23272881  0.64935894  1
  H+  H256  1  0.53975384  0.89495249  0.16829048  1
  H+  H257  1  0.09025155  0.91606395  0.09721973  1
  H+  H258  1  0.37672923  0.47918029  0.68048125  1
  H+  H259  1  0.86870748  0.73854403  0.50066599  1
  H+  H260  1  0.38427918  0.60146886  0.66024890  1
  H+  H261  1  0.73353668  0.85484565  0.66577312  1
  H+  H262  1  0.32805597  0.76851811  0.50195860  1
  H+  H263  1  0.37015036  0.40654048  0.15490286  1
  H+  H264  1  0.61033346  0.72060372  0.67460435  1
  H+  H265  1  0.40527088  0.77508039  0.83463883  1
  H+  H266  1  0.64012621  0.61001219  0.51114794  1
  H+  H267  1  0.53958352  0.87467269  0.66816896  1
  H+  H268  1  0.11690761  -0.03256284  1.00303973  1
  H+  H269  1  0.63082412  0.57102351  0.25703853  1
  H+  H270  1  0.33616122  0.40482104  0.40515907  1
  H+  H271  1  0.52113620  0.38357958  0.33959532  1
  H+  H272  1  0.34555513  0.08446656  0.81529978  1
  H+  H273  1  0.02394673  0.14110967  0.47296254  1
  H+  H274  1  0.38240813  0.38528718  0.67833891  1
  H+  H275  1  0.14331232  0.02706281  0.32483848  1
  H+  H276  1  0.64310847  0.87741056  0.18110657  1
  H+  H277  1  0.49154376  0.13453713  0.65372080  1
  H+  H278  1  0.62201452  0.63090242  0.33581289  1
  H+  H279  1  0.91916089  0.84334908  0.57107084  1
  H+  H280  1  0.15445632  0.60439251  0.97345705  1
  H+  H281  1  0.70415591  0.57701148  0.83236053  1
  H+  H282  1  0.13908671  0.02713918  0.65825770  1
  H+  H283  1  0.11826143  0.46366790  0.99786555  1
  H+  H284  1  0.38816014  1.02923339  0.33779708  1
  H+  H285  1  0.88281681  0.03202934  0.47008586  1
  H+  H286  1  0.85834300  0.38636820  0.15563869  1
  H+  H287  1  0.96937623  0.10723089  0.68726115  1
  H+  H288  1  0.33741466  0.17826443  0.42760963  1
  H+  H289  1  0.16970112  0.09187527  0.60103150  1
  H+  H290  1  0.66629988  0.57840854  0.60277098  1
  H+  H291  1  0.81230396  0.65659167  0.77089582  1
  H+  H292  1  0.09046245  0.92357818  0.40233779  1
  H+  H293  1  0.90226395  0.39351423  0.33106336  1
  H+  H294  1  0.41100067  0.54361931  0.13369439  1
  H+  H295  1  0.23239100  0.58516561  0.96568764  1
  H+  H296  1  0.39199163  0.27800584  0.66260184  1
  H+  H297  1  0.91939008  0.09231831  0.23721701  1
  H+  H298  1  0.66738032  0.84470791  0.24774331  1
  H+  H299  1  0.88578001  0.30915307  0.50295796  1
  H+  H300  1  0.51032629  0.22989607  0.78331243  1
  H+  H301  1  0.41953143  0.81434149  0.93618223  1
  H+  H302  1  0.56242029  0.89125931  0.41304968  1
  H+  H303  1  0.48053325  0.11606517  0.33040105  1
  H+  H304  1  0.30310104  0.60935717  0.43324585  1
  H+  H305  1  0.40792623  0.86460235  0.62238609  1
  H+  H306  1  0.45385331  0.58059645  0.28029366  1
  H+  H307  1  0.27553222  0.38642197  -0.00164178  1
  H+  H308  1  0.06072756  0.66734599  0.37776914  1
  H+  H309  1  0.16352513  0.07355370  0.93198105  1
  H+  H310  1  0.82241588  0.89937184  0.74166214  1
  H+  H311  1  0.08803760  0.63795245  0.46666503  1
  H+  H312  1  0.41594591  0.56651834  0.56931312  1
  H+  H313  1  0.61579203  0.89399427  0.82995460  1
  H+  H314  1  0.92227127  0.35560981  0.23031367  1
  H+  H315  1  0.69764143  0.70059959  0.37595487  1
  H+  H316  1  0.06230744  0.37916193  0.73087776  1
  H+  H317  1  0.92574805  0.10656610  0.57469225  1
  H+  H318  1  0.65228593  0.33284575  0.25970648  1
  H+  H319  1  0.77655809  0.89129671  0.33804091  1
  H+  H320  1  0.81538396  0.15891472  0.77159543  1
  H+  H321  1  0.07959168  0.65083915  0.77442668  1
  H+  H322  1  0.66434974  0.10054514  0.25847435  1
  H+  H323  1  0.44155127  0.04447784  0.24293146  1
  H+  H324  1  0.58883126  0.19712379  0.71834377  1
  H+  H325  1  0.39556786  0.90770381  0.53547394  1
  H+  H326  1  0.42412600  0.34892973  0.90470911  1
  H+  H327  1  0.47664424  0.60640169  0.66301440  1
  H+  H328  1  0.83570778  0.19681291  0.38459018  1
  H+  H329  1  0.86134127  0.93159936  0.06885332  1
  H+  H330  1  0.47250806  0.72776980  0.77814427  1
  H+  H331  1  0.58486586  0.89831266  0.06902786  1
  H+  H332  1  0.16366729  0.08626231  0.22731914  1
  H+  H333  1  0.61080798  0.47219472  0.00458934  1
  H+  H334  1  0.13679233  0.67326317  0.04335552  1
  H+  H335  1  0.58283774  0.41913643  0.09861443  1
  H+  H336  1  0.59668065  0.70483418  0.01249445  1
  H+  H337  1  0.06324284  0.66378849  0.11675813  1
  H+  H338  1  0.83331226  0.68505692  0.40441819  1
  H+  H339  1  0.42574875  0.83630221  0.24104892  1
  H+  H340  1  0.82965450  0.91063350  0.43201832  1
  H+  H341  1  0.13974192  0.81113887  0.59459324  1
  H+  H342  1  0.11063815  0.41185885  0.43322992  1
  H+  H343  1  0.35942412  0.72832120  0.32711555  1
  H+  H344  1  0.32002628  0.19272217  0.08979087  1
  H+  H345  1  0.08019373  0.91489023  0.72765229  1
  H+  H346  1  0.62898347  0.85570617  0.33953277  1
  H+  H347  1  0.03536622  0.47797233  0.29387328  1
  H+  H348  1  0.88812534  0.06165717  0.57541856  1
  H+  H349  1  0.58196094  0.17237683  0.39661811  1
  H+  H350  1  0.67258785  0.08817150  0.94191622  1
  H+  H351  1  0.83872430  0.17555975  0.07181486  1
  H+  H352  1  0.68444419  0.07783529  0.57265778  1
  H+  H353  1  0.41225476  0.09728642  0.56003259  1
  H+  H354  1  0.35353894  0.66786391  0.72616642  1
  H+  H355  1  0.82153495  0.42055799  0.40747453  1
  H+  H356  1  0.67441916  0.81880846  0.95201080  1
  H+  H357  1  0.15392864  0.57006356  0.22339238  1
  H+  H358  1  0.33495708  0.97581903  0.50298212  1
  H+  H359  1  0.58484331  0.91164182  0.73344933  1
  H+  H360  1  0.31189120  0.19045760  0.76043737  1
  H+  H361  1  0.90552861  0.34490422  0.56843596  1
  H+  H362  1  0.66426024  0.34170439  0.90623678  1
  H+  H363  1  0.33139674  0.91571726  0.79230633  1
  H+  H364  1  0.79860067  0.40782891  0.72045800  1
  H+  H365  1  0.67065343  0.82883064  0.57003908  1
  H+  H366  1  0.90938047  0.58558395  0.90067414  1
  H+  H367  1  -0.01971212  0.35766845  -0.00361112  1
  H+  H368  1  0.08967962  0.40863341  0.05957447  1
  H+  H369  1  0.92636626  0.83553208  0.23171323  1
  H+  H370  1  0.43284063  0.34322361  0.60621908  1
  H+  H371  1  0.23298806  0.11565639  0.32130539  1
  H+  H372  1  0.10558908  0.51371000  0.89358173  1
  H+  H373  1  0.32490952  0.91366431  0.42020104  1
  H+  H374  1  0.83613047  0.41672448  0.06149814  1
  H+  H375  1  0.09166281  0.18307337  0.73492384  1
  H+  H376  1  0.09562432  0.17179834  0.39223676  1
  H+  H377  1  0.33472068  0.42398080  0.09256023  1
  H+  H378  1  0.88549494  0.57754571  0.26776354  1
  H+  H379  1  0.38134857  0.68308308  -0.01567209  1
  H+  H380  1  0.59244769  0.66364505  0.44058854  1
  H+  H381  1  0.12160386  0.35145317  0.65223764  1
  H+  H382  1  0.41793765  0.33792588  0.26255904  1
  H+  H383  1  0.46210699  0.07897051  0.90592072  1
  O2-  O384  1  0.07603640  0.16866441  0.14061058  1
  O2-  O385  1  0.08792481  0.16877239  0.47035109  1
  O2-  O386  1  0.09015190  0.21483694  0.81020601  1
  O2-  O387  1  0.08311089  0.41509215  0.13830474  1
  O2-  O388  1  0.08773201  0.38924853  0.47647995  1
  O2-  O389  1  0.05932311  0.35078336  0.80648757  1
  O2-  O390  1  0.07796603  0.66694947  0.15970143  1
  O2-  O391  1  0.08004737  0.63928586  0.51028187  1
  O2-  O392  1  0.07473094  0.64522963  0.82041892  1
  O2-  O393  1  0.09045900  0.92123615  0.14266847  1
  O2-  O394  1  0.08916105  0.92876561  0.48588679  1
  O2-  O395  1  0.07556476  0.90173782  0.80716417  1
  O2-  O396  1  0.30726277  0.21483372  0.12705060  1
  O2-  O397  1  0.33935485  0.18190764  0.47313248  1
  O2-  O398  1  0.29040563  0.20016841  0.79942079  1
  O2-  O399  1  0.33803530  0.43394454  0.13755770  1
  O2-  O400  1  0.33703522  0.40044962  0.48349352  1
  O2-  O401  1  0.33546572  0.41364887  0.81757808  1
  O2-  O402  1  0.33558735  0.66827814  0.15145632  1
  O2-  O403  1  0.30236565  0.61050459  0.47878266  1
  O2-  O404  1  0.41246680  0.69912623  0.79088565  1
  O2-  O405  1  0.32867564  0.90287975  0.13820378  1
  O2-  O406  1  0.31313405  0.91444976  0.49145182  1
  O2-  O407  1  0.36051745  0.92511944  0.83306747  1
  O2-  O408  1  0.56412566  0.16149188  0.14265683  1
  O2-  O409  1  0.57730521  0.16171403  0.47408777  1
  O2-  O410  1  0.55265529  0.21385022  0.79521512  1
  O2-  O411  1  0.58452225  0.42279740  0.14397697  1
  O2-  O412  1  0.60668919  0.42725191  0.47512045  1
  O2-  O413  1  0.59997234  0.45483570  0.82742408  1
  O2-  O414  1  0.61352069  0.69747743  0.16505453  1
  O2-  O415  1  0.58488423  0.66227395  0.48545117  1
  O2-  O416  1  0.57125792  0.64345252  0.80527201  1
  O2-  O417  1  0.59860419  0.92027699  0.15068267  1
  O2-  O418  1  0.56935262  0.90674353  0.49451231  1
  O2-  O419  1  0.57940286  0.91396857  0.80812081  1
  O2-  O420  1  0.83099355  0.17465662  0.15262577  1
  O2-  O421  1  0.83368348  0.19468135  0.46269457  1
  O2-  O422  1  0.80962708  0.15158216  0.81733713  1
  O2-  O423  1  0.82496084  0.41246733  0.13840882  1
  O2-  O424  1  0.75313449  0.41487515  0.47885143  1
  O2-  O425  1  0.81304130  0.42700931  0.80484586  1
  O2-  O426  1  0.83915672  0.66915399  0.14512923  1
  O2-  O427  1  0.83967457  0.67939437  0.48326299  1
  O2-  O428  1  0.80320219  0.64886722  0.81629031  1
  O2-  O429  1  0.85635238  0.92879314  0.14012674  1
  O2-  O430  1  0.83250582  0.91844000  0.47720842  1
  O2-  O431  1  0.82298825  0.90839837  0.81940572  1
  O2-  O432  1  0.15878601  0.08824885  0.18226057  1
  O2-  O433  1  0.17532671  0.09860796  0.52125345  1
  O2-  O434  1  0.15498822  0.07120340  0.85278538  1
  O2-  O435  1  0.17063175  0.33779046  0.18015587  1
  O2-  O436  1  0.16927456  0.32567876  0.52313816  1
  O2-  O437  1  0.24622572  0.35566400  0.83717229  1
  O2-  O438  1  0.16551776  0.58461649  0.17962396  1
  O2-  O439  1  0.14076921  0.53401187  0.53560205  1
  O2-  O440  1  0.06796988  0.49241063  0.85734667  1
  O2-  O441  1  0.17320143  0.83975551  0.19215897  1
  O2-  O442  1  0.15186440  0.80423710  0.52579211  1
  O2-  O443  1  0.16255301  0.81654446  0.85334754  1
  O2-  O444  1  0.45491418  0.02224730  0.20542316  1
  O2-  O445  1  0.40224297  0.08422432  0.51609296  1
  O2-  O446  1  0.48032672  0.06814334  0.86480167  1
  O2-  O447  1  0.41927777  0.35387953  0.18627939  1
  O2-  O448  1  0.44060110  0.33909613  0.52669899  1
  O2-  O449  1  0.42674576  0.35533701  0.85834644  1
  O2-  O450  1  0.44858478  0.60723411  0.12803843  1
  O2-  O451  1  0.41676665  0.56515321  0.52391596  1
  O2-  O452  1  0.41215533  0.58172689  0.85433966  1
  O2-  O453  1  0.44108302  0.86590883  0.20120242  1
  O2-  O454  1  0.44058175  0.90999809  0.56302299  1
  O2-  O455  1  0.42426628  0.83093918  0.85610131  1
  O2-  O456  1  0.66198965  0.08585444  0.17649590  1
  O2-  O457  1  0.70170109  0.06315923  0.53292266  1
  O2-  O458  1  0.64969370  0.06785866  0.85644954  1
  O2-  O459  1  0.65425887  0.32642082  0.17857982  1
  O2-  O460  1  0.70002490  0.28174412  0.55475003  1
  O2-  O461  1  0.66133943  0.34983568  0.86072771  1
  O2-  O462  1  0.67284372  0.58836707  0.18502369  1
  O2-  O463  1  0.67439561  0.58378697  0.52538430  1
  O2-  O464  1  0.64147893  0.54516903  0.84815851  1
  O2-  O465  1  0.67166705  0.84577296  0.20136122  1
  O2-  O466  1  0.66571827  0.83053017  0.52473607  1
  O2-  O467  1  0.68259721  0.88248186  0.87620151  1
  O2-  O468  1  0.91563314  0.09183618  0.19241879  1
  O2-  O469  1  0.91466213  0.09374757  0.45744250  1
  O2-  O470  1  0.90748455  0.07329848  0.84889467  1
  O2-  O471  1  0.91729907  0.34456269  0.18526895  1
  O2-  O472  1  0.91882415  0.36293067  0.52568817  1
  O2-  O473  1  0.91269680  0.31138750  0.86842092  1
  O2-  O474  1  0.90026483  0.57322579  0.19039145  1
  O2-  O475  1  0.89609443  0.57288348  0.52300053  1
  O2-  O476  1  0.90556973  0.58923403  0.85559246  1
  O2-  O477  1  0.92579103  0.83254973  0.18638506  1
  O2-  O478  1  0.92498349  0.84667544  0.52539186  1
  O2-  O479  1  0.90725469  0.82435421  0.85529231  1
  O2-  O480  1  0.17160424  0.08592167  0.30701174  1
  O2-  O481  1  0.17097938  0.08932299  0.64643005  1
  O2-  O482  1  0.16717000  0.07373695  0.97726338  1
  O2-  O483  1  0.17679503  0.33492823  0.30639816  1
  O2-  O484  1  0.15640245  0.32609853  0.63663816  1
  O2-  O485  1  0.17439656  0.32746552  0.96680541  1
  O2-  O486  1  0.09408964  0.52889649  0.29665550  1
  O2-  O487  1  0.15741004  0.56124350  0.65879073  1
  O2-  O488  1  0.16949027  0.56065258  0.96109356  1
  O2-  O489  1  0.17473911  0.83791907  0.31437189  1
  O2-  O490  1  0.13261850  0.81413695  0.64123776  1
  O2-  O491  1  0.17333505  0.82754819  0.97098172  1
  O2-  O492  1  0.41917439  0.08159267  0.31310490  1
  O2-  O493  1  0.42808555  0.10091049  0.64139131  1
  O2-  O494  1  0.42633680  0.08103363  0.97523329  1
  O2-  O495  1  0.41684613  0.32949639  0.30786099  1
  O2-  O496  1  0.42499553  0.34093416  0.65156342  1
  O2-  O497  1  0.41804293  0.33810250  0.97566925  1
  O2-  O498  1  0.43774005  0.58253276  0.32242502  1
  O2-  O499  1  0.41448630  0.56922975  0.64940070  1
  O2-  O500  1  0.39716289  0.58280073  0.96727810  1
  O2-  O501  1  0.38983692  0.79058912  0.31687874  1
  O2-  O502  1  0.38425138  0.83645597  0.66493328  1
  O2-  O503  1  0.41353362  0.80333879  0.98058930  1
  O2-  O504  1  0.66772957  0.10700971  0.30330415  1
  O2-  O505  1  0.66298280  0.08491516  0.64664288  1
  O2-  O506  1  0.68329054  0.10025307  0.98547794  1
  O2-  O507  1  0.65319932  0.33830156  0.30465897  1
  O2-  O508  1  0.67168527  0.31021801  0.60753470  1
  O2-  O509  1  0.67013038  0.33462775  0.98007720  1
  O2-  O510  1  0.59604530  0.55793527  0.29501884  1
  O2-  O511  1  0.66476887  0.58089949  0.64835122  1
  O2-  O512  1  0.65668604  0.57554753  0.97789930  1
  O2-  O513  1  0.66774174  0.83706874  0.31893069  1
  O2-  O514  1  0.67273393  0.82550809  0.64862547  1
  O2-  O515  1  0.67502032  0.81388370  0.99654494  1
  O2-  O516  1  0.91987232  0.08931674  0.32423861  1
  O2-  O517  1  0.90608659  0.07048671  0.68950165  1
  O2-  O518  1  0.98554335  0.11165854  0.99405302  1
  O2-  O519  1  0.93502807  0.37244888  0.30581325  1
  O2-  O520  1  0.89724496  0.32244447  0.65368474  1
  O2-  O521  1  0.91840775  0.32971140  0.98470923  1
  O2-  O522  1  0.89132428  0.58897937  0.31250591  1
  O2-  O523  1  0.88762806  0.56411962  0.64568886  1
  O2-  O524  1  0.92233765  0.58484723  0.98002395  1
  O2-  O525  1  0.92086991  0.84118590  0.31137577  1
  O2-  O526  1  0.91283946  0.83211355  0.64758440  1
  O2-  O527  1  0.92234003  0.83327200  0.97896155  1
  O2-  O528  1  0.07224541  0.14554341  0.01882914  1
  O2-  O529  1  0.09093488  0.16936334  0.34680707  1
  O2-  O530  1  0.08406054  0.17020009  0.69050992  1
  O2-  O531  1  0.08856679  0.40387935  0.01425986  1
  O2-  O532  1  0.15280364  0.44887594  0.37098810  1
  O2-  O533  1  0.06410931  0.39295104  0.68675175  1
  O2-  O534  1  0.10714752  0.66753832  0.00516927  1
  O2-  O535  1  0.07307476  0.66818814  0.33464452  1
  O2-  O536  1  0.08792386  0.65906747  0.70226177  1
  O2-  O537  1  0.08817517  0.90724486  0.01885621  1
  O2-  O538  1  0.08969114  0.92280792  0.35719811  1
  O2-  O539  1  0.08038441  0.92083238  0.68245739  1
  O2-  O540  1  0.33909841  0.16551206  0.01009705  1
  O2-  O541  1  0.33543857  0.16782274  0.34864851  1
  O2-  O542  1  0.33511526  0.17522654  0.68443003  1
  O2-  O543  1  0.33567300  0.42246732  0.01371050  1
  O2-  O544  1  0.33618972  0.40862497  0.35960449  1
  O2-  O545  1  0.35211235  0.41745137  0.69699197  1
  O2-  O546  1  0.34299492  0.61997054  -0.01370404  1
  O2-  O547  1  0.31335579  0.62064581  0.35408068  1
  O2-  O548  1  0.33312839  0.65793765  0.68289689  1
  O2-  O549  1  0.34020125  0.91023344  0.01163126  1
  O2-  O550  1  0.33815516  0.91465607  0.37447922  1
  O2-  O551  1  0.29108064  0.89730005  0.72062594  1
  O2-  O552  1  0.59188897  0.17634580  0.02545991  1
  O2-  O553  1  0.57649906  0.17189084  0.35124511  1
  O2-  O554  1  0.58760765  0.17870628  0.67587072  1
  O2-  O555  1  0.57996062  0.41159574  0.01991703  1
  O2-  O556  1  0.58226591  0.42051367  0.35188099  1
  O2-  O557  1  0.58881862  0.43641482  0.71363780  1
  O2-  O558  1  0.55565462  0.64196512  0.01801823  1
  O2-  O559  1  0.63788051  0.68276164  0.36593739  1
  O2-  O560  1  0.57555450  0.65858364  0.68615453  1
  O2-  O561  1  0.58294175  0.88430196  0.02544527  1
  O2-  O562  1  0.56310635  0.88308127  0.36840102  1
  O2-  O563  1  0.59287424  0.91656923  0.68766206  1
  O2-  O564  1  0.84404063  0.17850355  0.02691065  1
  O2-  O565  1  0.84349470  0.19803995  0.33942128  1
  O2-  O566  1  0.82445763  0.16546934  0.69769756  1
  O2-  O567  1  0.83981031  0.41882529  0.01587449  1
  O2-  O568  1  0.86585228  0.44168282  0.37538129  1
  O2-  O569  1  0.80890170  0.40594643  0.67663883  1
  O2-  O570  1  0.83184341  0.66478025  0.02019077  1
  O2-  O571  1  0.82568352  0.68750802  0.35968140  1
  O2-  O572  1  0.82578886  0.66722672  0.69543581  1
  O2-  O573  1  0.86250924  0.93224642  0.02229857  1
  O2-  O574  1  0.83693620  0.92026137  0.35339091  1
  O2-  O575  1  0.82729630  0.90491370  0.69629273  1
