# generated using pymatgen
data_H2O
_symmetry_space_group_name_H-M   'P 1'
_cell_length_a   18.00242584
_cell_length_b   18.00265097
_cell_length_c   22.01712552
_cell_angle_alpha   89.96723231
_cell_angle_beta   90.02061669
_cell_angle_gamma   119.98685613
_symmetry_Int_Tables_number   1
_chemical_formula_structural   H2O
_chemical_formula_sum   'H384 O192'
_cell_volume   6180.39418383
_cell_formula_units_Z   192
loop_
 _symmetry_equiv_pos_site_id
 _symmetry_equiv_pos_as_xyz
  1  'x, y, z'
loop_
 _atom_type_symbol
 _atom_type_oxidation_number
  H+  1.0
  O2-  -2.0
loop_
 _atom_site_type_symbol
 _atom_site_label
 _atom_site_symmetry_multiplicity
 _atom_site_fract_x
 _atom_site_fract_y
 _atom_site_fract_z
 _atom_site_occupancy
  H+  H0  1  0.66690617  0.56777392  0.63559126  1
  H+  H1  1  0.14613235  0.52211951  0.33093653  1
  H+  H2  1  0.14396933  0.30886120  0.44904152  1
  H+  H3  1  0.57807352  0.36755545  0.66702955  1
  H+  H4  1  0.72820883  0.61673663  0.32463118  1
  H+  H5  1  0.87056658  0.11851189  0.83698442  1
  H+  H6  1  0.84998210  0.96449166  0.02150222  1
  H+  H7  1  0.72934928  0.85141617  0.65496699  1
  H+  H8  1  0.85875570  0.62201520  0.16377999  1
  H+  H9  1  0.37637430  0.77113756  0.32098512  1
  H+  H10  1  0.48411708  0.52802002  0.23132934  1
  H+  H11  1  0.97223674  0.35414589  0.33873012  1
  H+  H12  1  0.86921542  1.01077121  0.65025262  1
  H+  H13  1  0.86652096  0.13647208  0.17425678  1
  H+  H14  1  0.64650182  0.77682367  0.85134329  1
  H+  H15  1  0.39937824  0.37972016  0.18056144  1
  H+  H16  1  0.11989013  0.72824925  0.80955771  1
  H+  H17  1  0.10626039  0.33800030  0.17358557  1
  H+  H18  1  0.12803349  0.10883465  0.66018558  1
  H+  H19  1  0.52914546  0.88882140  0.00971684  1
  H+  H20  1  0.13654058  0.31097876  0.92462409  1
  H+  H21  1  0.62111791  0.72932545  0.16671539  1
  H+  H22  1  0.47412348  0.62202675  0.35292086  1
  H+  H23  1  0.10906061  0.87506052  0.49025983  1
  H+  H24  1  0.35320342  0.88396729  0.33345044  1
  H+  H25  1  0.41299548  0.57394774  0.80566431  1
  H+  H26  1  0.14968156  0.32258551  1.05214687  1
  H+  H27  1  0.35021559  0.89951431  0.18613128  1
  H+  H28  1  0.37061564  0.64917345  0.17463168  1
  H+  H29  1  0.53070551  0.89254444  0.52307341  1
  H+  H30  1  0.77239504  0.38848360  0.34099889  1
  H+  H31  1  0.88152810  0.65565992  0.65726433  1
  H+  H32  1  0.13969534  0.30934586  0.23090531  1
  H+  H33  1  0.61149864  0.88619669  0.83166478  1
  H+  H34  1  0.03702060  0.15232747  0.34992033  1
  H+  H35  1  -0.03548809  0.60528634  0.49579398  1
  H+  H36  1  0.88978509  0.62492406  0.82665396  1
  H+  H37  1  0.42941696  0.15769669  0.99214144  1
  H+  H38  1  0.56476481  0.44707600  0.66912094  1
  H+  H39  1  0.39708926  0.02402642  0.49967823  1
  H+  H40  1  0.77180287  0.87290657  0.34344508  1
  H+  H41  1  0.61876575  0.89484222  0.01685741  1
  H+  H42  1  0.63218016  1.02342697  0.32346593  1
  H+  H43  1  0.66147779  0.29084060  1.00614192  1
  H+  H44  1  0.38422613  0.16095431  0.17527288  1
  H+  H45  1  0.88439849  0.26789672  0.48242451  1
  H+  H46  1  0.13171503  0.89698809  1.02859259  1
  H+  H47  1  0.86459442  0.88942019  0.49694824  1
  H+  H48  1  0.65333978  0.12596691  0.00199295  1
  H+  H49  1  0.10856646  0.22215205  0.66699916  1
  H+  H50  1  0.61976032  0.38794792  0.01833554  1
  H+  H51  1  0.08586962  0.18687955  0.01815241  1
  H+  H52  1  0.36364323  0.13620220  0.50256264  1
  H+  H53  1  0.73033777  0.36549305  0.49394177  1
  H+  H54  1  0.01436852  0.39207414  0.00329534  1
  H+  H55  1  0.32323607  0.64075030  0.73335198  1
  H+  H56  1  0.45308900  0.86910999  0.66061791  1
  H+  H57  1  0.43525882  0.30639795  0.58289671  1
  H+  H58  1  0.34542267  0.37488553  0.63745571  1
  H+  H59  1  0.74204719  0.61136862  0.15846626  1
  H+  H60  1  0.77309158  0.88575909  0.49408420  1
  H+  H61  1  0.25277834  0.86049242  0.03861410  1
  H+  H62  1  0.38774178  0.83144541  0.99468656  1
  H+  H63  1  0.90021718  0.79359797  0.65979330  1
  H+  H64  1  1.01763305  0.38728179  0.16996062  1
  H+  H65  1  0.89158359  0.37101453  0.84050887  1
  H+  H66  1  0.21762801  0.78356792  0.53594286  1
  H+  H67  1  0.11967821  0.13897233  0.35320969  1
  H+  H68  1  0.88609795  0.51660062  0.33085185  1
  H+  H69  1  0.73068472  0.12287778  0.48875521  1
  H+  H70  1  0.40351797  0.93190458  0.05305084  1
  H+  H71  1  0.11511810  0.39250668  0.49081323  1
  H+  H72  1  0.63730706  0.37087388  0.84696785  1
  H+  H73  1  0.44583131  0.25864018  0.33226124  1
  H+  H74  1  0.50768221  0.12411007  0.34506449  1
  H+  H75  1  0.78109122  0.14179463  0.17285790  1
  H+  H76  1  0.12911381  0.09720197  0.51032571  1
  H+  H77  1  0.60866194  0.72833157  0.37004388  1
  H+  H78  1  0.72313530  0.85843365  0.18458092  1
  H+  H79  1  0.38637724  0.14037973  0.82930735  1
  H+  H80  1  0.58542845  0.91712084  0.25903097  1
  H+  H81  1  0.35185277  0.47754218  0.48606219  1
  H+  H82  1  0.11154708  0.38162325  0.83508765  1
  H+  H83  1  0.58994984  0.47044641  0.47247627  1
  H+  H84  1  0.99188136  0.62495994  0.65269509  1
  H+  H85  1  0.48302682  0.32867916  0.28184086  1
  H+  H86  1  0.30019742  0.39697418  0.00373104  1
  H+  H87  1  0.15974055  1.07634170  0.60195488  1
  H+  H88  1  0.89831480  0.64989836  0.97415291  1
  H+  H89  1  0.86394014  0.98621021  0.82935857  1
  H+  H90  1  0.13890514  0.77880941  0.66041951  1
  H+  H91  1  0.95946567  0.14124463  0.86452458  1
  H+  H92  1  0.07010511  0.41989627  0.10725072  1
  H+  H93  1  0.34717703  0.61359983  0.98724194  1
  H+  H94  1  0.27460209  0.63836804  0.33812619  1
  H+  H95  1  0.91879461  0.33393266  0.89602989  1
  H+  H96  1  0.87283142  0.84438282  0.18339422  1
  H+  H97  1  0.15019096  0.12154892  0.18452497  1
  H+  H98  1  -0.02649853  0.85895714  0.50709521  1
  H+  H99  1  0.61755156  0.23962559  0.48487773  1
  H+  H100  1  0.84838195  0.72346370  0.52354171  1
  H+  H101  1  0.35562959  0.64398856  0.48654704  1
  H+  H102  1  0.87938156  0.47721910  1.01509598  1
  H+  H103  1  0.63722326  0.36452714  0.17276347  1
  H+  H104  1  0.26347160  0.38466906  0.62793014  1
  H+  H105  1  0.27058802  0.12570957  0.49916917  1
  H+  H106  1  0.60635024  0.39316857  0.46846434  1
  H+  H107  1  0.63263809  0.27364975  0.17246901  1
  H+  H108  1  0.11101548  0.38183249  0.34187460  1
  H+  H109  1  0.12111246  0.22187798  0.84135875  1
  H+  H110  1  0.49847988  0.12915448  0.83552193  1
  H+  H111  1  0.59506995  0.97383302  0.67516878  1
  H+  H112  1  0.29355567  0.15918252  0.17705845  1
  H+  H113  1  0.14112507  0.52114609  0.17701244  1
  H+  H114  1  0.12930047  0.73560248  0.03294415  1
  H+  H115  1  0.62112341  0.72805394  0.67097060  1
  H+  H116  1  0.56179461  0.16826267  0.01439069  1
  H+  H117  1  0.50229036  0.11040832  0.68764426  1
  H+  H118  1  0.37884488  -0.00666663  0.82379690  1
  H+  H119  1  0.40588217  0.29575453  0.18492372  1
  H+  H120  1  0.52477120  0.37412264  1.01797658  1
  H+  H121  1  0.72207850  0.59446694  0.82990474  1
  H+  H122  1  0.11784365  0.86489583  0.18592227  1
  H+  H123  1  0.34828390  1.00113554  0.67064551  1
  H+  H124  1  0.85933953  0.13213078  0.46159574  1
  H+  H125  1  0.53747893  0.08076864  0.12633435  1
  H+  H126  1  0.89934850  0.73790284  0.98754767  1
  H+  H127  1  0.46555744  0.61973380  0.48593713  1
  H+  H128  1  0.38400730  0.34678009  0.85978166  1
  H+  H129  1  0.83991212  0.63147671  0.51822824  1
  H+  H130  1  0.71783091  0.10838857  0.34670032  1
  H+  H131  1  0.42614151  0.83621119  0.92845819  1
  H+  H132  1  0.29464635  0.13617852  0.82854664  1
  H+  H133  1  0.37757408  0.50973313  0.62623304  1
  H+  H134  1  0.90091041  0.13895905  0.33962082  1
  H+  H135  1  0.72603216  0.86076451  0.00723424  1
  H+  H136  1  0.89072725  0.36202412  0.99234316  1
  H+  H137  1  0.11668987  0.89644100  0.66988608  1
  H+  H138  1  0.85880619  0.38106634  0.34321504  1
  H+  H139  1  0.21612694  0.85735265  0.33196051  1
  H+  H140  1  0.60309510  0.64513775  0.46715518  1
  H+  H141  1  0.36438205  0.46599394  0.86507346  1
  H+  H142  1  0.71316496  0.36630899  0.64936368  1
  H+  H143  1  0.63292519  0.27522672  0.64279807  1
  H+  H144  1  0.63816842  0.51508705  0.16163901  1
  H+  H145  1  0.14238238  0.52432965  0.83426064  1
  H+  H146  1  0.98940779  0.88340409  0.66405232  1
  H+  H147  1  0.38457669  0.25997208  0.00466262  1
  H+  H148  1  0.96092451  0.84369368  0.18002772  1
  H+  H149  1  0.27750441  0.63811475  0.17010479  1
  H+  H150  1  0.41223052  0.52403984  0.99010163  1
  H+  H151  1  0.36912486  0.65590367  0.84095004  1
  H+  H152  1  0.38092610  0.77384543  0.16528161  1
  H+  H153  1  0.28412260  0.13805494  0.35050140  1
  H+  H154  1  0.87433862  1.01593061  0.49977656  1
  H+  H155  1  0.13643098  0.53096200  0.50194079  1
  H+  H156  1  0.89741269  0.54197374  0.65670746  1
  H+  H157  1  -0.02572820  0.60299899  0.18218307  1
  H+  H158  1  0.31523035  0.40103933  0.81323428  1
  H+  H159  1  0.96357878  0.10534887  0.50593488  1
  H+  H160  1  0.12159032  0.35646123  0.64902687  1
  H+  H161  1  0.63611820  0.78254425  0.49365146  1
  H+  H162  1  0.86363727  0.10222333  0.64936901  1
  H+  H163  1  0.76929046  0.13624969  0.82342700  1
  H+  H164  1  0.38702834  0.78533376  0.83684373  1
  H+  H165  1  0.01594440  0.88452506  0.34501303  1
  H+  H166  1  0.14386936  0.87108725  0.81840832  1
  H+  H167  1  0.63149366  0.63589638  0.83459683  1
  H+  H168  1  0.78371851  0.14616605  1.00044415  1
  H+  H169  1  0.11715563  0.42729124  0.00537303  1
  H+  H170  1  0.89370740  0.27348193  0.98721275  1
  H+  H171  1  0.53043282  0.14504246  0.49247982  1
  H+  H172  1  0.37354892  0.47896678  0.16732084  1
  H+  H173  1  0.14492709  0.27469116  0.33408103  1
  H+  H174  1  0.75192217  0.63487465  -0.01699228  1
  H+  H175  1  0.08766011  0.66339903  0.11943221  1
  H+  H176  1  0.61876222  0.98168454  0.51849702  1
  H+  H177  1  0.23102730  0.11646909  0.00080150  1
  H+  H178  1  0.93836394  0.81009749  0.86119339  1
  H+  H179  1  0.21530361  0.35193835  0.87878762  1
  H+  H180  1  0.51834365  0.37784826  0.83247374  1
  H+  H181  1  0.96050730  0.08326244  0.99599075  1
  H+  H182  1  0.04824738  0.91628476  0.81500543  1
  H+  H183  1  0.88420981  0.33591807  0.63917060  1
  H+  H184  1  0.10731939  0.72087310  0.17826489  1
  H+  H185  1  0.64839342  0.02577056  0.84420833  1
  H+  H186  1  0.51377255  0.88594553  0.30829406  1
  H+  H187  1  0.38887608  0.62645661  0.33537655  1
  H+  H188  1  0.59603242  0.59040300  0.65206418  1
  H+  H189  1  0.97161615  0.09245173  0.18254652  1
  H+  H190  1  0.72696906  0.87071310  0.84873572  1
  H+  H191  1  0.13339667  1.01078605  0.50904779  1
  H+  H192  1  0.92648911  0.61638859  0.89103905  1
  H+  H193  1  0.46923276  0.59538060  0.63667165  1
  H+  H194  1  0.04383118  0.96796049  0.15773152  1
  H+  H195  1  0.43860658  0.33263090  0.67995786  1
  H+  H196  1  0.64567488  0.12919339  0.49747882  1
  H+  H197  1  0.35650385  -0.02507880  0.33655161  1
  H+  H198  1  0.05882937  0.29356613  1.02768691  1
  H+  H199  1  0.76197125  0.12863322  0.66577664  1
  H+  H200  1  0.85891589  0.88148986  1.02786963  1
  H+  H201  1  0.81481668  0.67101527  0.62439163  1
  H+  H202  1  0.02922905  0.64348020  0.81675515  1
  H+  H203  1  0.88169578  0.85393621  0.33511175  1
  H+  H204  1  0.52354114  0.64467105  0.01133923  1
  H+  H205  1  0.87217540  0.49662076  0.83809683  1
  H+  H206  1  0.10172732  0.71617012  0.48811831  1
  H+  H207  1  0.89024769  0.27109459  0.18854458  1
  H+  H208  1  0.09788165  0.72797323  0.33830766  1
  H+  H209  1  0.63570294  0.11425833  0.17631023  1
  H+  H210  1  0.53182579  0.40008490  0.16933487  1
  H+  H211  1  -0.00616875  0.88122694  0.01118044  1
  H+  H212  1  0.09414582  0.20193371  0.16417610  1
  H+  H213  1  0.56481830  0.93253491  0.74095507  1
  H+  H214  1  0.83900283  0.70983568  0.81021116  1
  H+  H215  1  0.88511790  0.51256877  0.17892849  1
  H+  H216  1  0.11703409  0.63829769  0.66218872  1
  H+  H217  1  0.67539194  0.09423029  0.58972414  1
  H+  H218  1  0.70451660  0.61728889  0.50497220  1
  H+  H219  1  0.60492001  0.17818107  0.07959250  1
  H+  H220  1  0.63427108  0.10755567  0.65117815  1
  H+  H221  1  0.85380758  0.71683643  0.34077742  1
  H+  H222  1  0.62980103  0.51156472  0.83854612  1
  H+  H223  1  0.63231766  0.85331729  0.32792464  1
  H+  H224  1  0.10574926  0.88590522  0.34438330  1
  H+  H225  1  0.49143699  0.12742401  0.18120827  1
  H+  H226  1  0.86441790  0.46904440  0.49195622  1
  H+  H227  1  0.62305767  0.33825682  0.32399996  1
  H+  H228  1  0.16265350  0.03112989  0.83873045  1
  H+  H229  1  0.33448151  0.68088606  0.39708833  1
  H+  H230  1  0.14255583  0.61056871  0.18271192  1
  H+  H231  1  0.64758228  0.61631162  0.15888203  1
  H+  H232  1  0.39296406  0.87028314  0.50261910  1
  H+  H233  1  0.35975606  0.73501797  0.49282903  1
  H+  H234  1  0.85765001  0.22444668  0.36631437  1
  H+  H235  1  0.85856351  0.22777166  0.81765535  1
  H+  H236  1  0.82754515  0.16258091  0.72533604  1
  H+  H237  1  0.02452293  0.38916777  0.49311311  1
  H+  H238  1  0.22744929  0.36607350  0.32190092  1
  H+  H239  1  0.28079115  0.89645298  0.48904930  1
  H+  H240  1  0.86825469  0.23622736  0.64191833  1
  H+  H241  1  0.27664032  0.64409399  0.83188989  1
  H+  H242  1  0.37034151  0.87359107  0.65091534  1
  H+  H243  1  0.13610459  0.02564471  0.33781231  1
  H+  H244  1  0.91538644  0.42401238  0.70871609  1
  H+  H245  1  0.52577489  0.89211844  0.83204199  1
  H+  H246  1  0.85778951  0.71040648  0.16468582  1
  H+  H247  1  0.16601885  0.04302052  0.18808046  1
  H+  H248  1  0.35217401  0.69993601  -0.02311152  1
  H+  H249  1  0.10687162  0.46984106  0.66876068  1
  H+  H250  1  0.10378432  0.20739511  0.50431559  1
  H+  H251  1  -0.01199471  0.62074906  0.01331414  1
  H+  H252  1  0.85900546  0.89545868  0.83000087  1
  H+  H253  1  0.20988507  0.87254505  0.18904393  1
  H+  H254  1  0.50722216  0.34131551  0.53353913  1
  H+  H255  1  -0.00122295  0.62794814  0.33517094  1
  H+  H256  1  0.05096584  0.12783507  0.81885228  1
  H+  H257  1  0.62177758  0.24418741  0.82666604  1
  H+  H258  1  0.61470655  0.98370372  0.16835693  1
  H+  H259  1  0.77360328  0.38122225  0.16394827  1
  H+  H260  1  0.37194152  0.40540577  0.33183676  1
  H+  H261  1  0.54045141  0.63396633  0.17243746  1
  H+  H262  1  0.88633224  0.35859460  0.18767345  1
  H+  H263  1  0.16426315  0.58445556  0.59606390  1
  H+  H264  1  0.34599525  0.60490241  0.67328344  1
  H+  H265  1  0.28749297  0.90524908  0.81802903  1
  H+  H266  1  0.10139239  0.93450280  0.75280257  1
  H+  H267  1  0.64137319  0.86878689  0.51994842  1
  H+  H268  1  0.10126555  0.10781373  1.00809295  1
  H+  H269  1  0.38007353  0.38281868  0.00810342  1
  H+  H270  1  0.39243301  0.26287299  0.84496868  1
  H+  H271  1  0.31946257  0.09320636  0.04534725  1
  H+  H272  1  0.10659356  0.64094476  1.01339242  1
  H+  H273  1  0.58473892  0.92195095  0.11008496  1
  H+  H274  1  0.82504532  0.90686314  0.11837769  1
  H+  H275  1  0.10532270  0.63000994  0.48507114  1
  H+  H276  1  0.38743674  0.11254033  0.34060684  1
  H+  H277  1  0.50392859  0.61780539  0.83705415  1
  H+  H278  1  0.86810207  0.13928224  0.00373432  1
  H+  H279  1  0.85720452  0.96298957  0.17948391  1
  H+  H280  1  0.64328550  0.03229910  1.00091307  1
  H+  H281  1  0.72968671  0.37841370  0.85094463  1
  H+  H282  1  0.84788935  0.62541779  0.33634275  1
  H+  H283  1  0.14011788  0.61168373  0.82609085  1
  H+  H284  1  0.39312557  0.87776997  0.83558513  1
  H+  H285  1  0.60557298  0.12642544  0.34573324  1
  H+  H286  1  0.42472872  0.06934954  0.99456032  1
  H+  H287  1  0.12354095  0.57906716  0.91957239  1
  H+  H288  1  0.10566665  0.17921274  0.72990052  1
  H+  H289  1  0.42552581  0.09717211  0.27771547  1
  H+  H290  1  0.78632377  0.39395530  0.01245502  1
  H+  H291  1  0.61920747  0.57314906  0.54213911  1
  H+  H292  1  0.11955789  0.99197238  0.66907229  1
  H+  H293  1  0.44641633  0.58292496  0.25708829  1
  H+  H294  1  0.32365473  0.39391300  0.73782652  1
  H+  H295  1  0.57792855  0.16520577  0.40690393  1
  H+  H296  1  0.57029411  0.84579694  0.41749708  1
  H+  H297  1  0.07877425  0.90888792  0.43346971  1
  H+  H298  1  0.16416552  0.83077876  0.87476784  1
  H+  H299  1  0.33762758  0.94237137  0.72776583  1
  H+  H300  1  0.39501785  0.04910318  0.19190550  1
  H+  H301  1  0.98715125  0.56912020  0.95955577  1
  H+  H302  1  0.89346216  0.06073857  0.94090898  1
  H+  H303  1  0.43257038  0.06927351  0.56270240  1
  H+  H304  1  0.06804869  0.66178940  0.39814686  1
  H+  H305  1  0.96846324  0.20180112  0.29351483  1
  H+  H306  1  0.07650316  0.15304120  0.44455871  1
  H+  H307  1  0.22463536  0.87341836  0.66116362  1
  H+  H308  1  0.91803917  0.08090996  0.24251276  1
  H+  H309  1  0.35524419  0.14745618  0.73583767  1
  H+  H310  1  0.07134702  0.13379171  0.10882339  1
  H+  H311  1  0.91137426  0.82150350  0.27691677  1
  H+  H312  1  0.83077324  0.43978123  0.78100285  1
  H+  H313  1  0.44251773  0.58744484  0.93246963  1
  H+  H314  1  0.33283019  0.92076322  0.42627297  1
  H+  H315  1  0.08395928  0.41662283  0.40072260  1
  H+  H316  1  0.33118677  0.41829167  0.42843524  1
  H+  H317  1  0.41222649  0.58982924  0.54856397  1
  H+  H318  1  0.66969855  0.83667464  0.94492772  1
  H+  H319  1  0.89894577  0.30000283  0.56998106  1
  H+  H320  1  0.83397266  0.90985685  0.39966963  1
  H+  H321  1  0.22904097  0.36631356  0.48672227  1
  H+  H322  1  0.91615306  0.57930456  0.55865194  1
  H+  H323  1  0.67104222  0.09354740  0.23779145  1
  H+  H324  1  0.33881564  0.16063633  0.41206068  1
  H+  H325  1  0.22363698  0.62264028  0.49974562  1
  H+  H326  1  0.21146222  0.85018597  0.97516809  1
  H+  H327  1  0.46901718  0.86863493  0.16570441  1
  H+  H328  1  0.89119990  0.07164769  0.58163007  1
  H+  H329  1  0.91026328  0.32059232  0.28128881  1
  H+  H330  1  0.33921508  0.17029942  0.08864835  1
  H+  H331  1  0.61059130  0.67597471  0.77627625  1
  H+  H332  1  0.44102749  0.09878375  0.89590614  1
  H+  H333  1  0.83556138  0.41213819  0.43071284  1
  H+  H334  1  0.35115807  0.42879757  0.10497770  1
  H+  H335  1  0.63419890  0.85947771  0.18089248  1
  H+  H336  1  0.36521828  0.48938535  0.33937569  1
  H+  H337  1  0.21570624  0.59733026  0.65941848  1
  H+  H338  1  0.67059793  0.81588061  0.59528969  1
  H+  H339  1  0.02640812  0.38600239  0.82710607  1
  H+  H340  1  0.65787053  0.81097262  0.27722823  1
  H+  H341  1  0.15151488  0.83004018  0.27525945  1
  H+  H342  1  0.16636742  0.12093318  0.84454815  1
  H+  H343  1  0.17688766  0.57901225  0.27125912  1
  H+  H344  1  0.53141792  0.66880670  0.70509404  1
  H+  H345  1  0.86422388  0.74614902  0.90165158  1
  H+  H346  1  0.17461365  0.82600205  0.57269267  1
  H+  H347  1  0.82590687  0.34384709  0.71905163  1
  H+  H348  1  0.66039965  0.34247603  0.54603305  1
  H+  H349  1  0.13027964  0.98389856  0.01360463  1
  H+  H350  1  0.08582408  0.52213429  0.97989483  1
  H+  H351  1  0.61253605  0.88685860  0.41685528  1
  H+  H352  1  0.92434551  0.84873266  0.56943347  1
  H+  H353  1  0.82372136  0.66057479  0.74682139  1
  H+  H354  1  0.59296685  0.17466243  0.77097435  1
  H+  H355  1  0.32213890  0.93327602  0.13226486  1
  H+  H356  1  0.83932293  0.41079114  0.10810974  1
  H+  H357  1  0.18273262  0.08261837  0.93610923  1
  H+  H358  1  0.42617333  0.16857881  0.63016603  1
  H+  H359  1  0.41817764  0.31380309  0.94237920  1
  H+  H360  1  0.67665723  0.59567534  0.93859827  1
  H+  H361  1  0.39299306  0.82453053  0.25864466  1
  H+  H362  1  0.08327137  0.93366322  0.10831914  1
  H+  H363  1  0.13526390  0.31773136  0.58740854  1
  H+  H364  1  0.56986822  0.40400094  0.76927153  1
  H+  H365  1  0.68158964  0.08844312  0.90192353  1
  H+  H366  1  0.40703233  0.83653882  0.56703805  1
  H+  H367  1  0.61481731  0.74631531  0.01570406  1
  H+  H368  1  0.67560561  0.34140876  0.26687863  1
  H+  H369  1  0.37154102  0.85591025  0.10040281  1
  H+  H370  1  0.08544922  0.66603029  0.72208941  1
  H+  H371  1  0.93241417  0.86684376  0.95552093  1
  H+  H372  1  0.88071708  0.35558325  0.49579153  1
  H+  H373  1  0.58146353  0.67798280  0.07950395  1
  H+  H374  1  0.53670617  0.04765986  0.70781911  1
  H+  H375  1  0.83634115  0.92923651  0.72933413  1
  H+  H376  1  0.35234129  0.24354378  0.67181539  1
  H+  H377  1  0.58502129  0.41606159  0.10514178  1
  H+  H378  1  0.17441253  0.09193969  0.28221726  1
  H+  H379  1  0.87377897  0.89985097  0.67321117  1
  H+  H380  1  0.91291534  0.57386976  0.26878492  1
  H+  H381  1  0.67757275  0.34511992  0.94435185  1
  H+  H382  1  0.08815890  0.41274707  0.72764159  1
  H+  H383  1  0.27655979  0.36038857  0.74072382  1
  O2-  O384  1  0.07583077  0.13974846  0.15374599  1
  O2-  O385  1  0.06960332  0.14743809  0.49015018  1
  O2-  O386  1  0.11195094  0.17039218  0.81784651  1
  O2-  O387  1  0.07668394  0.41501691  0.15146858  1
  O2-  O388  1  0.08489587  0.42467143  0.47984254  1
  O2-  O389  1  0.08806967  0.41438123  0.81486162  1
  O2-  O390  1  0.08354218  0.66075520  0.16485707  1
  O2-  O391  1  0.07184167  0.65822992  0.46964679  1
  O2-  O392  1  0.08724645  0.66632782  0.79860954  1
  O2-  O393  1  0.07350044  0.93514133  0.15342635  1
  O2-  O394  1  0.07878534  0.90549709  0.47955884  1
  O2-  O395  1  0.10635433  0.93514795  0.80108667  1
  O2-  O396  1  0.35143671  0.18790729  0.15741693  1
  O2-  O397  1  0.32991147  0.15873178  0.48302270  1
  O2-  O398  1  0.35422232  0.16884111  0.81201068  1
  O2-  O399  1  0.34206057  0.42136002  0.14919020  1
  O2-  O400  1  0.32255443  0.41659622  0.47290832  1
  O2-  O401  1  0.32393121  0.40429774  0.85764697  1
  O2-  O402  1  0.33931257  0.67536357  0.15757512  1
  O2-  O403  1  0.32535296  0.67602896  0.47461108  1
  O2-  O404  1  0.33786118  0.67793706  0.81773117  1
  O2-  O405  1  0.32061838  0.93229681  0.17684052  1
  O2-  O406  1  0.33924612  0.92638928  0.47169559  1
  O2-  O407  1  0.34786388  0.93501410  0.80413496  1
  O2-  O408  1  0.57045791  0.13749734  0.14465640  1
  O2-  O409  1  0.58880259  0.17607423  0.47332997  1
  O2-  O410  1  0.58917133  0.18279590  0.81472301  1
  O2-  O411  1  0.59158496  0.42470150  0.15154179  1
  O2-  O412  1  0.56043422  0.40756289  0.46914263  1
  O2-  O413  1  0.57703864  0.40968345  0.81440657  1
  O2-  O414  1  0.59394408  0.67016467  0.14798032  1
  O2-  O415  1  0.57431001  0.67914391  0.45364152  1
  O2-  O416  1  0.60581109  0.67272625  0.82121957  1
  O2-  O417  1  0.58094331  0.92132780  0.15564755  1
  O2-  O418  1  0.59307508  0.92178149  0.53212163  1
  O2-  O419  1  0.58569494  0.91986272  0.81589344  1
  O2-  O420  1  0.84356215  0.17452267  0.16427722  1
  O2-  O421  1  0.83427076  0.16833797  0.44793151  1
  O2-  O422  1  0.82899314  0.16801458  0.80175299  1
  O2-  O423  1  0.83611145  0.41083931  0.15341910  1
  O2-  O424  1  0.83674137  0.40825105  0.47679342  1
  O2-  O425  1  0.83971511  0.43518918  0.82424136  1
  O2-  O426  1  0.83043568  0.65244019  0.14566938  1
  O2-  O427  1  0.81031272  0.66150947  0.53363806  1
  O2-  O428  1  0.82347991  0.65375989  0.79153489  1
  O2-  O429  1  0.82534189  0.90230053  0.16369720  1
  O2-  O430  1  0.83470016  0.91940843  0.48046752  1
  O2-  O431  1  0.83254163  0.92685763  0.81275432  1
  O2-  O432  1  0.18951915  0.10231468  0.20260128  1
  O2-  O433  1  0.16300109  0.07066409  0.52458356  1
  O2-  O434  1  0.19315691  0.08762900  0.86022453  1
  O2-  O435  1  0.12254892  0.29570002  0.18783377  1
  O2-  O436  1  0.16164252  0.32896682  0.49058506  1
  O2-  O437  1  0.15152102  0.31680537  0.88127906  1
  O2-  O438  1  0.17575360  0.58129801  0.19232179  1
  O2-  O439  1  0.16252385  0.59208231  0.51510973  1
  O2-  O440  1  0.16913103  0.58513272  0.84828864  1
  O2-  O441  1  0.14796812  0.83464488  0.19885043  1
  O2-  O442  1  0.18432079  0.81225923  0.52936192  1
  O2-  O443  1  0.17203654  0.83688834  0.83093311  1
  O2-  O444  1  0.43291650  0.11020754  0.20199211  1
  O2-  O445  1  0.43073327  0.08182473  0.51992081  1
  O2-  O446  1  0.43576542  0.09298983  0.85140225  1
  O2-  O447  1  0.43545063  0.35658831  0.19798319  1
  O2-  O448  1  0.48544315  0.30309403  0.56983927  1
  O2-  O449  1  0.41949210  0.31983696  0.86716767  1
  O2-  O450  1  0.46148355  0.56459607  0.21773031  1
  O2-  O451  1  0.40675407  0.58977918  0.50316169  1
  O2-  O452  1  0.43957631  0.58497410  0.84581534  1
  O2-  O453  1  0.40475090  0.83906514  0.16851106  1
  O2-  O454  1  0.41540299  0.83536912  0.52123454  1
  O2-  O455  1  0.41968674  0.84521938  0.85302772  1
  O2-  O456  1  0.66944653  0.08639414  0.19330523  1
  O2-  O457  1  0.67760481  0.10072037  0.51287328  1
  O2-  O458  1  0.68665760  0.08601969  0.85717835  1
  O2-  O459  1  0.66795853  0.33332481  0.18533998  1
  O2-  O460  1  0.66733711  0.33770421  0.50202068  1
  O2-  O461  1  0.66938349  0.34355445  0.86437253  1
  O2-  O462  1  0.67548233  0.58209040  0.17055343  1
  O2-  O463  1  0.64096326  0.58932906  0.50029343  1
  O2-  O464  1  0.66669939  0.57300699  0.85127329  1
  O2-  O465  1  0.66055566  0.82616175  0.19636791  1
  O2-  O466  1  0.67167714  0.83372708  0.51886734  1
  O2-  O467  1  0.66896674  0.83642984  0.86678855  1
  O2-  O468  1  0.91189537  0.06642298  0.19876405  1
  O2-  O469  1  0.90027497  0.07826734  0.51426409  1
  O2-  O470  1  0.90256091  0.09184984  0.85802672  1
  O2-  O471  1  0.91941057  0.33241238  0.20472769  1
  O2-  O472  1  0.90910931  0.32040221  0.50838527  1
  O2-  O473  1  0.91828462  0.33594314  0.85028153  1
  O2-  O474  1  0.91282138  0.57299881  0.19513332  1
  O2-  O475  1  0.90612364  0.57298717  0.51404420  1
  O2-  O476  1  0.92532524  0.60367511  0.84757724  1
  O2-  O477  1  0.90233426  0.81196061  0.19636177  1
  O2-  O478  1  0.91524632  0.83635435  0.52499510  1
  O2-  O479  1  0.87818618  0.79063903  0.86954458  1
  O2-  O480  1  0.16962356  0.08798544  0.32725722  1
  O2-  O481  1  0.15669741  0.07569718  0.64718906  1
  O2-  O482  1  0.17421036  0.08036536  0.98158943  1
  O2-  O483  1  0.16472439  0.33086099  0.31356110  1
  O2-  O484  1  0.14730146  0.32277844  0.63090219  1
  O2-  O485  1  0.11310500  0.29703940  1.01646049  1
  O2-  O486  1  0.17992911  0.58202266  0.31638217  1
  O2-  O487  1  0.15789515  0.58028071  0.64106314  1
  O2-  O488  1  0.08668344  0.56949838  0.95608737  1
  O2-  O489  1  0.15359575  0.82671428  0.32065185  1
  O2-  O490  1  0.16484210  0.83890131  0.64450358  1
  O2-  O491  1  0.19807309  0.84731230  1.01832383  1
  O2-  O492  1  0.41869051  0.08265278  0.32229078  1
  O2-  O493  1  0.41109021  0.12756698  0.66414258  1
  O2-  O494  1  0.45711645  0.12630596  0.97663474  1
  O2-  O495  1  0.49832973  0.29550064  0.30903556  1
  O2-  O496  1  0.37757460  0.30604035  0.66762884  1
  O2-  O497  1  0.41626743  0.31821499  0.98794773  1
  O2-  O498  1  0.42104767  0.59474169  0.32718336  1
  O2-  O499  1  0.41029402  0.57657887  0.62469528  1
  O2-  O500  1  0.43954078  0.58544510  0.97700812  1
  O2-  O501  1  0.40276351  0.83138733  0.30277821  1
  O2-  O502  1  0.39716747  0.83959618  0.63912324  1
  O2-  O503  1  0.43107866  0.82448301  0.97257792  1
  O2-  O504  1  0.66316529  0.08774817  0.32452522  1
  O2-  O505  1  0.67402027  0.08911825  0.63509831  1
  O2-  O506  1  0.67574166  0.09058478  0.98300032  1
  O2-  O507  1  0.67890703  0.34560815  0.31173434  1
  O2-  O508  1  0.65578486  0.33523513  0.63186570  1
  O2-  O509  1  0.68543877  0.35036742  0.98928697  1
  O2-  O510  1  0.66676185  0.59864908  0.30552173  1
  O2-  O511  1  0.60666479  0.54936886  0.62855906  1
  O2-  O512  1  0.69316758  0.62372903  0.97841490  1
  O2-  O513  1  0.65820368  0.81670057  0.32218712  1
  O2-  O514  1  0.67057333  0.81180989  0.64061876  1
  O2-  O515  1  0.66612119  0.83535402  0.99051461  1
  O2-  O516  1  0.94754362  0.14542084  0.31199200  1
  O2-  O517  1  0.89033614  0.06999605  0.62960293  1
  O2-  O518  1  0.89859271  0.05913432  0.98550589  1
  O2-  O519  1  0.90995256  0.31889684  0.32718138  1
  O2-  O520  1  0.89881919  0.29520316  0.61894804  1
  O2-  O521  1  0.92386660  0.33665127  0.97349836  1
  O2-  O522  1  0.91537660  0.57755650  0.31492800  1
  O2-  O523  1  0.92976545  0.59807898  0.63752550  1
  O2-  O524  1  0.94687007  0.58300505  0.98143237  1
  O2-  O525  1  0.91513131  0.82446165  0.32197166  1
  O2-  O526  1  0.92826497  0.85552936  0.64870098  1
  O2-  O527  1  0.93235875  0.85255153  0.99841637  1
  O2-  O528  1  0.06152110  0.12499602  0.02681229  1
  O2-  O529  1  0.09336697  0.17268167  0.37024380  1
  O2-  O530  1  0.08552007  0.16573753  0.68780751  1
  O2-  O531  1  0.07165028  0.43399316  0.02386415  1
  O2-  O532  1  0.07890318  0.41085849  0.35565348  1
  O2-  O533  1  0.07827640  0.40956254  0.68335770  1
  O2-  O534  1  0.09353667  0.67439084  0.04373748  1
  O2-  O535  1  0.06427418  0.66530054  0.35194625  1
  O2-  O536  1  0.08709282  0.67049810  0.67663812  1
  O2-  O537  1  0.09887834  0.92696473  0.03521957  1
  O2-  O538  1  0.07750690  0.91772899  0.35982517  1
  O2-  O539  1  0.08917993  0.92773419  0.68770031  1
  O2-  O540  1  0.33104222  0.15223373  0.04313822  1
  O2-  O541  1  0.34334023  0.16053549  0.36567166  1
  O2-  O542  1  0.33959923  0.13391787  0.69160245  1
  O2-  O543  1  0.35865309  0.42338030  0.01908540  1
  O2-  O544  1  0.33406606  0.42547097  0.34676073  1
  O2-  O545  1  0.32632078  0.41427713  0.62175606  1
  O2-  O546  1  0.31033761  0.63848007  -0.01987221  1
  O2-  O547  1  0.33699427  0.67774982  0.35165059  1
  O2-  O548  1  0.29954410  0.60627574  0.69633995  1
  O2-  O549  1  0.35280562  0.87774578  0.06429412  1
  O2-  O550  1  0.32287729  0.91346626  0.35004761  1
  O2-  O551  1  0.32700816  0.94136075  0.68289324  1
  O2-  O552  1  0.61833457  0.19105877  0.03384307  1
  O2-  O553  1  0.57167410  0.15480722  0.36000358  1
  O2-  O554  1  0.55444826  0.10846389  0.69864765  1
  O2-  O555  1  0.58225143  0.40832655  0.03601821  1
  O2-  O556  1  0.61471353  0.51539144  0.30831499  1
  O2-  O557  1  0.55215424  0.39444460  0.69181648  1
  O2-  O558  1  0.58012206  0.68453594  0.03318688  1
  O2-  O559  1  0.57190347  0.66900308  0.38719253  1
  O2-  O560  1  0.58379523  0.66892999  0.69348057  1
  O2-  O561  1  0.58550389  0.92223321  0.03092987  1
  O2-  O562  1  0.57767910  0.91762801  0.30292836  1
  O2-  O563  1  0.54500884  0.94578226  0.70213464  1
  O2-  O564  1  0.84658654  0.17962627  0.00878895  1
  O2-  O565  1  0.82919847  0.16224461  0.38121940  1
  O2-  O566  1  0.82529991  0.15740517  0.67933488  1
  O2-  O567  1  0.84655937  0.41637655  0.02812482  1
  O2-  O568  1  0.83377143  0.41658715  0.35718349  1
  O2-  O569  1  0.85794394  0.39170674  0.69103321  1
  O2-  O570  1  0.87569914  0.68715947  -0.03936189  1
  O2-  O571  1  0.81636208  0.65430980  0.34975683  1
  O2-  O572  1  0.84364624  0.68082831  0.66434679  1
  O2-  O573  1  0.82230249  0.90576437  0.04038934  1
  O2-  O574  1  0.83323577  0.90384611  0.35481440  1
  O2-  O575  1  0.83767162  0.92665133  0.68428406  1
