# generated using pymatgen
data_H2O
_symmetry_space_group_name_H-M   'P 1'
_cell_length_a   17.99788074
_cell_length_b   18.00140159
_cell_length_c   22.00520873
_cell_angle_alpha   89.99188844
_cell_angle_beta   89.98899603
_cell_angle_gamma   120.01055266
_symmetry_Int_Tables_number   1
_chemical_formula_structural   H2O
_chemical_formula_sum   'H384 O192'
_cell_volume   6173.58737545
_cell_formula_units_Z   192
loop_
 _symmetry_equiv_pos_site_id
 _symmetry_equiv_pos_as_xyz
  1  'x, y, z'
loop_
 _atom_type_symbol
 _atom_type_oxidation_number
  H+  1.0
  O2-  -2.0
loop_
 _atom_site_type_symbol
 _atom_site_label
 _atom_site_symmetry_multiplicity
 _atom_site_fract_x
 _atom_site_fract_y
 _atom_site_fract_z
 _atom_site_occupancy
  H+  H0  1  0.75916679  0.89184284  0.31712680  1
  H+  H1  1  0.88205273  0.02344809  0.83307276  1
  H+  H2  1  0.28178423  0.39582956  0.35671728  1
  H+  H3  1  0.37075305  0.46400024  0.49814514  1
  H+  H4  1  0.65885038  0.33226736  0.26032276  1
  H+  H5  1  0.78654255  0.61708650  0.65795674  1
  H+  H6  1  0.43600537  0.76907053  0.31144979  1
  H+  H7  1  1.01788749  0.64741704  0.83025813  1
  H+  H8  1  0.49868558  0.12205130  0.17475020  1
  H+  H9  1  0.44705410  0.87120923  0.67079576  1
  H+  H10  1  0.39569274  0.61987260  0.32569317  1
  H+  H11  1  0.48518484  0.62120671  0.99022571  1
  H+  H12  1  0.36365094  0.14147489  0.49895652  1
  H+  H13  1  0.86404309  0.89521563  0.82176019  1
  H+  H14  1  0.35837244  0.01608655  0.65913392  1
  H+  H15  1  0.28014324  0.38989710  0.15433201  1
  H+  H16  1  0.39398688  0.29231314  0.32447529  1
  H+  H17  1  0.11455485  0.49119442  0.67810806  1
  H+  H18  1  0.64490394  0.03728949  0.33248720  1
  H+  H19  1  0.16087960  0.07554831  0.59911668  1
  H+  H20  1  0.14560630  0.28594666  0.36207528  1
  H+  H21  1  0.11661527  0.78721596  0.16863321  1
  H+  H22  1  0.63127430  0.76998891  0.50467859  1
  H+  H23  1  0.89078864  0.62284445  0.99130949  1
  H+  H24  1  0.58618197  0.92259900  0.06628361  1
  H+  H25  1  0.62721156  0.36161016  0.32625570  1
  H+  H26  1  0.82352275  0.02917407  0.97407365  1
  H+  H27  1  0.09326048  0.41695346  0.63406796  1
  H+  H28  1  0.39234657  0.52913480  0.32936901  1
  H+  H29  1  0.88377327  0.11308257  0.83704262  1
  H+  H30  1  0.62302445  0.38794303  0.49325980  1
  H+  H31  1  0.21861639  1.10941674  0.50827366  1
  H+  H32  1  0.46613913  0.85413693  0.51525670  1
  H+  H33  1  0.99621138  0.89272537  0.84170542  1
  H+  H34  1  0.63493844  0.51635483  0.32337343  1
  H+  H35  1  0.08948730  -0.02245983  0.16295422  1
  H+  H36  1  0.81874629  0.18595727  0.01848407  1
  H+  H37  1  0.63770593  0.51481251  0.16894580  1
  H+  H38  1  0.61740272  0.69861569  0.81604619  1
  H+  H39  1  0.97125035  0.61382794  0.32260861  1
  H+  H40  1  0.14722351  0.79428843  0.98689685  1
  H+  H41  1  0.87030354  0.23986331  0.16584833  1
  H+  H42  1  0.72877105  0.36951324  0.17412898  1
  H+  H43  1  0.71639765  0.86096549  0.49715364  1
  H+  H44  1  0.91640512  0.30016618  0.98549743  1
  H+  H45  1  0.86008907  0.63586236  0.49583832  1
  H+  H46  1  0.15648853  0.52153260  0.82039336  1
  H+  H47  1  0.87285633  0.39130529  0.50011225  1
  H+  H48  1  0.60141374  0.88533926  0.66707038  1
  H+  H49  1  0.84632503  0.42344592  0.44005370  1
  H+  H50  1  0.49160344  0.60159850  0.51007729  1
  H+  H51  1  0.88616807  0.37253845  0.17147673  1
  H+  H52  1  0.97154750  0.94895343  0.88022506  1
  H+  H53  1  0.52703308  0.38908093  0.33985681  1
  H+  H54  1  0.12703309  -0.01436574  0.83078877  1
  H+  H55  1  0.14053531  0.56364976  -0.02100554  1
  H+  H56  1  0.37210058  0.48192336  0.84499837  1
  H+  H57  1  0.34989512  0.17702557  0.76632181  1
  H+  H58  1  0.17087708  0.62189828  0.18757963  1
  H+  H59  1  0.84635783  0.88494610  0.46829407  1
  H+  H60  1  0.73361899  0.88228806  0.84134173  1
  H+  H61  1  0.48028656  0.59614087  0.83612350  1
  H+  H62  1  0.14115237  0.02318071  0.99594909  1
  H+  H63  1  0.11115056  0.62696221  0.51657073  1
  H+  H64  1  0.63268275  0.11148895  0.66209551  1
  H+  H65  1  0.61905141  0.64214547  1.00144254  1
  H+  H66  1  0.12930456  0.74257638  0.67863671  1
  H+  H67  1  0.97541258  0.10936328  0.66227685  1
  H+  H68  1  -0.03229006  0.36417990  0.66836513  1
  H+  H69  1  -0.00531281  0.17473775  0.51271609  1
  H+  H70  1  0.63520102  0.59409556  0.83219778  1
  H+  H71  1  0.39415299  0.53287019  -0.00912018  1
  H+  H72  1  0.25037362  0.61161421  0.17320770  1
  H+  H73  1  0.37556052  0.64154353  0.15782440  1
  H+  H74  1  0.86420368  0.70713591  0.67685991  1
  H+  H75  1  0.77375223  0.88228227  0.66669427  1
  H+  H76  1  0.37432885  0.47841061  0.66984245  1
  H+  H77  1  0.08471939  0.16316179  0.76966312  1
  H+  H78  1  0.57943747  0.92174474  0.72610233  1
  H+  H79  1  0.85318684  0.97540805  0.32534521  1
  H+  H80  1  0.33345444  0.98619251  0.34078250  1
  H+  H81  1  0.88798883  0.85214092  0.99775469  1
  H+  H82  1  0.01806753  0.09310103  0.48322660  1
  H+  H83  1  0.13269050  0.25131902  0.50826344  1
  H+  H84  1  0.61150116  0.14171468  0.82459992  1
  H+  H85  1  0.90345136  0.58430306  0.23540041  1
  H+  H86  1  0.11148010  0.65921708  0.01863356  1
  H+  H87  1  0.45552096  0.07268897  1.00528639  1
  H+  H88  1  0.35314770  0.10396128  1.00248833  1
  H+  H89  1  0.36567855  0.98717398  0.49849985  1
  H+  H90  1  0.38269567  0.59594505  0.66421398  1
  H+  H91  1  0.33850178  0.85555511  0.29900274  1
  H+  H92  1  0.28207435  0.37514530  0.66929357  1
  H+  H93  1  0.04465219  0.39047706  0.54215408  1
  H+  H94  1  0.34405766  0.15180960  0.34430988  1
  H+  H95  1  0.64640736  0.36340304  0.83112167  1
  H+  H96  1  0.14366930  0.25270264  0.99290553  1
  H+  H97  1  0.62431812  0.91740189  0.82162546  1
  H+  H98  1  0.52624996  0.64909824  0.15460254  1
  H+  H99  1  0.34201960  0.69133681  0.38867247  1
  H+  H100  1  0.11629040  0.48306691  0.15425832  1
  H+  H101  1  0.85544746  0.84891036  0.31246543  1
  H+  H102  1  0.88970547  0.85737666  0.67290493  1
  H+  H103  1  0.60810637  0.38638235  0.99860250  1
  H+  H104  1  0.23307225  0.11064316  0.99478265  1
  H+  H105  1  0.59763160  0.96653937  0.50548840  1
  H+  H106  1  0.53232572  0.39659401  0.15457758  1
  H+  H107  1  0.47246119  1.11627009  0.51284949  1
  H+  H108  1  0.72324867  0.60577175  0.32458453  1
  H+  H109  1  0.87249500  0.48177301  0.83409145  1
  H+  H110  1  0.97113153  0.63737056  0.68279351  1
  H+  H111  1  0.92015452  0.33065021  0.57764119  1
  H+  H112  1  0.36118409  0.91568513  0.12659237  1
  H+  H113  1  0.02262393  0.65625780  0.00186981  1
  H+  H114  1  0.88003288  0.61079331  0.32741218  1
  H+  H115  1  0.48868881  0.38137569  -0.02626680  1
  H+  H116  1  0.32134424  0.15682073  0.14226542  1
  H+  H117  1  0.63931819  0.36834733  0.16978083  1
  H+  H118  1  0.17188726  0.65341697  0.94210831  1
  H+  H119  1  0.39191618  0.27710766  0.65106834  1
  H+  H120  1  0.14200293  0.02101695  0.66113420  1
  H+  H121  1  0.48054862  0.11339660  0.84730415  1
  H+  H122  1  0.48829838  0.36749430  0.65461608  1
  H+  H123  1  0.14472684  0.52535595  0.53554064  1
  H+  H124  1  0.36702790  0.38586708  0.86053531  1
  H+  H125  1  0.93980548  0.27806158  0.52971002  1
  H+  H126  1  0.02345626  0.88302602  0.48487186  1
  H+  H127  1  0.77031880  0.13354875  0.67207784  1
  H+  H128  1  0.77745093  0.14217805  0.33613623  1
  H+  H129  1  0.82385708  0.21782423  0.48593426  1
  H+  H130  1  0.12381991  0.77115903  0.83912790  1
  H+  H131  1  0.41008779  0.78253427  0.82747809  1
  H+  H132  1  0.22108412  0.61754503  0.51100227  1
  H+  H133  1  0.62722747  0.76251889  0.31790210  1
  H+  H134  1  0.37300289  0.39989160  0.34024657  1
  H+  H135  1  0.17735431  0.60145819  0.61528876  1
  H+  H136  1  0.05148795  0.94622274  0.33523247  1
  H+  H137  1  0.11026534  0.14944244  0.34731844  1
  H+  H138  1  0.58961089  0.11891790  1.00456889  1
  H+  H139  1  0.87948299  0.40222690  0.99867025  1
  H+  H140  1  0.61086506  0.00441212  0.98930853  1
  H+  H141  1  0.77089224  0.63457061  0.50061931  1
  H+  H142  1  0.88681737  0.15815423  0.00371484  1
  H+  H143  1  0.64307486  0.86932301  0.00376116  1
  H+  H144  1  0.11295494  0.37685143  0.81934734  1
  H+  H145  1  0.58746067  0.92821452  0.41351085  1
  H+  H146  1  0.11429517  0.87828586  0.17159436  1
  H+  H147  1  0.15103968  0.63048208  0.67550964  1
  H+  H148  1  0.64650547  0.11902790  0.17360831  1
  H+  H149  1  0.88681897  0.11047857  0.66297826  1
  H+  H150  1  0.61977535  0.63405706  0.49743874  1
  H+  H151  1  0.10838809  0.63688010  0.33302349  1
  H+  H152  1  0.63289933  0.86939352  0.16310069  1
  H+  H153  1  0.26980425  0.17039339  0.34451018  1
  H+  H154  1  0.28858106  0.62985364  0.67259770  1
  H+  H155  1  0.53768025  0.13731776  0.33905106  1
  H+  H156  1  0.93794754  0.83862888  0.31983093  1
  H+  H157  1  0.37489256  0.64626275  0.00254802  1
  H+  H158  1  0.13317670  0.45021899  0.00332214  1
  H+  H159  1  0.11649116  0.21292201  0.67666800  1
  H+  H160  1  0.20050478  0.87648773  0.32042888  1
  H+  H161  1  0.88165684  0.27037392  0.66699096  1
  H+  H162  1  0.19051814  0.10806779  0.17140383  1
  H+  H163  1  0.28949804  0.65315079  0.32907593  1
  H+  H164  1  0.88162652  0.11400707  0.18072649  1
  H+  H165  1  0.87921949  0.60038965  0.83350487  1
  H+  H166  1  1.03472301  0.88399976  0.68397522  1
  H+  H167  1  0.16930181  0.05173054  0.32770207  1
  H+  H168  1  0.11692054  0.12470407  0.00890971  1
  H+  H169  1  0.15448443  0.53364780  0.33586526  1
  H+  H170  1  0.40712486  0.15962637  0.15757558  1
  H+  H171  1  0.82768965  0.91426713  0.76007045  1
  H+  H172  1  0.64048589  0.27358376  0.50652685  1
  H+  H173  1  0.37946038  0.85800405  0.51890005  1
  H+  H174  1  0.33968513  -0.02786986  0.08520887  1
  H+  H175  1  0.27261955  0.38176519  0.84410972  1
  H+  H176  1  0.84995715  0.63297431  0.16096909  1
  H+  H177  1  0.88773106  0.51910860  0.51415195  1
  H+  H178  1  0.52612642  0.63373970  0.34041435  1
  H+  H179  1  0.86244148  0.72250370  0.00281520  1
  H+  H180  1  0.38283318  0.64110012  0.82064736  1
  H+  H181  1  0.15267014  0.37018667  0.33507404  1
  H+  H182  1  0.42245940  0.12125199  0.31921843  1
  H+  H183  1  0.77816750  0.87787651  0.02191653  1
  H+  H184  1  0.63130709  0.26748947  0.32480950  1
  H+  H185  1  0.90571735  0.54207501  -0.00632257  1
  H+  H186  1  0.28169128  0.38865417  1.00258875  1
  H+  H187  1  0.40537502  0.60154383  0.52430383  1
  H+  H188  1  0.72974925  0.61185692  0.17077933  1
  H+  H189  1  0.35200162  0.73408459  0.49204248  1
  H+  H190  1  0.10586341  0.43622092  0.25860858  1
  H+  H191  1  0.63759552  0.91394770  0.35967505  1
  H+  H192  1  0.60039662  0.87812334  0.50064350  1
  H+  H193  1  0.38474258  0.26660595  0.50898454  1
  H+  H194  1  0.85816883  0.48270484  0.16139363  1
  H+  H195  1  0.12756280  0.10652318  0.50511649  1
  H+  H196  1  0.14513070  0.88068516  0.98545407  1
  H+  H197  1  0.14169937  0.27059195  0.83799106  1
  H+  H198  1  0.85070841  0.38270617  0.67238304  1
  H+  H199  1  0.51921863  0.88354989  0.01044880  1
  H+  H200  1  0.58016346  0.64704734  0.75460339  1
  H+  H201  1  -0.00360190  0.12151210  0.16428615  1
  H+  H202  1  0.84145716  0.71560083  0.33736279  1
  H+  H203  1  0.10214956  0.10660926  0.17672633  1
  H+  H204  1  0.63696303  0.77088900  0.65728683  1
  H+  H205  1  0.73508224  0.11959160  0.17549336  1
  H+  H206  1  0.60380779  0.38241525  0.66866740  1
  H+  H207  1  0.86341610  0.97144633  0.66613700  1
  H+  H208  1  0.85828017  0.15502091  0.49693074  1
  H+  H209  1  0.63111172  0.15063042  0.34113125  1
  H+  H210  1  -0.10149545  0.84784712  0.53671453  1
  H+  H211  1  0.34429246  0.64534392  0.47136775  1
  H+  H212  1  0.11936789  0.35162687  0.15636964  1
  H+  H213  1  0.63445556  0.81446144  0.85363128  1
  H+  H214  1  -0.02433807  0.11426779  0.33348666  1
  H+  H215  1  1.01568067  0.62925174  0.51489253  1
  H+  H216  1  0.13003496  0.38419698  0.53889935  1
  H+  H217  1  0.37937131  0.87897333  0.31695614  1
  H+  H218  1  0.37514442  0.11107700  0.66443181  1
  H+  H219  1  0.09856436  0.34810775  0.24675851  1
  H+  H220  1  0.68848680  0.58783106  0.69416908  1
  H+  H221  1  0.22307435  0.85455379  0.50132595  1
  H+  H222  1  0.77009658  0.13963575  0.82784266  1
  H+  H223  1  0.62172190  0.76274103  0.15639760  1
  H+  H224  1  0.39695470  0.52984042  0.17123708  1
  H+  H225  1  0.62373883  0.23389921  0.15755496  1
  H+  H226  1  0.00283237  0.88525820  0.15712290  1
  H+  H227  1  0.58143098  0.16613526  0.43920097  1
  H+  H228  1  0.86948249  0.48040902  0.34832747  1
  H+  H229  1  0.40023330  0.78606859  0.16427496  1
  H+  H230  1  -0.00639454  0.39626086  -0.01838724  1
  H+  H231  1  0.42622558  0.58807228  0.23146868  1
  H+  H232  1  -0.04150633  0.62166562  0.17352740  1
  H+  H233  1  0.28862874  0.65102294  0.00071867  1
  H+  H234  1  0.02382191  0.88491212  0.00477542  1
  H+  H235  1  0.31202131  0.87014151  0.66673859  1
  H+  H236  1  0.70787747  0.09862809  0.50807095  1
  H+  H237  1  0.90922022  0.57894508  0.57301429  1
  H+  H238  1  0.41109264  0.29127850  0.16875711  1
  H+  H239  1  -0.02264209  0.35118845  0.30807701  1
  H+  H240  1  0.22428497  0.33830442  0.50377211  1
  H+  H241  1  0.28274455  0.88336065  0.82538234  1
  H+  H242  1  0.51389956  0.86457232  0.32048777  1
  H+  H243  1  0.63325950  0.03328722  0.82821120  1
  H+  H244  1  0.10530951  0.72293813  0.32784843  1
  H+  H245  1  0.63095993  0.02148234  0.65974587  1
  H+  H246  1  0.11039779  0.26120173  0.17257963  1
  H+  H247  1  0.11270757  0.72364245  0.51064371  1
  H+  H248  1  1.02709076  0.12227419  1.00269890  1
  H+  H249  1  0.61403472  0.63226278  0.33763713  1
  H+  H250  1  0.88053459  0.38597374  0.83056654  1
  H+  H251  1  0.13641026  0.33348947  1.00234144  1
  H+  H252  1  1.02544561  0.13924071  0.82865600  1
  H+  H253  1  0.87477871  0.39506623  0.34869194  1
  H+  H254  1  0.69406740  0.09431494  0.98490251  1
  H+  H255  1  0.10911867  0.12214890  0.67679989  1
  H+  H256  1  0.10324919  0.85072949  0.31623142  1
  H+  H257  1  0.72656016  0.61223858  0.98851580  1
  H+  H258  1  0.68447934  0.31127413  0.98725745  1
  H+  H259  1  0.71636999  0.35816412  0.66268421  1
  H+  H260  1  0.91609860  0.34206561  0.23062426  1
  H+  H261  1  0.88715618  0.11411177  0.32942331  1
  H+  H262  1  0.08867102  0.65923981  0.15071287  1
  H+  H263  1  0.26799330  0.14374911  0.66840219  1
  H+  H264  1  0.80103287  0.41990157  -0.00345677  1
  H+  H265  1  0.13720371  0.87350193  0.83752001  1
  H+  H266  1  0.38923694  0.78067698  1.00007568  1
  H+  H267  1  0.62237655  0.73363766  1.00295797  1
  H+  H268  1  0.87077422  -0.04085893  1.02954730  1
  H+  H269  1  0.57512757  0.19962052  0.00073507  1
  H+  H270  1  0.60300306  0.22207851  0.67188669  1
  H+  H271  1  0.61778087  0.48103566  0.99984751  1
  H+  H272  1  0.51516107  0.13158409  0.67429688  1
  H+  H273  1  0.60747436  0.47870867  0.67004590  1
  H+  H274  1  0.60410302  0.13057639  0.49892021  1
  H+  H275  1  0.64278164  0.52416273  0.51654506  1
  H+  H276  1  0.15499564  0.35042940  0.65761671  1
  H+  H277  1  0.58097945  0.81184387  0.29370536  1
  H+  H278  1  0.40011188  0.37481119  0.16836264  1
  H+  H279  1  0.77254375  0.61724827  0.82072094  1
  H+  H280  1  0.38602684  0.36307527  0.50407071  1
  H+  H281  1  0.13860617  0.11101861  0.84243069  1
  H+  H282  1  0.37758806  0.38286268  0.66623613  1
  H+  H283  1  0.13572303  0.85641963  0.50295774  1
  H+  H284  1  0.39727029  0.28866768  0.88838277  1
  H+  H285  1  0.89374316  0.82121403  0.22312814  1
  H+  H286  1  0.36937471  -0.02988209  0.83121898  1
  H+  H287  1  0.38073713  0.92480897  0.00477281  1
  H+  H288  1  0.58950196  0.41555593  0.39949830  1
  H+  H289  1  0.53440788  0.38768482  0.49316830  1
  H+  H290  1  0.40003869  0.86545922  0.83275674  1
  H+  H291  1  0.33360796  0.17738167  0.44139177  1
  H+  H292  1  0.89828541  0.07444855  0.92708704  1
  H+  H293  1  0.18098187  0.57855960  0.27033609  1
  H+  H294  1  0.82116226  0.66039089  0.39943925  1
  H+  H295  1  0.39136083  0.82510727  0.61427823  1
  H+  H296  1  0.28641162  0.93854099  0.40130091  1
  H+  H297  1  0.07518720  0.16377181  0.41162448  1
  H+  H298  1  0.52612932  0.37972358  0.82482023  1
  H+  H299  1  0.65508330  0.07726000  0.57067475  1
  H+  H300  1  0.08134909  0.68287360  0.77287779  1
  H+  H301  1  0.91299263  0.08098262  0.23695291  1
  H+  H302  1  0.44685320  0.83694371  0.22310591  1
  H+  H303  1  0.64903306  0.31819868  0.92290056  1
  H+  H304  1  0.83554109  0.42524739  0.10125308  1
  H+  H305  1  0.85538827  0.18206573  0.10821256  1
  H+  H306  1  0.03427162  0.37988139  0.41496886  1
  H+  H307  1  0.87968054  0.76979678  0.49288295  1
  H+  H308  1  0.57449659  0.40532722  0.75988455  1
  H+  H309  1  0.11209154  0.97139052  0.48710967  1
  H+  H310  1  0.62227929  -0.01535116  0.15905759  1
  H+  H311  1  0.85179479  0.87190898  0.11846265  1
  H+  H312  1  0.66170500  0.32970680  0.60157743  1
  H+  H313  1  0.16614054  0.84190749  0.90294241  1
  H+  H314  1  0.29552262  0.64069757  0.81217996  1
  H+  H315  1  0.09838218  0.92480362  0.76993808  1
  H+  H316  1  0.35724199  0.66163223  0.72587809  1
  H+  H317  1  0.82831833  0.16171538  0.73209980  1
  H+  H318  1  0.57485509  0.16767128  0.76692738  1
  H+  H319  1  0.59064826  0.42401845  0.09358525  1
  H+  H320  1  0.08528280  0.40434870  0.75736813  1
  H+  H321  1  0.12817791  0.89235502  0.67833712  1
  H+  H322  1  0.83122219  0.16723544  0.39710702  1
  H+  H323  1  0.06374218  0.69344700  0.09381793  1
  H+  H324  1  0.67143354  0.08931987  0.26846667  1
  H+  H325  1  0.92271287  0.83662630  0.93482589  1
  H+  H326  1  0.42233786  0.56249890  0.60748929  1
  H+  H327  1  0.52279642  0.62725157  0.67255001  1
  H+  H328  1  0.61027522  0.62297649  0.66937387  1
  H+  H329  1  0.01980964  0.40103172  0.15255493  1
  H+  H330  1  0.58681003  0.65815265  0.43561237  1
  H+  H331  1  0.38334655  0.93388364  0.44905106  1
  H+  H332  1  0.86138513  0.22667033  0.82503275  1
  H+  H333  1  0.66479201  0.83045967  0.59832559  1
  H+  H334  1  0.37496525  0.40173250  -0.00345458  1
  H+  H335  1  0.83023032  0.63771850  0.76060000  1
  H+  H336  1  0.82763375  0.41945789  0.72912294  1
  H+  H337  1  0.58511824  0.67893834  0.09263380  1
  H+  H338  1  0.66712717  0.57337860  0.23608145  1
  H+  H339  1  0.19558152  0.85143355  0.60513447  1
  H+  H340  1  0.93665515  0.14361298  0.57249224  1
  H+  H341  1  0.40825561  0.08427750  0.57106138  1
  H+  H342  1  0.68452230  0.85522357  0.94473894  1
  H+  H343  1  0.93222525  0.34865313  0.89110280  1
  H+  H344  1  0.66824204  0.58006407  0.57778581  1
  H+  H345  1  0.34659433  0.41332608  0.43433520  1
  H+  H346  1  0.43576895  0.07847436  0.26216189  1
  H+  H347  1  0.16466996  0.32571947  0.89914427  1
  H+  H348  1  0.08292531  0.45146089  0.06176585  1
  H+  H349  1  0.52628115  0.89887877  0.81899351  1
  H+  H350  1  0.40265865  0.04001390  0.94498385  1
  H+  H351  1  0.42996524  0.35042608  0.26395763  1
  H+  H352  1  0.65701061  0.82807228  0.22182081  1
  H+  H353  1  0.07995133  0.91808286  0.06511150  1
  H+  H354  1  0.91633968  0.58242087  0.89665716  1
  H+  H355  1  0.16926035  0.08245295  0.90161335  1
  H+  H356  1  0.92826129  0.82112770  0.62439434  1
  H+  H357  1  0.14776379  0.84354983  0.23506393  1
  H+  H358  1  0.88540502  0.27359822  0.32408649  1
  H+  H359  1  -0.01480846  0.37017625  0.82708557  1
  H+  H360  1  0.73170889  0.36199505  0.50758856  1
  H+  H361  1  0.34040765  0.66740779  0.09843520  1
  H+  H362  1  0.65306527  0.08147447  0.89206663  1
  H+  H363  1  0.82694638  0.66118360  0.06174598  1
  H+  H364  1  0.42690048  0.58295661  0.89967015  1
  H+  H365  1  0.06931701  0.42497737  0.40828242  1
  H+  H366  1  0.35960817  0.17283322  0.04904174  1
  H+  H367  1  0.77973106  0.38263761  0.83189806  1
  H+  H368  1  0.66607154  0.57938417  0.92948054  1
  H+  H369  1  0.34069368  0.42212105  0.09580498  1
  H+  H370  1  0.53003115  0.89615447  0.15536303  1
  H+  H371  1  0.80704791  0.91104048  0.41502317  1
  H+  H372  1  0.64264290  0.27304683  0.83244744  1
  H+  H373  1  0.84612969  0.72098621  0.15520890  1
  H+  H374  1  0.17965433  0.31373283  0.59966706  1
  H+  H375  1  0.40234453  0.04057512  0.16761437  1
  H+  H376  1  0.42166112  0.33478048  0.57159710  1
  H+  H377  1  0.05932846  0.90180122  0.39566127  1
  H+  H378  1  0.06207583  0.14910220  0.10455129  1
  H+  H379  1  0.38886521  0.10321198  0.85919358  1
  H+  H380  1  0.63794386  0.50800842  0.83679319  1
  H+  H381  1  0.16111188  0.09523776  0.26686776  1
  H+  H382  1  0.19148237  0.58295927  0.87697000  1
  H+  H383  1  0.58762413  0.16827705  0.10024301  1
  O2-  O384  1  0.06034810  0.15244155  0.14947217  1
  O2-  O385  1  0.07068238  0.14865233  0.48054890  1
  O2-  O386  1  0.08632101  0.16934511  0.81521390  1
  O2-  O387  1  0.07814364  0.42833520  0.13270173  1
  O2-  O388  1  0.10636119  0.41984476  0.55509261  1
  O2-  O389  1  0.08259988  0.40578655  0.80230909  1
  O2-  O390  1  0.06015558  0.69136340  0.14009644  1
  O2-  O391  1  0.07947074  0.65894398  0.50231024  1
  O2-  O392  1  0.07847273  0.68685173  0.81781202  1
  O2-  O393  1  0.06570110  0.91801334  0.14616423  1
  O2-  O394  1  0.08408741  0.91138489  0.47029091  1
  O2-  O395  1  0.09547596  0.92298263  0.81560582  1
  O2-  O396  1  0.38298247  0.19332763  0.13679224  1
  O2-  O397  1  0.33525214  0.17536927  0.48652276  1
  O2-  O398  1  0.32568599  0.20654080  0.74325975  1
  O2-  O399  1  0.34066423  0.42123989  0.14140048  1
  O2-  O400  1  0.34291258  0.40498456  0.48054969  1
  O2-  O401  1  0.33814629  0.41314694  0.83726044  1
  O2-  O402  1  0.33992727  0.66692646  0.14406715  1
  O2-  O403  1  0.31481065  0.67813093  0.46879589  1
  O2-  O404  1  0.35824119  0.67320211  0.80108433  1
  O2-  O405  1  0.34016534  0.95646402  0.12764954  1
  O2-  O406  1  0.34012058  0.92838851  0.47843978  1
  O2-  O407  1  0.34292299  0.91271329  0.81256851  1
  O2-  O408  1  0.59603986  0.17240565  0.14533675  1
  O2-  O409  1  0.57718947  0.16468291  0.48419064  1
  O2-  O410  1  0.57939843  0.17203581  0.81254048  1
  O2-  O411  1  0.59342963  0.42448856  0.13933871  1
  O2-  O412  1  0.59363284  0.41958844  0.47765017  1
  O2-  O413  1  0.58276812  0.40522526  0.80553827  1
  O2-  O414  1  0.58574543  0.68574988  0.13804461  1
  O2-  O415  1  0.58444230  0.65838282  0.48111494  1
  O2-  O416  1  0.57851399  0.64077416  0.80161239  1
  O2-  O417  1  0.59248089  0.92547176  0.14129317  1
  O2-  O418  1  0.56706558  0.90688994  0.48795711  1
  O2-  O419  1  0.58888268  0.93829778  0.80231263  1
  O2-  O420  1  0.84109866  0.17858396  0.15166900  1
  O2-  O421  1  0.81049757  0.15934786  0.47604800  1
  O2-  O422  1  0.83101143  0.16566068  0.81289192  1
  O2-  O423  1  0.83027098  0.42198415  0.14607680  1
  O2-  O424  1  0.84267909  0.42145306  0.48689397  1
  O2-  O425  1  0.84294432  0.41675276  0.81917033  1
  O2-  O426  1  0.81693275  0.65908379  0.14224371  1
  O2-  O427  1  0.82881500  0.66424421  0.48025797  1
  O2-  O428  1  0.83247199  0.64196229  0.80570849  1
  O2-  O429  1  0.85153754  0.86878728  0.16358181  1
  O2-  O430  1  0.80909535  0.90915117  0.46011621  1
  O2-  O431  1  0.82734486  0.91771226  0.80576631  1
  O2-  O432  1  0.13610485  0.07722908  0.19299997  1
  O2-  O433  1  0.15777754  0.07421463  0.52029791  1
  O2-  O434  1  0.16630557  0.07836599  0.85652302  1
  O2-  O435  1  0.14135315  0.32345416  0.18364676  1
  O2-  O436  1  0.16889778  0.31057408  0.52566976  1
  O2-  O437  1  0.17196126  0.33166295  0.85421555  1
  O2-  O438  1  0.18956051  0.57994833  0.19256770  1
  O2-  O439  1  0.16660643  0.58887061  0.53490471  1
  O2-  O440  1  0.19287460  0.58213479  0.83247431  1
  O2-  O441  1  0.14673321  0.84716172  0.18650602  1
  O2-  O442  1  0.16570807  0.82687432  0.52027315  1
  O2-  O443  1  0.16279880  0.83683981  0.85414776  1
  O2-  O444  1  0.43806692  0.09657738  0.19035029  1
  O2-  O445  1  0.41046903  0.08612678  0.52523463  1
  O2-  O446  1  0.42361548  0.07689507  0.86789445  1
  O2-  O447  1  0.43512353  0.35066107  0.18547109  1
  O2-  O448  1  0.41765284  0.33075216  0.52244292  1
  O2-  O449  1  0.42877495  0.35154639  0.89281678  1
  O2-  O450  1  0.42710510  0.59020087  0.18593269  1
  O2-  O451  1  0.43182816  0.56621190  0.52933419  1
  O2-  O452  1  0.42135662  0.57041976  0.85435032  1
  O2-  O453  1  0.43327060  0.84500211  0.18061581  1
  O2-  O454  1  0.40406648  0.82125646  0.52858081  1
  O2-  O455  1  0.43849644  0.84198847  0.84334869  1
  O2-  O456  1  0.67442461  0.08740370  0.19032883  1
  O2-  O457  1  0.64854796  0.07149000  0.52496893  1
  O2-  O458  1  0.66474323  0.09265467  0.84788357  1
  O2-  O459  1  0.66748108  0.33794953  0.18875459  1
  O2-  O460  1  0.67031750  0.33456764  0.52041593  1
  O2-  O461  1  0.67687931  0.33426480  0.84835009  1
  O2-  O462  1  0.66818500  0.57482960  0.18883700  1
  O2-  O463  1  0.67101091  0.58399492  0.53221332  1
  O2-  O464  1  0.66707847  0.56846470  0.85172978  1
  O2-  O465  1  0.65823519  0.83187156  0.17607295  1
  O2-  O466  1  0.65879587  0.83054716  0.51849325  1
  O2-  O467  1  0.68121731  0.87050800  0.86577316  1
  O2-  O468  1  0.90893078  0.07974697  0.19165645  1
  O2-  O469  1  0.94790093  0.17865618  0.53484432  1
  O2-  O470  1  0.91241650  0.08132910  0.85281995  1
  O2-  O471  1  0.92029231  0.34551688  0.18485784  1
  O2-  O472  1  0.93466521  0.33035059  0.53326889  1
  O2-  O473  1  0.92543213  0.34504486  0.84554201  1
  O2-  O474  1  0.89943849  0.58446149  0.18906709  1
  O2-  O475  1  0.91660502  0.58128795  0.52888563  1
  O2-  O476  1  0.91311179  0.57238527  0.85184071  1
  O2-  O477  1  0.89979649  0.82441584  0.17708628  1
  O2-  O478  1  0.91275376  0.83445113  0.49702992  1
  O2-  O479  1  0.94597998  0.89090878  0.86369629  1
  O2-  O480  1  0.17397709  0.10444538  0.31179724  1
  O2-  O481  1  0.16726675  0.08050171  0.64451041  1
  O2-  O482  1  0.17081193  0.08444060  0.98243636  1
  O2-  O483  1  0.18189382  0.34982634  0.36265891  1
  O2-  O484  1  0.18440213  0.31926535  0.64577184  1
  O2-  O485  1  0.17052812  0.31463416  0.97962560  1
  O2-  O486  1  0.17928873  0.58881926  0.31488931  1
  O2-  O487  1  0.17794330  0.59724216  0.66022335  1
  O2-  O488  1  0.18977177  0.61647938  0.96199752  1
  O2-  O489  1  0.14495323  0.83479484  0.29936361  1
  O2-  O490  1  0.19186967  0.84830759  0.65037619  1
  O2-  O491  1  0.17388517  0.85098919  0.96676304  1
  O2-  O492  1  0.43488328  0.07612070  0.30861789  1
  O2-  O493  1  0.39964958  0.07653808  0.64801615  1
  O2-  O494  1  0.39684622  0.03163471  0.98977282  1
  O2-  O495  1  0.42986503  0.35204351  0.30956961  1
  O2-  O496  1  0.42490060  0.33772083  0.63518649  1
  O2-  O497  1  0.42738265  0.35790293  0.96003604  1
  O2-  O498  1  0.42437375  0.58808641  0.31095984  1
  O2-  O499  1  0.41524980  0.56064333  0.65247085  1
  O2-  O500  1  0.42501343  0.59233754  0.97379504  1
  O2-  O501  1  0.48753465  0.81629471  0.29106069  1
  O2-  O502  1  0.38730268  0.84186559  0.65612302  1
  O2-  O503  1  0.41845162  0.84287522  0.98843025  1
  O2-  O504  1  0.67395916  0.09574266  0.31389653  1
  O2-  O505  1  0.66433081  0.08333210  0.64595321  1
  O2-  O506  1  0.63468705  0.06503512  0.97135644  1
  O2-  O507  1  0.65485785  0.32857948  0.30703638  1
  O2-  O508  1  0.65567380  0.32690647  0.64663718  1
  O2-  O509  1  0.63531449  0.31030444  0.96783154  1
  O2-  O510  1  0.66377126  0.57552670  0.30574618  1
  O2-  O511  1  0.65454008  0.56637863  0.65701473  1
  O2-  O512  1  0.66532000  0.58276670  0.97499708  1
  O2-  O513  1  0.63916997  0.81718427  0.29728667  1
  O2-  O514  1  0.66694270  0.83175898  0.64375671  1
  O2-  O515  1  0.67942297  0.84482752  0.98941733  1
  O2-  O516  1  0.91654165  0.08251157  0.31539331  1
  O2-  O517  1  0.91737959  0.08343932  0.64319463  1
  O2-  O518  1  0.88520728  0.06956232  0.97243757  1
  O2-  O519  1  0.91574899  0.33335242  0.30698671  1
  O2-  O520  1  0.90828518  0.33128479  0.65221074  1
  O2-  O521  1  0.93375386  0.35724377  0.96675247  1
  O2-  O522  1  0.90939337  0.58175819  0.30898779  1
  O2-  O523  1  1.01716320  0.64632888  0.65436709  1
  O2-  O524  1  0.92886564  0.60022240  0.97554919  1
  O2-  O525  1  0.88100254  0.81239791  0.29994267  1
  O2-  O526  1  0.92257496  0.82578277  0.66802322  1
  O2-  O527  1  0.91953191  0.82493933  0.97929520  1
  O2-  O528  1  0.08318212  0.15387577  0.02238221  1
  O2-  O529  1  0.07725814  0.17426980  0.36473347  1
  O2-  O530  1  0.08074779  0.15399834  0.69289288  1
  O2-  O531  1  0.08846273  0.46257223  0.01589788  1
  O2-  O532  1  0.08561209  0.38075328  0.27805534  1
  O2-  O533  1  0.08409707  0.42654089  0.67753168  1
  O2-  O534  1  0.08112087  0.69134138  0.02281722  1
  O2-  O535  1  0.07414337  0.66383758  0.34377180  1
  O2-  O536  1  0.09379817  0.68256945  0.69458527  1
  O2-  O537  1  0.08428399  0.91854115  0.02011906  1
  O2-  O538  1  0.04464241  0.89238569  0.35075340  1
  O2-  O539  1  0.09661876  0.92068854  0.69410561  1
  O2-  O540  1  0.33680954  0.14843497  0.00882608  1
  O2-  O541  1  0.32893436  0.19234434  0.36161724  1
  O2-  O542  1  0.33105648  0.17949966  0.68036171  1
  O2-  O543  1  0.34170347  0.42619531  0.01624236  1
  O2-  O544  1  0.34720284  0.42974381  0.36232132  1
  O2-  O545  1  0.34400382  0.40994189  0.68377836  1
  O2-  O546  1  0.34511301  0.67519460  0.02096120  1
  O2-  O547  1  0.34922751  0.68245806  0.34510840  1
  O2-  O548  1  0.34944752  0.64790960  0.68120101  1
  O2-  O549  1  0.37195236  0.87297876  0.02731748  1
  O2-  O550  1  0.27650794  0.95428323  0.36054164  1
  O2-  O551  1  0.28038741  0.90335673  0.67240791  1
  O2-  O552  1  0.55980809  0.14712825  0.02436692  1
  O2-  O553  1  0.59625147  0.17766885  0.35511608  1
  O2-  O554  1  0.57521219  0.16229228  0.68902069  1
  O2-  O555  1  0.58291961  0.42018343  0.01520870  1
  O2-  O556  1  0.58843791  0.41375748  0.35370857  1
  O2-  O557  1  0.57096414  0.41040407  0.68331566  1
  O2-  O558  1  0.58869345  0.67247699  0.01651415  1
  O2-  O559  1  0.58700304  0.66384894  0.35551657  1
  O2-  O560  1  0.58421982  0.65912336  0.68500152  1
  O2-  O561  1  0.58252384  0.91609177  0.02066930  1
  O2-  O562  1  0.60072693  0.93822434  0.36862122  1
  O2-  O563  1  0.57369687  0.91813839  0.68070259  1
  O2-  O564  1  0.87943009  0.20458939  0.02338025  1
  O2-  O565  1  0.83767740  0.17115494  0.35208229  1
  O2-  O566  1  0.83120670  0.16383286  0.68688130  1
  O2-  O567  1  0.85419116  0.43539295  0.01812283  1
  O2-  O568  1  0.84692685  0.42402075  0.36878900  1
  O2-  O569  1  0.81885316  0.41201880  0.68521484  1
  O2-  O570  1  0.83116256  0.66092469  0.01658582  1
  O2-  O571  1  0.81897973  0.65651472  0.35419166  1
  O2-  O572  1  0.84113076  0.64458103  0.68050353  1
  O2-  O573  1  0.83801671  0.89718091  0.03667160  1
  O2-  O574  1  0.81644837  0.91229917  0.33465452  1
  O2-  O575  1  0.83421832  0.91165443  0.68274348  1
