# generated using pymatgen
data_H2O
_symmetry_space_group_name_H-M   'P 1'
_cell_length_a   17.98801970
_cell_length_b   17.98144327
_cell_length_c   21.98836983
_cell_angle_alpha   90.02680929
_cell_angle_beta   89.96313999
_cell_angle_gamma   120.00393744
_symmetry_Int_Tables_number   1
_chemical_formula_structural   H2O
_chemical_formula_sum   'H384 O192'
_cell_volume   6159.05720032
_cell_formula_units_Z   192
loop_
 _symmetry_equiv_pos_site_id
 _symmetry_equiv_pos_as_xyz
  1  'x, y, z'
loop_
 _atom_type_symbol
 _atom_type_oxidation_number
  H+  1.0
  O2-  -2.0
loop_
 _atom_site_type_symbol
 _atom_site_label
 _atom_site_symmetry_multiplicity
 _atom_site_fract_x
 _atom_site_fract_y
 _atom_site_fract_z
 _atom_site_occupancy
  H+  H0  1  0.10186118  0.69311457  0.43598691  1
  H+  H1  1  0.73544099  0.37589186  0.18193293  1
  H+  H2  1  0.22468598  0.86027565  0.32167668  1
  H+  H3  1  0.10427588  0.37372416  0.83885224  1
  H+  H4  1  0.72008710  0.84947308  0.20176198  1
  H+  H5  1  0.38367063  0.74671121  -0.00926145  1
  H+  H6  1  0.85709975  0.98085709  0.44928324  1
  H+  H7  1  0.76070071  0.05499964  0.64029933  1
  H+  H8  1  0.59195127  0.47253932  0.67490714  1
  H+  H9  1  0.62668155  0.23772436  0.18295842  1
  H+  H10  1  0.89334797  0.52579526  0.65122967  1
  H+  H11  1  0.80320886  0.07233357  0.49153050  1
  H+  H12  1  0.37074004  0.62498665  0.84325830  1
  H+  H13  1  0.67496052  0.10096893  0.59811994  1
  H+  H14  1  0.62830163  0.14694511  0.18578035  1
  H+  H15  1  0.96638269  0.09939718  0.87677755  1
  H+  H16  1  0.58729522  -0.00687995  0.65503797  1
  H+  H17  1  0.81423163  0.13625308  -0.06174097  1
  H+  H18  1  0.82234370  0.85132019  0.05049960  1
  H+  H19  1  0.73267622  0.86207935  0.66839019  1
  H+  H20  1  0.12559982  0.32933475  0.99742787  1
  H+  H21  1  0.63922977  0.61406514  0.17696141  1
  H+  H22  1  0.43777300  0.07701026  0.10737130  1
  H+  H23  1  0.36532458  0.22278627  0.13965277  1
  H+  H24  1  0.59069884  0.84367943  0.67674305  1
  H+  H25  1  0.97525597  0.36050794  0.19933970  1
  H+  H26  1  0.66449848  0.07550926  0.38171973  1
  H+  H27  1  0.57937755  0.00779218  0.41141818  1
  H+  H28  1  0.58327873  0.67380169  0.11469682  1
  H+  H29  1  0.22772926  0.86560441  0.17227539  1
  H+  H30  1  0.89687822  0.26681866  0.83373673  1
  H+  H31  1  0.36447215  0.13360670  0.13851582  1
  H+  H32  1  0.27685802  0.13714873  0.68416422  1
  H+  H33  1  0.10941870  0.51040587  0.32472319  1
  H+  H34  1  0.85009645  0.39943627  0.31825294  1
  H+  H35  1  0.88150838  0.74695444  0.32396802  1
  H+  H36  1  0.62549586  0.63794074  0.50078928  1
  H+  H37  1  0.00235725  0.36823130  0.29114071  1
  H+  H38  1  0.16990903  0.13364042  0.84428902  1
  H+  H39  1  0.58714085  0.45824878  0.48380209  1
  H+  H40  1  0.62451475  0.74481408  0.67214026  1
  H+  H41  1  0.00640622  0.12578353  0.17914250  1
  H+  H42  1  0.20779179  0.36391716  0.84437222  1
  H+  H43  1  0.02407047  0.38628721  0.67084808  1
  H+  H44  1  0.62233706  0.27404995  0.49087303  1
  H+  H45  1  0.83457996  0.91569834  0.73893079  1
  H+  H46  1  0.61455213  0.95957471  0.49940954  1
  H+  H47  1  0.64199070  0.36976309  0.17217399  1
  H+  H48  1  0.92292311  0.79581180  0.85079111  1
  H+  H49  1  0.14901566  0.31471903  0.90350263  1
  H+  H50  1  0.52032240  0.13553331  0.47123801  1
  H+  H51  1  0.46518090  0.85539008  0.83939410  1
  H+  H52  1  0.62455050  0.86489842  1.00339415  1
  H+  H53  1  1.01996238  0.35703968  1.01879055  1
  H+  H54  1  0.44387991  0.32498565  0.90581615  1
  H+  H55  1  0.14832664  0.27321726  0.49300906  1
  H+  H56  1  0.85606169  0.24852145  0.30418162  1
  H+  H57  1  0.14582124  0.87366400  0.85537593  1
  H+  H58  1  0.34720308  0.44548486  0.13977955  1
  H+  H59  1  0.86720165  -0.03107903  0.67502118  1
  H+  H60  1  0.67696526  0.57399335  1.03645234  1
  H+  H61  1  0.37265758  -0.00639335  0.99196019  1
  H+  H62  1  0.61381420  0.98288271  0.17268817  1
  H+  H63  1  0.24271413  0.62620058  0.35436342  1
  H+  H64  1  0.23094671  0.62255784  0.51443041  1
  H+  H65  1  0.85454405  0.74113987  0.19558038  1
  H+  H66  1  0.38574155  0.58338108  0.15611153  1
  H+  H67  1  0.10159989  0.20184176  0.02097060  1
  H+  H68  1  0.90225020  0.65348100  0.67256917  1
  H+  H69  1  0.59944488  0.18665722  0.09087072  1
  H+  H70  1  0.19473421  0.34475966  0.34205274  1
  H+  H71  1  -0.00031975  0.59404768  -0.02233752  1
  H+  H72  1  0.83878782  0.40884147  0.71585107  1
  H+  H73  1  0.72701810  0.10369257  0.18233999  1
  H+  H74  1  0.45950061  0.36860760  0.31693811  1
  H+  H75  1  0.35869627  0.47686823  0.49178719  1
  H+  H76  1  0.59806516  0.73292567  1.01538068  1
  H+  H77  1  0.78509465  0.37188140  0.81924034  1
  H+  H78  1  0.67949204  0.07106636  0.24467487  1
  H+  H79  1  0.22589081  0.59527079  0.17073463  1
  H+  H80  1  0.11695768  0.98178906  0.34533272  1
  H+  H81  1  0.35358175  0.24601143  0.34161434  1
  H+  H82  1  0.72211108  0.85841255  0.84649768  1
  H+  H83  1  0.62810241  0.77450825  0.84686194  1
  H+  H84  1  0.37590815  0.95873257  0.15627535  1
  H+  H85  1  0.12888890  0.03054992  0.20753004  1
  H+  H86  1  0.02510974  0.62148992  0.16233589  1
  H+  H87  1  0.26985471  0.87621206  1.01301141  1
  H+  H88  1  0.88198310  0.65562231  0.33190753  1
  H+  H89  1  0.85304014  0.21942020  0.19779219  1
  H+  H90  1  0.27491962  0.89267554  0.82771703  1
  H+  H91  1  0.43764131  0.36725862  0.84425863  1
  H+  H92  1  0.88881155  0.92023198  0.32989542  1
  H+  H93  1  0.13832069  0.87827654  0.61353150  1
  H+  H94  1  0.83637962  0.65448607  0.82925698  1
  H+  H95  1  0.34017146  0.49505865  0.83151865  1
  H+  H96  1  0.59210389  0.63604117  0.66849605  1
  H+  H97  1  0.86703065  0.48693617  0.17549270  1
  H+  H98  1  0.48661746  0.12731527  0.65498447  1
  H+  H99  1  0.00840173  0.37435125  0.83647099  1
  H+  H100  1  0.87626813  0.78445148  0.49866070  1
  H+  H101  1  0.57840148  0.63363050  0.82721524  1
  H+  H102  1  0.36293019  0.16453759  0.35271862  1
  H+  H103  1  0.88127676  0.45624659  0.99020387  1
  H+  H104  1  0.11719025  0.43665156  0.01958328  1
  H+  H105  1  0.36116309  0.75607610  0.32732748  1
  H+  H106  1  0.90289226  0.88213448  0.51652462  1
  H+  H107  1  0.55341925  0.41156776  0.38898357  1
  H+  H108  1  0.35896854  0.38977089  -0.01028179  1
  H+  H109  1  0.86786975  0.40221306  0.19292710  1
  H+  H110  1  0.63762859  0.63670067  1.03765834  1
  H+  H111  1  0.46549300  0.36496454  0.67350269  1
  H+  H112  1  0.70219021  0.09879318  0.99167565  1
  H+  H113  1  0.61144198  0.47612668  0.15670915  1
  H+  H114  1  0.61337902  0.36450682  0.00440539  1
  H+  H115  1  0.91173799  1.04694050  0.29926396  1
  H+  H116  1  0.85610879  0.96829716  0.83924346  1
  H+  H117  1  0.14239354  0.66790124  0.00343040  1
  H+  H118  1  0.14033271  0.11220591  0.67771567  1
  H+  H119  1  0.37329331  0.60410015  0.65843152  1
  H+  H120  1  0.13829076  0.86638032  0.32218908  1
  H+  H121  1  0.88177203  0.10706223  0.20023316  1
  H+  H122  1  0.36632790  0.63882072  0.50156084  1
  H+  H123  1  0.35909089  0.88607288  0.82126504  1
  H+  H124  1  0.51018481  0.15732316  0.31871689  1
  H+  H125  1  0.25816005  0.62722090  0.83131784  1
  H+  H126  1  0.11017054  0.99785307  0.48850708  1
  H+  H127  1  0.37467612  0.26915526  0.67042412  1
  H+  H128  1  0.65311138  0.25602777  0.83006268  1
  H+  H129  1  0.10882851  0.46991445  0.84622699  1
  H+  H130  1  0.82751281  0.60700918  0.99710512  1
  H+  H131  1  0.59592781  0.40095771  0.32974086  1
  H+  H132  1  0.58188643  0.41206440  0.73274211  1
  H+  H133  1  0.49860482  0.11593353  0.16302555  1
  H+  H134  1  0.37271556  0.77065886  0.83868585  1
  H+  H135  1  0.89833690  0.87347027  0.66866511  1
  H+  H136  1  0.11296666  0.73419209  0.01324008  1
  H+  H137  1  0.11331337  0.45802990  0.17078685  1
  H+  H138  1  0.98426762  0.63547751  0.49846505  1
  H+  H139  1  0.21874381  0.34212711  0.98613418  1
  H+  H140  1  0.85298972  0.95597141  0.19299699  1
  H+  H141  1  0.88302702  0.30897062  0.59021427  1
  H+  H142  1  0.35289359  0.72175798  0.67663691  1
  H+  H143  1  0.00876344  0.12063072  0.02883676  1
  H+  H144  1  0.47501989  0.87279633  0.36155393  1
  H+  H145  1  0.65715100  0.34565756  0.83338319  1
  H+  H146  1  0.37952421  0.25594155  0.98485746  1
  H+  H147  1  0.36733231  0.08773082  0.98804144  1
  H+  H148  1  0.89123311  0.35451250  0.83326312  1
  H+  H149  1  0.63488202  0.37281172  0.65345857  1
  H+  H150  1  0.36667892  0.36237760  0.67587657  1
  H+  H151  1  0.40029624  0.59720088  0.90467196  1
  H+  H152  1  0.47073242  0.33988495  -0.00374733  1
  H+  H153  1  0.13307223  0.90662533  0.17316557  1
  H+  H154  1  0.86618145  0.99954278  0.01858693  1
  H+  H155  1  0.64300343  0.10551113  0.79941228  1
  H+  H156  1  0.52055569  0.61832950  0.16638524  1
  H+  H157  1  0.92631226  0.79885122  0.66670668  1
  H+  H158  1  0.81731720  0.30742905  0.50939017  1
  H+  H159  1  0.04107223  0.90764946  0.83770334  1
  H+  H160  1  0.68874484  0.58827189  0.25572868  1
  H+  H161  1  0.87093385  0.39331649  0.65210594  1
  H+  H162  1  0.30028106  0.14920093  0.82813775  1
  H+  H163  1  0.11709543  0.13171427  0.37885506  1
  H+  H164  1  0.69199861  0.61157639  0.65387586  1
  H+  H165  1  0.70371985  0.60642888  0.79717505  1
  H+  H166  1  0.86400835  0.88506824  0.83428296  1
  H+  H167  1  0.53008173  0.12574577  0.81129520  1
  H+  H168  1  0.95641844  0.58009355  0.75762307  1
  H+  H169  1  0.11293521  0.34113993  0.19620391  1
  H+  H170  1  0.98264503  0.62285418  0.33409505  1
  H+  H171  1  0.33132100  0.63033401  0.35110625  1
  H+  H172  1  0.75288036  0.03886014  0.60804001  1
  H+  H173  1  0.27329997  0.89858183  0.65692907  1
  H+  H174  1  0.66001196  0.60019983  0.32602949  1
  H+  H175  1  1.01268830  0.90728791  0.62939371  1
  H+  H176  1  0.56018468  0.38304211  0.83119087  1
  H+  H177  1  0.16583646  0.04374067  0.84923320  1
  H+  H178  1  0.13583688  0.59394578  0.87374725  1
  H+  H179  1  0.37360997  0.70442884  0.14819510  1
  H+  H180  1  0.49104431  0.83933199  0.67719231  1
  H+  H181  1  0.35744587  0.14850473  0.49769924  1
  H+  H182  1  0.77201165  0.11894346  0.32443260  1
  H+  H183  1  0.01282639  0.86181544  0.48115260  1
  H+  H184  1  0.58868011  -0.03514268  1.01830654  1
  H+  H185  1  0.11576726  0.73281972  0.33919428  1
  H+  H186  1  0.82671225  0.61652471  -0.03627449  1
  H+  H187  1  0.37115932  0.51511852  0.65694659  1
  H+  H188  1  0.76557692  0.40244244  0.33345906  1
  H+  H189  1  0.08892749  0.38780312  0.52037981  1
  H+  H190  1  0.47064664  0.35597694  0.16504335  1
  H+  H191  1  0.72705519  0.08532592  0.46541282  1
  H+  H192  1  0.61062330  0.96543038  0.80579734  1
  H+  H193  1  0.39110637  0.84250329  0.17109471  1
  H+  H194  1  0.12103601  0.11385133  0.20336968  1
  H+  H195  1  0.35763659  0.96699692  0.32470038  1
  H+  H196  1  0.35514552  0.86639291  1.00668277  1
  H+  H197  1  0.12011477  0.09122856  0.50292675  1
  H+  H198  1  0.91321538  0.10138444  0.63971180  1
  H+  H199  1  0.16553024  0.58839319  0.59944265  1
  H+  H200  1  0.13586478  0.79107212  0.63344533  1
  H+  H201  1  0.25872764  0.37503654  0.67307665  1
  H+  H202  1  0.04784554  0.13408030  0.80167880  1
  H+  H203  1  0.38414194  0.77263368  0.51588221  1
  H+  H204  1  0.50804245  0.64504705  0.01725600  1
  H+  H205  1  0.10717039  0.21923616  0.38410976  1
  H+  H206  1  0.43470382  0.65562941  0.28178810  1
  H+  H207  1  0.89680683  0.63155756  0.17899821  1
  H+  H208  1  0.36286601  0.88014437  0.48859508  1
  H+  H209  1  0.86282849  0.64421419  0.48260384  1
  H+  H210  1  0.84793468  0.20950350  0.98720020  1
  H+  H211  1  0.40928027  1.06085136  0.92803083  1
  H+  H212  1  0.87126747  0.45653190  0.48594266  1
  H+  H213  1  0.51941309  0.88060506  0.17077810  1
  H+  H214  1  0.31317220  0.66025785  0.76775670  1
  H+  H215  1  0.78658773  0.37629299  1.00111077  1
  H+  H216  1  0.86484265  0.08735074  1.00633591  1
  H+  H217  1  0.97972804  0.37882960  0.58693808  1
  H+  H218  1  0.13295840  0.35682720  0.65444092  1
  H+  H219  1  0.41096989  0.83078750  0.60266444  1
  H+  H220  1  0.79335287  0.13624676  0.79854606  1
  H+  H221  1  1.02358911  0.91372841  1.00055442  1
  H+  H222  1  0.72261821  0.36935728  0.64796379  1
  H+  H223  1  0.59192020  0.67662592  0.33408152  1
  H+  H224  1  0.80784631  0.21296119  0.51642244  1
  H+  H225  1  0.15456702  0.06362066  0.73264185  1
  H+  H226  1  0.73180802  0.62122049  0.17332177  1
  H+  H227  1  0.26482945  0.38836162  0.48947077  1
  H+  H228  1  0.98668786  0.61407868  0.64692071  1
  H+  H229  1  0.10355411  0.23982057  0.19087254  1
  H+  H230  1  0.82759887  0.67155114  0.68907493  1
  H+  H231  1  0.49635780  0.64238641  0.82668709  1
  H+  H232  1  0.11906541  0.22997212  0.81776476  1
  H+  H233  1  0.76795210  0.63643427  0.31659528  1
  H+  H234  1  0.39742024  0.08302082  0.43151571  1
  H+  H235  1  0.16755197  0.83869195  0.23121266  1
  H+  H236  1  0.05266364  0.63763095  0.83114264  1
  H+  H237  1  0.80899877  0.93429719  0.33772783  1
  H+  H238  1  0.78665639  0.71510203  1.04509213  1
  H+  H239  1  0.70067125  0.60040568  0.86777220  1
  H+  H240  1  0.99238941  0.87665824  0.31970958  1
  H+  H241  1  0.14939628  0.63640499  0.51130749  1
  H+  H242  1  0.33822391  0.40812818  0.83850983  1
  H+  H243  1  0.59997989  0.23772949  0.65862198  1
  H+  H244  1  0.75337732  0.87625845  1.02826233  1
  H+  H245  1  0.40056770  0.11140911  0.84208498  1
  H+  H246  1  0.32702991  0.46887665  0.33641598  1
  H+  H247  1  0.88604478  0.34477948  -0.00342436  1
  H+  H248  1  0.33353599  0.07036328  0.27720922  1
  H+  H249  1  0.88600619  0.78597249  0.02748737  1
  H+  H250  1  0.39557720  0.23073413  0.82655480  1
  H+  H251  1  0.02928207  0.12027136  0.65227915  1
  H+  H252  1  0.09734110  0.32906416  0.33664210  1
  H+  H253  1  0.73259538  0.59650150  0.50166557  1
  H+  H254  1  0.16853866  0.56708210  1.02083060  1
  H+  H255  1  0.60684878  0.13876584  0.03364012  1
  H+  H256  1  0.66494424  0.78171095  0.51159583  1
  H+  H257  1  0.36780790  0.36442865  0.31460611  1
  H+  H258  1  0.11064411  0.64072541  0.34210036  1
  H+  H259  1  0.61708363  0.87427801  0.51342332  1
  H+  H260  1  0.21783908  0.12484907  0.34988144  1
  H+  H261  1  0.94249501  0.92524233  0.99337320  1
  H+  H262  1  0.60470701  0.13597279  0.44811005  1
  H+  H263  1  -0.02192046  0.31766064  0.35069548  1
  H+  H264  1  -0.09142308  0.02756869  0.59035768  1
  H+  H265  1  0.16144436  1.00557799  0.02647635  1
  H+  H266  1  0.59979382  0.44389572  -0.00521275  1
  H+  H267  1  0.12212270  0.64714305  0.65853366  1
  H+  H268  1  0.34378181  0.61538475  0.25448717  1
  H+  H269  1  0.34486802  0.64176018  0.08968202  1
  H+  H270  1  0.14620966  0.78434129  0.86290703  1
  H+  H271  1  0.38625819  0.12101330  0.66224697  1
  H+  H272  1  0.66543138  0.87878868  0.35635416  1
  H+  H273  1  0.13346035  0.26786272  0.64761693  1
  H+  H274  1  0.87495509  0.46222402  0.81160479  1
  H+  H275  1  0.59245510  1.01423274  0.68544062  1
  H+  H276  1  0.13225203  0.52700085  0.65921128  1
  H+  H277  1  0.36720095  0.26721854  0.50766304  1
  H+  H278  1  0.50430996  0.87024149  0.01855454  1
  H+  H279  1  0.13505114  0.59290275  0.17190854  1
  H+  H280  1  0.89783433  0.70015024  0.77341093  1
  H+  H281  1  0.26425123  0.63370442  0.67394897  1
  H+  H282  1  0.53348458  0.58135132  0.35414974  1
  H+  H283  1  0.92417330  0.24233290  0.65717795  1
  H+  H284  1  0.09195047  0.98883960  0.57211117  1
  H+  H285  1  0.60653998  0.15674176  0.63815918  1
  H+  H286  1  0.65299627  0.46656190  0.81962923  1
  H+  H287  1  0.58060273  0.36657485  0.48533244  1
  H+  H288  1  0.57617686  0.92003893  0.10664416  1
  H+  H289  1  0.70825725  0.19181706  0.56977074  1
  H+  H290  1  0.15308984  0.79929365  0.53723205  1
  H+  H291  1  0.38676848  0.86616453  0.66240835  1
  H+  H292  1  0.95342816  0.86026060  0.25480888  1
  H+  H293  1  0.33049883  0.15451588  0.05462905  1
  H+  H294  1  0.34447090  0.35760757  0.13656671  1
  H+  H295  1  0.33443955  0.89341436  0.10289230  1
  H+  H296  1  0.66949549  0.31219316  0.93718664  1
  H+  H297  1  0.32117026  0.40332808  0.05110494  1
  H+  H298  1  0.11526082  0.99271993  0.64538037  1
  H+  H299  1  0.32599267  0.66675607  0.44677890  1
  H+  H300  1  0.31375898  0.41357345  0.73600584  1
  H+  H301  1  1.01240447  0.81543889  0.17324361  1
  H+  H302  1  0.52577624  0.87843220  0.42302447  1
  H+  H303  1  0.56635784  0.18271552  0.37899008  1
  H+  H304  1  0.59964696  0.66610288  0.44135983  1
  H+  H305  1  0.91442384  0.58117193  0.95016172  1
  H+  H306  1  0.92081549  0.59453183  0.55345492  1
  H+  H307  1  0.66021323  0.83955238  0.94414248  1
  H+  H308  1  0.85635253  0.18308310  0.12975654  1
  H+  H309  1  0.90209655  0.18877626  0.71804858  1
  H+  H310  1  0.84760872  0.72533935  0.12526487  1
  H+  H311  1  0.23390195  0.10978026  0.94556747  1
  H+  H312  1  0.34922391  0.17340061  0.73552453  1
  H+  H313  1  0.46048139  0.36296198  0.49977312  1
  H+  H314  1  0.38633178  0.02778796  0.65924361  1
  H+  H315  1  0.39917394  0.54246727  0.21517428  1
  H+  H316  1  0.31754198  0.17918909  0.44691192  1
  H+  H317  1  0.57066306  0.67279446  0.73364646  1
  H+  H318  1  0.16628857  0.32886442  0.55452201  1
  H+  H319  1  0.83056307  0.23885973  0.37503938  1
  H+  H320  1  0.92375980  0.31977362  0.93911291  1
  H+  H321  1  0.40161769  0.32087326  0.21877988  1
  H+  H322  1  0.14843148  0.87845379  1.01374333  1
  H+  H323  1  0.67981546  0.86964834  0.28487644  1
  H+  H324  1  0.39924353  0.06184592  0.23721009  1
  H+  H325  1  0.60990891  0.87923091  0.82768244  1
  H+  H326  1  0.07988686  0.90389678  0.39264682  1
  H+  H327  1  0.13078132  0.29744926  0.25966707  1
  H+  H328  1  0.66793959  0.35813075  0.26610178  1
  H+  H329  1  0.62902569  0.76458970  0.20476885  1
  H+  H330  1  0.81789790  0.90442187  0.13235292  1
  H+  H331  1  0.37342086  0.01255726  0.47976213  1
  H+  H332  1  0.55603958  0.86577795  0.74346178  1
  H+  H333  1  0.74270641  0.88134263  0.51741973  1
  H+  H334  1  0.68019634  0.08400649  0.85627350  1
  H+  H335  1  0.84129104  0.40523896  0.42498698  1
  H+  H336  1  0.31839195  0.41739120  0.39747226  1
  H+  H337  1  0.69820322  0.51022589  0.53738462  1
  H+  H338  1  0.09549080  0.47835048  0.52553289  1
  H+  H339  1  0.40789994  0.81560285  0.93710347  1
  H+  H340  1  0.26867198  0.86330000  0.47634094  1
  H+  H341  1  0.07845634  0.41264956  0.73165069  1
  H+  H342  1  0.17296917  0.55164657  0.92187606  1
  H+  H343  1  0.06817509  0.16013455  0.11816101  1
  H+  H344  1  0.63994366  0.63511027  0.91412840  1
  H+  H345  1  0.14933112  0.09335266  0.29463646  1
  H+  H346  1  0.63022730  0.29802569  0.32281237  1
  H+  H347  1  0.92600980  0.60075860  0.23748936  1
  H+  H348  1  0.92922421  0.61782048  0.81246631  1
  H+  H349  1  0.26209278  0.57968839  0.99979218  1
  H+  H350  1  0.88922895  0.53577864  0.32904684  1
  H+  H351  1  0.57865667  0.16112613  0.74656332  1
  H+  H352  1  0.68594025  0.65785466  0.92568312  1
  H+  H353  1  0.82703134  0.67078861  0.42528499  1
  H+  H354  1  0.08411478  0.17036871  0.71164237  1
  H+  H355  1  0.67860960  0.83231071  0.60434421  1
  H+  H356  1  0.37049858  0.84677425  0.31320792  1
  H+  H357  1  0.47337974  0.86044074  0.51977854  1
  H+  H358  1  0.41641743  0.80979939  0.23064894  1
  H+  H359  1  0.87205193  0.13117912  0.82659193  1
  H+  H360  1  0.94832435  0.86501249  0.90558572  1
  H+  H361  1  0.32088922  0.91862228  0.72277437  1
  H+  H362  1  0.36591588  0.53437327  0.99673726  1
  H+  H363  1  0.64148165  0.26618094  1.00365389  1
  H+  H364  1  0.36764602  0.36483708  0.49978204  1
  H+  H365  1  0.47934334  0.61312862  0.51093327  1
  H+  H366  1  0.15656369  0.57058730  0.26806283  1
  H+  H367  1  0.61385429  0.06995630  0.95693608  1
  H+  H368  1  0.10469000  0.92641480  0.78187927  1
  H+  H369  1  0.64461922  0.57100959  0.59387142  1
  H+  H370  1  0.39098393  1.01814529  0.83710109  1
  H+  H371  1  0.14995348  0.68670566  0.81097689  1
  H+  H372  1  0.08177594  0.64463687  0.10244845  1
  H+  H373  1  0.71698423  0.01513511  0.31792847  1
  H+  H374  1  0.89406193  0.05844378  0.92429920  1
  H+  H375  1  0.07678116  0.38761227  0.11718496  1
  H+  H376  1  0.10934688  0.94588429  0.08383525  1
  H+  H377  1  0.41331933  0.57953937  0.56732969  1
  H+  H378  1  0.64567746  0.32919351  0.55229411  1
  H+  H379  1  0.17028405  0.84711171  0.95051301  1
  H+  H380  1  0.09544863  0.84763341  0.47252469  1
  H+  H381  1  0.33724531  0.91092280  0.38676987  1
  H+  H382  1  0.58267373  0.41258185  0.09901267  1
  H+  H383  1  0.10235103  0.69937480  0.70801708  1
  O2-  O384  1  0.06751315  0.16117299  0.16469978  1
  O2-  O385  1  0.13407342  0.18236471  0.46573380  1
  O2-  O386  1  0.10865316  0.17593127  0.79659356  1
  O2-  O387  1  0.07775187  0.39477892  0.16231982  1
  O2-  O388  1  0.05825350  0.41688829  0.53466146  1
  O2-  O389  1  0.07669585  0.40986533  0.82463865  1
  O2-  O390  1  0.08213363  0.63473278  0.14641439  1
  O2-  O391  1  0.10352386  0.69778741  0.48231983  1
  O2-  O392  1  0.11316979  0.67330921  0.84668562  1
  O2-  O393  1  0.09645507  0.93569962  0.16175858  1
  O2-  O394  1  0.07199999  0.88546059  0.46237421  1
  O2-  O395  1  0.10415767  0.93561492  0.82557844  1
  O2-  O396  1  0.33866134  0.16473012  0.11952533  1
  O2-  O397  1  0.32705228  0.18097736  0.49148495  1
  O2-  O398  1  0.35893638  0.17171578  0.80963006  1
  O2-  O399  1  0.31489746  0.38783707  0.12102673  1
  O2-  O400  1  0.32734603  0.41753365  0.47433317  1
  O2-  O401  1  0.30881812  0.43320152  0.81676388  1
  O2-  O402  1  0.34127809  0.64328265  0.13568117  1
  O2-  O403  1  0.33486299  0.67020405  0.49169456  1
  O2-  O404  1  0.31574374  0.66548175  0.81366435  1
  O2-  O405  1  0.33972978  0.89638226  0.14807046  1
  O2-  O406  1  0.32983248  0.90341565  0.46701135  1
  O2-  O407  1  0.33105424  0.91854618  0.80585693  1
  O2-  O408  1  0.59728535  0.17554546  0.16984633  1
  O2-  O409  1  0.57915739  0.17347918  0.45593412  1
  O2-  O410  1  0.58700596  0.15495993  0.79087596  1
  O2-  O411  1  0.58003522  0.41493267  0.14400167  1
  O2-  O412  1  0.54892118  0.39834439  0.47101866  1
  O2-  O413  1  0.61351987  0.40708433  0.80571953  1
  O2-  O414  1  0.58243134  0.66071162  0.15876280  1
  O2-  O415  1  0.60021837  0.67167221  0.48614741  1
  O2-  O416  1  0.55664287  0.66841494  0.80869855  1
  O2-  O417  1  0.57989184  0.92171706  0.15317719  1
  O2-  O418  1  0.57857973  0.89720510  0.50206427  1
  O2-  O419  1  0.57565286  0.90117509  0.80521510  1
  O2-  O420  1  0.83797120  0.16349607  0.17124792  1
  O2-  O421  1  0.77884901  0.11082989  0.49121818  1
  O2-  O422  1  0.85684392  0.16812331  0.80237129  1
  O2-  O423  1  0.83587396  0.42379653  0.16982179  1
  O2-  O424  1  0.85297363  0.40007611  0.46825487  1
  O2-  O425  1  0.84415760  0.40063047  0.80045394  1
  O2-  O426  1  0.84020848  0.69589205  0.16556370  1
  O2-  O427  1  0.82160496  0.66380859  0.47003128  1
  O2-  O428  1  0.89766141  0.69230148  0.81853404  1
  O2-  O429  1  0.82093572  0.89716885  0.17659430  1
  O2-  O430  1  0.82897425  0.98201133  0.48762109  1
  O2-  O431  1  0.82825123  0.91007259  0.82061993  1
  O2-  O432  1  0.15050874  0.08816373  0.22569837  1
  O2-  O433  1  0.12171522  0.04019049  0.52097119  1
  O2-  O434  1  0.20175121  0.10574236  0.85960658  1
  O2-  O435  1  0.13483017  0.30261767  0.21345913  1
  O2-  O436  1  0.16691996  0.33339381  0.50967008  1
  O2-  O437  1  0.14723503  0.32326631  0.85703420  1
  O2-  O438  1  0.16868364  0.56613927  0.19019835  1
  O2-  O439  1  0.16967991  0.59814074  0.52746030  1
  O2-  O440  1  0.16096557  0.55570059  0.87681812  1
  O2-  O441  1  0.16973435  0.85030136  0.18649437  1
  O2-  O442  1  0.15180704  0.79189725  0.49187362  1
  O2-  O443  1  0.17853166  0.84684089  0.87187166  1
  O2-  O444  1  0.43494208  0.07673612  0.15187258  1
  O2-  O445  1  0.40225240  0.07654064  0.47513920  1
  O2-  O446  1  0.42566475  0.07603181  0.85713040  1
  O2-  O447  1  0.40815785  0.31903459  0.17400796  1
  O2-  O448  1  0.39923855  0.33520379  0.51784620  1
  O2-  O449  1  0.45867665  0.33051342  0.85988123  1
  O2-  O450  1  0.41232340  0.54932692  0.17160609  1
  O2-  O451  1  0.41770549  0.58223701  0.52121031  1
  O2-  O452  1  0.40110509  0.59427346  0.85892829  1
  O2-  O453  1  0.42493152  0.81498503  0.18518386  1
  O2-  O454  1  0.41133659  0.83357651  0.53093794  1
  O2-  O455  1  0.40584717  0.83066074  0.85495466  1
  O2-  O456  1  0.66750288  0.07278114  0.19980120  1
  O2-  O457  1  0.63290666  0.06362882  0.42119040  1
  O2-  O458  1  0.67608906  0.07608237  0.81228198  1
  O2-  O459  1  0.67163558  0.34277882  0.19293668  1
  O2-  O460  1  0.63776162  0.33123179  0.50807234  1
  O2-  O461  1  0.68491019  0.31365842  0.84941456  1
  O2-  O462  1  0.67214563  0.58434004  0.18933195  1
  O2-  O463  1  0.68029673  0.55155677  0.52568570  1
  O2-  O464  1  0.72055441  0.58321298  0.83132142  1
  O2-  O465  1  0.66099892  0.82397346  0.21996233  1
  O2-  O466  1  0.68471970  0.83733912  0.53256713  1
  O2-  O467  1  0.66144085  0.83483603  0.86087893  1
  O2-  O468  1  0.91086133  0.07368669  0.21277547  1
  O2-  O469  1  0.87659408  -0.03717716  0.53458288  1
  O2-  O470  1  0.90379634  0.06935506  0.87863746  1
  O2-  O471  1  0.94180218  0.36911356  0.23199045  1
  O2-  O472  1  0.80587481  0.26030284  0.53887150  1
  O2-  O473  1  0.92302761  0.32625014  0.85169223  1
  O2-  O474  1  0.92443884  0.59871721  0.19212342  1
  O2-  O475  1  0.92270995  0.59947127  0.50864478  1
  O2-  O476  1  0.95255130  0.57881110  0.80200211  1
  O2-  O477  1  1.00812545  0.86751685  0.17805934  1
  O2-  O478  1  0.92318835  0.83957234  0.51306521  1
  O2-  O479  1  0.94199522  0.85692959  0.86011254  1
  O2-  O480  1  0.15498614  0.09252102  0.34158550  1
  O2-  O481  1  0.16995954  0.07794280  0.68989062  1
  O2-  O482  1  0.23560237  0.10271736  0.99034152  1
  O2-  O483  1  0.13385086  0.30075036  0.33362686  1
  O2-  O484  1  0.16685897  0.33084806  0.63909940  1
  O2-  O485  1  0.15659311  0.30495844  0.97425053  1
  O2-  O486  1  0.14801678  0.57061561  0.31327623  1
  O2-  O487  1  0.16341147  0.58797048  0.64579588  1
  O2-  O488  1  0.19083587  0.54118627  0.99245360  1
  O2-  O489  1  0.16360511  0.83055560  0.30784512  1
  O2-  O490  1  0.17048223  0.84687836  0.61232998  1
  O2-  O491  1  0.16984326  0.84106127  0.99572438  1
  O2-  O492  1  0.38472991  0.06473260  0.27987986  1
  O2-  O493  1  0.41707005  0.09061988  0.64578659  1
  O2-  O494  1  0.39903521  0.05562532  0.97453056  1
  O2-  O495  1  0.39770340  0.33332346  0.30190294  1
  O2-  O496  1  0.40247394  0.33334843  0.66043668  1
  O2-  O497  1  0.41588123  0.31752407  0.97317609  1
  O2-  O498  1  0.37802588  0.60402316  0.28368353  1
  O2-  O499  1  0.40252898  0.57439521  0.64132501  1
  O2-  O500  1  0.39766499  0.59647836  0.98445720  1
  O2-  O501  1  0.39766465  0.81071380  0.30503201  1
  O2-  O502  1  0.41150103  0.83010414  0.64932737  1
  O2-  O503  1  0.40553956  0.80915453  0.98215503  1
  O2-  O504  1  0.71386814  0.06871183  0.31516343  1
  O2-  O505  1  0.65618790  0.14196372  0.58843079  1
  O2-  O506  1  0.63772007  0.06822364  0.99630682  1
  O2-  O507  1  0.66456324  0.36058539  0.31187040  1
  O2-  O508  1  0.66089889  0.34014581  0.63636954  1
  O2-  O509  1  0.67032120  0.32318217  0.98130444  1
  O2-  O510  1  0.70227241  0.59123930  0.30242985  1
  O2-  O511  1  0.63372875  0.57832012  0.63786385  1
  O2-  O512  1  0.68834677  0.63069572  1.04834821  1
  O2-  O513  1  0.70282731  0.90862678  0.32209838  1
  O2-  O514  1  0.67204514  0.82899569  0.65082478  1
  O2-  O515  1  0.65748257  0.83695101  0.98922647  1
  O2-  O516  1  0.93699522  0.10292147  0.27575338  1
  O2-  O517  1  0.92779328  0.05550846  0.63309282  1
  O2-  O518  1  0.89714574  0.05716093  0.99787701  1
  O2-  O519  1  0.86018505  0.28599146  0.23836800  1
  O2-  O520  1  0.93221457  0.34858626  0.61782668  1
  O2-  O521  1  0.91530313  0.30947938  0.98326894  1
  O2-  O522  1  0.92353009  0.59780670  0.31648969  1
  O2-  O523  1  0.92385747  0.58810944  0.63916859  1
  O2-  O524  1  0.95026121  0.55457885  0.95178313  1
  O2-  O525  1  0.93501207  0.84909645  0.29785322  1
  O2-  O526  1  0.93787794  0.85506050  0.65076971  1
  O2-  O527  1  0.96620187  0.88960130  0.97984163  1
  O2-  O528  1  0.06718277  0.15029520  0.04617116  1
  O2-  O529  1  0.08993643  0.16244047  0.40523276  1
  O2-  O530  1  0.08959234  0.16057103  0.66811509  1
  O2-  O531  1  0.07826419  0.37822480  0.03646097  1
  O2-  O532  1  0.02882009  0.36475495  0.33046241  1
  O2-  O533  1  0.08336183  0.41629260  0.68710807  1
  O2-  O534  1  0.09322419  0.67151396  0.01818974  1
  O2-  O535  1  0.08703287  0.67522138  0.36030454  1
  O2-  O536  1  0.09322486  0.68316793  0.66523040  1
  O2-  O537  1  0.11678805  0.94650810  0.03848109  1
  O2-  O538  1  0.08848260  0.91797119  0.34746597  1
  O2-  O539  1  0.08193290  0.94919702  0.61291837  1
  O2-  O540  1  0.32882983  0.14628589  0.00542401  1
  O2-  O541  1  0.32768978  0.18917370  0.36477196  1
  O2-  O542  1  0.34106695  0.17245225  0.68970397  1
  O2-  O543  1  0.32349720  0.41345873  0.00481591  1
  O2-  O544  1  0.30748286  0.41122991  0.35224767  1
  O2-  O545  1  0.31868722  0.40424517  0.69192788  1
  O2-  O546  1  0.34747038  0.63470565  0.01152413  1
  O2-  O547  1  0.30313148  0.65963545  0.36977579  1
  O2-  O548  1  0.32335074  0.66186708  0.69226101  1
  O2-  O549  1  0.33364287  0.90448406  0.02247233  1
  O2-  O550  1  0.33101443  0.90807474  0.34148772  1
  O2-  O551  1  0.33015483  0.92589583  0.67786171  1
  O2-  O552  1  0.58849945  0.17972278  0.04622682  1
  O2-  O553  1  0.56870572  0.19087977  0.33401578  1
  O2-  O554  1  0.57251593  0.17427129  0.66771774  1
  O2-  O555  1  0.57808694  0.39147483  0.01873584  1
  O2-  O556  1  0.55667452  0.42159340  0.34457818  1
  O2-  O557  1  0.56659942  0.41215631  0.68869712  1
  O2-  O558  1  0.56733422  0.67421031  0.03362629  1
  O2-  O559  1  0.59098496  0.63112758  0.35905626  1
  O2-  O560  1  0.58072176  0.68008171  0.68793572  1
  O2-  O561  1  0.56393381  0.90556164  0.03539732  1
  O2-  O562  1  0.50259546  0.90751779  0.39832327  1
  O2-  O563  1  0.53911384  0.83434339  0.70095994  1
  O2-  O564  1  0.80854517  0.14431346  -0.01843495  1
  O2-  O565  1  0.85640104  0.21958700  0.34446341  1
  O2-  O566  1  0.93136586  0.19833005  0.67863201  1
  O2-  O567  1  0.84793051  0.39991227  0.01108160  1
  O2-  O568  1  0.82872951  0.42855262  0.34443894  1
  O2-  O569  1  0.83855414  0.41896643  0.67144779  1
  O2-  O570  1  0.84095485  0.76732582  0.05871287  1
  O2-  O571  1  0.84828125  0.68640970  0.34068638  1
  O2-  O572  1  0.88890037  0.69499110  0.69548721  1
  O2-  O573  1  0.81108021  0.90049118  0.04775246  1
  O2-  O574  1  0.87156088  0.96078255  0.34576392  1
  O2-  O575  1  0.83242984  0.90961238  0.69386278  1
