# generated using pymatgen
data_H2O
_symmetry_space_group_name_H-M   'P 1'
_cell_length_a   17.98153889
_cell_length_b   17.98566247
_cell_length_c   22.00437823
_cell_angle_alpha   90.03996926
_cell_angle_beta   89.97310401
_cell_angle_gamma   120.01360596
_symmetry_Int_Tables_number   1
_chemical_formula_structural   H2O
_chemical_formula_sum   'H384 O192'
_cell_volume   6162.16551420
_cell_formula_units_Z   192
loop_
 _symmetry_equiv_pos_site_id
 _symmetry_equiv_pos_as_xyz
  1  'x, y, z'
loop_
 _atom_type_symbol
 _atom_type_oxidation_number
  H+  1.0
  O2-  -2.0
loop_
 _atom_site_type_symbol
 _atom_site_label
 _atom_site_symmetry_multiplicity
 _atom_site_fract_x
 _atom_site_fract_y
 _atom_site_fract_z
 _atom_site_occupancy
  H+  H0  1  0.37144642  0.36094414  0.65253878  1
  H+  H1  1  0.48035942  0.59479169  0.51388769  1
  H+  H2  1  0.17366362  0.82097417  0.24119482  1
  H+  H3  1  0.36121211  0.96865879  0.49658965  1
  H+  H4  1  0.13471780  0.25263899  0.50328841  1
  H+  H5  1  0.89936218  0.01609537  0.86464520  1
  H+  H6  1  0.78342914  0.62813759  1.00597732  1
  H+  H7  1  0.48049897  0.36577898  0.50154588  1
  H+  H8  1  0.63935769  0.26161599  1.02981750  1
  H+  H9  1  0.49213179  0.87994878  0.97444966  1
  H+  H10  1  0.61867095  0.88726562  0.34560453  1
  H+  H11  1  0.38369723  0.77155021  0.32855238  1
  H+  H12  1  0.73807752  0.11911393  0.50996412  1
  H+  H13  1  0.61917733  0.23000223  0.16243365  1
  H+  H14  1  0.07778122  0.88137388  0.33831010  1
  H+  H15  1  0.97785477  0.85913165  0.84202179  1
  H+  H16  1  0.22502771  0.11900633  0.84116189  1
  H+  H17  1  0.32594967  0.41143415  0.43515213  1
  H+  H18  1  0.35384541  0.47651092  0.67096337  1
  H+  H19  1  0.61780643  0.23344379  0.66922344  1
  H+  H20  1  0.64759059  0.37102865  0.80320061  1
  H+  H21  1  0.78554305  0.88500655  0.82792260  1
  H+  H22  1  0.86318138  0.62911371  0.83610283  1
  H+  H23  1  0.89472043  0.52078644  0.99913862  1
  H+  H24  1  0.65172921  0.51787348  0.15397179  1
  H+  H25  1  0.25486915  0.11621450  0.31460787  1
  H+  H26  1  0.11666075  0.22288671  0.67211354  1
  H+  H27  1  0.32176856  0.72035947  0.03325724  1
  H+  H28  1  0.87423156  0.23783745  0.49391952  1
  H+  H29  1  0.35702399  0.47105080  0.49477456  1
  H+  H30  1  0.84364424  0.17694415  0.43656097  1
  H+  H31  1  0.82455121  0.20152583  0.83454798  1
  H+  H32  1  0.09655715  0.57955369  0.90319492  1
  H+  H33  1  0.52286406  0.87783525  0.18523528  1
  H+  H34  1  0.47041538  0.10034605  0.17281541  1
  H+  H35  1  0.60851159  0.64142924  0.16701298  1
  H+  H36  1  0.01597259  0.64212871  0.34227989  1
  H+  H37  1  0.11725285  0.89951735  0.00633696  1
  H+  H38  1  0.14184594  0.27652396  0.99717777  1
  H+  H39  1  0.88600418  0.48767952  0.84376184  1
  H+  H40  1  0.35460030  0.33192804  0.19857213  1
  H+  H41  1  -0.05480247  0.89110457  0.33846516  1
  H+  H42  1  0.97527386  0.30692548  0.65605494  1
  H+  H43  1  0.35189127  0.20472728  0.27919940  1
  H+  H44  1  0.27925914  0.65049678  0.66228565  1
  H+  H45  1  0.35075655  0.21344390  0.16692428  1
  H+  H46  1  0.87678332  0.60969523  0.32454095  1
  H+  H47  1  0.12144844  0.89578566  0.49698785  1
  H+  H48  1  0.63481600  0.72359733  0.49560513  1
  H+  H49  1  0.02955905  0.12986529  0.67574545  1
  H+  H50  1  0.87555261  -0.01283097  0.49069191  1
  H+  H51  1  0.36413301  0.46394204  0.82926232  1
  H+  H52  1  0.84634713  0.91370041  0.74266265  1
  H+  H53  1  0.37378660  0.11407141  0.84813274  1
  H+  H54  1  0.36488705  0.79260293  0.82487446  1
  H+  H55  1  0.13639115  1.02541164  0.50245876  1
  H+  H56  1  0.64095463  0.10912338  0.66269279  1
  H+  H57  1  0.76828952  0.85802320  0.17781701  1
  H+  H58  1  0.63532803  0.51496913  0.32683309  1
  H+  H59  1  0.52350481  0.12935378  0.01421592  1
  H+  H60  1  0.13564470  0.48942743  0.32300683  1
  H+  H61  1  0.77386890  0.64751090  0.48003741  1
  H+  H62  1  0.63405293  0.75872019  0.34645606  1
  H+  H63  1  0.85923615  0.86760485  0.02029697  1
  H+  H64  1  0.26932666  0.37295567  0.34219942  1
  H+  H65  1  0.63386000  0.85286714  0.20676577  1
  H+  H66  1  0.85705082  0.10582881  0.67911068  1
  H+  H67  1  0.23280451  0.35819942  0.18260969  1
  H+  H68  1  0.22879126  0.87850219  0.98665727  1
  H+  H69  1  0.38523412  0.35892943  0.84118915  1
  H+  H70  1  0.23938236  0.84798800  0.17688363  1
  H+  H71  1  0.98845747  0.36410009  0.17304241  1
  H+  H72  1  0.89717598  0.61129169  1.00079555  1
  H+  H73  1  0.51806995  0.38403077  0.19036352  1
  H+  H74  1  0.35460912  0.62036511  0.16491152  1
  H+  H75  1  0.56574416  0.40781588  0.76407852  1
  H+  H76  1  0.87453376  0.88497696  0.82818087  1
  H+  H77  1  0.13766442  0.35797098  0.18699637  1
  H+  H78  1  0.61167488  0.37969228  0.33431497  1
  H+  H79  1  0.14133258  0.75098056  0.17744167  1
  H+  H80  1  0.66520749  0.81900224  0.28844560  1
  H+  H81  1  0.88000958  0.77948959  0.65426113  1
  H+  H82  1  0.87950975  0.34632685  0.85642085  1
  H+  H83  1  0.60827861  0.97019442  0.66323275  1
  H+  H84  1  0.90218169  0.12787433  0.07247354  1
  H+  H85  1  0.50620208  0.89478270  0.81353314  1
  H+  H86  1  0.09922268  0.97626868  0.34583199  1
  H+  H87  1  0.10633943  0.47097204  0.16931122  1
  H+  H88  1  0.38134227  0.59923750  0.33047990  1
  H+  H89  1  0.89531682  0.36913727  0.17290871  1
  H+  H90  1  0.12271795  0.33516452  0.84352855  1
  H+  H91  1  0.51907680  0.11721349  0.30056772  1
  H+  H92  1  0.36026198  0.37696279  0.35588997  1
  H+  H93  1  0.08898777  0.66042360  0.10746629  1
  H+  H94  1  0.12436264  0.38559409  0.66726919  1
  H+  H95  1  0.25789060  0.62012724  0.34080726  1
  H+  H96  1  0.58397465  0.14746055  0.24439773  1
  H+  H97  1  0.77688183  0.87767442  0.01736036  1
  H+  H98  1  0.37285616  0.49765872  0.17488332  1
  H+  H99  1  0.63685041  0.10748014  0.30968726  1
  H+  H100  1  0.51257053  0.62663055  0.16783118  1
  H+  H101  1  0.59228633  0.16408840  0.45217671  1
  H+  H102  1  0.48388833  0.87604942  0.50729128  1
  H+  H103  1  0.12919499  0.12139341  0.98922288  1
  H+  H104  1  0.99485163  0.36773634  0.50084821  1
  H+  H105  1  0.23816382  0.59779689  0.46776366  1
  H+  H106  1  0.88909658  0.76899728  0.84669438  1
  H+  H107  1  0.89107976  0.87103271  0.65653828  1
  H+  H108  1  0.50140820  0.38093388  0.66930625  1
  H+  H109  1  0.97018076  0.35288645  1.00759443  1
  H+  H110  1  0.63344519  0.51529289  0.83393926  1
  H+  H111  1  0.09948814  0.97387994  0.16514427  1
  H+  H112  1  0.05548172  0.50080003  0.53229664  1
  H+  H113  1  0.73818487  0.63283629  0.17851083  1
  H+  H114  1  0.38404834  0.26126193  0.35107743  1
  H+  H115  1  -0.05207376  0.31634273  0.85034254  1
  H+  H116  1  1.00555863  0.65125705  0.49555242  1
  H+  H117  1  0.05204180  0.35906292  0.76061931  1
  H+  H118  1  0.61826253  0.51159164  0.66476614  1
  H+  H119  1  0.11391574  0.46342766  0.02555650  1
  H+  H120  1  0.57977078  0.66455321  0.59166758  1
  H+  H121  1  0.62000708  0.13184325  0.50934325  1
  H+  H122  1  0.47616754  0.12264402  0.65999409  1
  H+  H123  1  0.64412398  1.01827991  0.33424981  1
  H+  H124  1  0.36068778  -0.03841512  0.16152456  1
  H+  H125  1  0.51364230  0.62036105  0.35180754  1
  H+  H126  1  0.00146277  0.26340655  0.78380932  1
  H+  H127  1  -0.02446568  0.62277256  0.84598610  1
  H+  H128  1  0.86726049  0.64092002  0.64879778  1
  H+  H129  1  0.10863531  0.64858463  0.68349013  1
  H+  H130  1  0.62750763  0.59953448  0.33122339  1
  H+  H131  1  0.25236874  0.65904343  0.81177442  1
  H+  H132  1  0.11985444  0.21324335  0.33429916  1
  H+  H133  1  0.08697657  0.64175525  0.50323092  1
  H+  H134  1  0.87468781  0.77504553  0.49787463  1
  H+  H135  1  -0.02596465  0.84595704  0.18283919  1
  H+  H136  1  0.87760951  0.52037304  0.32648080  1
  H+  H137  1  0.27233128  0.87924377  0.49763516  1
  H+  H138  1  0.37694715  0.63082769  -0.00038740  1
  H+  H139  1  0.87447877  0.62412312  0.48826587  1
  H+  H140  1  0.36435696  0.87318987  0.16190672  1
  H+  H141  1  0.82324532  0.40749078  0.39306310  1
  H+  H142  1  0.42217857  0.83424549  0.58649229  1
  H+  H143  1  0.82535227  0.54097891  0.65266972  1
  H+  H144  1  0.73705727  0.11938082  0.33246447  1
  H+  H145  1  0.35275958  -0.01063987  0.82783647  1
  H+  H146  1  0.64129364  0.26905367  0.51325917  1
  H+  H147  1  0.13892222  0.02118033  0.66928336  1
  H+  H148  1  0.58885580  0.37787099  0.66908345  1
  H+  H149  1  0.22473298  0.35925762  0.65822182  1
  H+  H150  1  0.52126206  0.37667169  0.82907844  1
  H+  H151  1  1.00020858  0.33435389  0.33655795  1
  H+  H152  1  0.14368044  0.11775843  0.67036852  1
  H+  H153  1  0.11129606  0.12011869  0.33350058  1
  H+  H154  1  0.88237779  0.48108630  0.16267807  1
  H+  H155  1  0.64122466  0.63847735  0.50853217  1
  H+  H156  1  0.88222182  0.87401359  0.50246176  1
  H+  H157  1  0.52487646  0.37774776  0.35614133  1
  H+  H158  1  0.87171049  0.71906235  1.00900125  1
  H+  H159  1  0.15189742  0.54319607  0.67898137  1
  H+  H160  1  0.36073382  0.65495897  0.87558417  1
  H+  H161  1  0.38517679  0.02647958  1.00040082  1
  H+  H162  1  0.36592558  0.14370105  0.67361428  1
  H+  H163  1  0.74542784  0.10918779  0.98680864  1
  H+  H164  1  0.45261073  0.34219519  0.20037217  1
  H+  H165  1  0.61490628  0.37800263  0.49527139  1
  H+  H166  1  0.38921908  0.36508887  0.49888519  1
  H+  H167  1  0.35693760  0.22884109  0.83226258  1
  H+  H168  1  0.23398464  0.55534173  0.45794887  1
  H+  H169  1  0.10788415  0.37309089  1.01960845  1
  H+  H170  1  0.10431088  0.66041480  0.82969948  1
  H+  H171  1  0.85291041  0.19063561  0.67210164  1
  H+  H172  1  0.14532219  0.87130488  0.65969067  1
  H+  H173  1  0.16422562  0.32127255  0.59846780  1
  H+  H174  1  0.67773969  0.08288108  0.56994431  1
  H+  H175  1  0.89091269  0.61230266  0.17190096  1
  H+  H176  1  0.89558332  0.11516968  0.50962839  1
  H+  H177  1  0.61750308  0.89059195  0.48563056  1
  H+  H178  1  0.87117850  0.38368130  1.01384935  1
  H+  H179  1  0.62362255  0.75967217  0.19848644  1
  H+  H180  1  0.65754792  0.77561681  0.84192368  1
  H+  H181  1  0.21894520  0.12101792  0.99094158  1
  H+  H182  1  0.88561478  0.59414403  0.55409654  1
  H+  H183  1  0.36285335  0.88614358  0.34253093  1
  H+  H184  1  0.64432732  0.77599010  0.64543389  1
  H+  H185  1  0.10587861  0.13911992  0.15852221  1
  H+  H186  1  0.21820609  0.11287129  0.16916977  1
  H+  H187  1  0.02628982  0.89343796  0.66671455  1
  H+  H188  1  0.11207888  0.89783680  0.82107873  1
  H+  H189  1  0.61903073  0.63007823  0.82138339  1
  H+  H190  1  0.35262159  0.12560814  0.15627120  1
  H+  H191  1  0.35355156  0.22682372  0.67365070  1
  H+  H192  1  0.39788603  0.67407713  0.85373575  1
  H+  H193  1  0.89016356  0.06306358  0.92083989  1
  H+  H194  1  0.13542553  0.78201352  0.50921380  1
  H+  H195  1  0.06309957  0.42504833  0.65421674  1
  H+  H196  1  0.72278098  0.09487725  0.66460141  1
  H+  H197  1  0.88753253  0.02951142  0.32921836  1
  H+  H198  1  0.36802831  0.89054579  0.00384967  1
  H+  H199  1  0.12918788  0.77188310  0.32720727  1
  H+  H200  1  0.22310805  0.11490123  0.49683959  1
  H+  H201  1  0.61213660  0.11447700  0.79114444  1
  H+  H202  1  0.65894384  0.50589872  0.51001372  1
  H+  H203  1  0.64476551  0.51063827  0.98570602  1
  H+  H204  1  0.75726508  0.41797405  0.73660683  1
  H+  H205  1  0.87202287  0.72294446  0.16725216  1
  H+  H206  1  0.07829371  0.40524647  0.11135636  1
  H+  H207  1  0.35281773  0.22740072  0.00735010  1
  H+  H208  1  0.24028564  0.60630043  1.02014015  1
  H+  H209  1  0.11796742  0.35714232  0.49066353  1
  H+  H210  1  0.89706958  0.01193520  0.66619569  1
  H+  H211  1  0.41419538  0.74426852  0.48027513  1
  H+  H212  1  0.72472529  0.60358344  0.83834193  1
  H+  H213  1  0.83907878  0.66427468  0.10443791  1
  H+  H214  1  0.02733758  0.63719161  0.16728856  1
  H+  H215  1  0.41379214  0.62295286  0.49590477  1
  H+  H216  1  0.47397096  0.10400814  0.50985073  1
  H+  H217  1  0.23010483  0.36939642  -0.00301564  1
  H+  H218  1  0.78415656  0.88676347  0.68208518  1
  H+  H219  1  0.37990863  1.02192952  0.32681473  1
  H+  H220  1  0.26998117  0.37982489  0.82722741  1
  H+  H221  1  0.38727663  0.37258590  -0.00153334  1
  H+  H222  1  0.62879037  0.24295522  0.76130005  1
  H+  H223  1  0.70387717  0.37236129  0.65691369  1
  H+  H224  1  0.36511832  0.64193115  0.66432271  1
  H+  H225  1  0.38323201  0.75877578  0.17632228  1
  H+  H226  1  0.02067917  0.15526214  0.00964955  1
  H+  H227  1  0.69923462  0.11094405  0.81762998  1
  H+  H228  1  0.85430057  0.48187098  0.48998452  1
  H+  H229  1  0.41311926  0.78512156  0.97976363  1
  H+  H230  1  0.13559808  0.60627012  0.17881273  1
  H+  H231  1  0.61407783  0.88309173  0.66458818  1
  H+  H232  1  0.51768990  0.66005916  0.01556756  1
  H+  H233  1  0.38629409  0.10492218  0.50060626  1
  H+  H234  1  0.38923244  0.76576240  0.65089127  1
  H+  H235  1  0.11347044  0.12841936  0.48892128  1
  H+  H236  1  0.11466228  0.61193850  1.02497198  1
  H+  H237  1  0.66445456  0.12398968  0.99647508  1
  H+  H238  1  0.07184968  0.67785481  0.40221662  1
  H+  H239  1  0.73052581  0.36287947  0.82101521  1
  H+  H240  1  0.63097058  -0.00130843  0.98389263  1
  H+  H241  1  0.85147044  0.28855946  0.33845337  1
  H+  H242  1  0.35724527  0.90294339  0.82483404  1
  H+  H243  1  0.37974031  0.51029491  0.33284629  1
  H+  H244  1  -0.02300926  0.11535673  0.33167401  1
  H+  H245  1  0.27537334  0.69496920  0.38523809  1
  H+  H246  1  0.22088186  0.85904210  0.32770052  1
  H+  H247  1  0.22484599  0.34485758  0.50696030  1
  H+  H248  1  0.64723669  0.15811262  0.16767174  1
  H+  H249  1  0.41166992  0.31474961  0.41468470  1
  H+  H250  1  0.66823470  0.82484221  0.42731680  1
  H+  H251  1  0.32952559  0.91764949  0.73308206  1
  H+  H252  1  0.74493177  0.64627147  0.68241497  1
  H+  H253  1  0.13939001  0.44883375  0.46639749  1
  H+  H254  1  0.38545213  0.11523765  0.31404140  1
  H+  H255  1  0.77139462  0.37930630  0.33085696  1
  H+  H256  1  0.11326569  0.73799685  0.67568043  1
  H+  H257  1  0.13060794  0.33672435  0.32977173  1
  H+  H258  1  0.36754412  0.22071042  0.48272556  1
  H+  H259  1  0.63314816  0.26854987  0.29491460  1
  H+  H260  1  0.65271549  0.87645738  -0.01797294  1
  H+  H261  1  0.78190500  0.38435471  0.02518357  1
  H+  H262  1  0.98016191  0.85862345  0.99976063  1
  H+  H263  1  0.48707679  0.86096473  0.65070701  1
  H+  H264  1  0.12551281  0.22843841  0.83169984  1
  H+  H265  1  0.92246947  0.58648379  0.90993305  1
  H+  H266  1  0.76475618  0.64428493  0.33274035  1
  H+  H267  1  0.12955918  0.79162787  0.83525404  1
  H+  H268  1  0.83633430  0.43104471  0.69676139  1
  H+  H269  1  0.86950072  0.40158730  0.49382309  1
  H+  H270  1  0.67032003  0.32964934  1.08253653  1
  H+  H271  1  0.19243604  0.01920901  0.28736015  1
  H+  H272  1  0.22359923  0.60263607  0.17552471  1
  H+  H273  1  0.22345839  0.87847712  0.83221917  1
  H+  H274  1  0.46599016  0.61029541  0.65005381  1
  H+  H275  1  0.49012892  0.59477458  0.84563693  1
  H+  H276  1  0.47640892  0.85820399  0.32719808  1
  H+  H277  1  0.97340312  0.14487224  0.14580890  1
  H+  H278  1  0.11489070  0.23186037  0.16182377  1
  H+  H279  1  0.38769892  0.86574490  0.50669025  1
  H+  H280  1  0.10569492  0.98176747  0.00933889  1
  H+  H281  1  0.66867878  0.39786607  0.15703629  1
  H+  H282  1  0.36685563  0.49902332  1.01053460  1
  H+  H283  1  0.78022164  0.72839635  0.72384044  1
  H+  H284  1  0.78494577  0.19206791  0.17175475  1
  H+  H285  1  0.03128408  0.62256852  0.01826162  1
  H+  H286  1  0.60268659  0.36845477  0.01666774  1
  H+  H287  1  0.87104526  0.14228684  0.34137079  1
  H+  H288  1  0.78539573  0.87654724  0.34185447  1
  H+  H289  1  0.56843300  0.91429955  0.75531489  1
  H+  H290  1  0.16904196  0.31940889  0.26949567  1
  H+  H291  1  0.36282252  0.88540154  0.67692016  1
  H+  H292  1  0.14856967  0.58156376  0.61463053  1
  H+  H293  1  0.33683953  0.16042310  0.42415301  1
  H+  H294  1  0.23212400  0.86563168  0.66110965  1
  H+  H295  1  0.24100776  0.11829657  0.67363508  1
  H+  H296  1  0.70790196  0.24089194  0.39862329  1
  H+  H297  1  0.32706387  0.65782434  0.10724435  1
  H+  H298  1  0.90625140  0.31604972  0.95057107  1
  H+  H299  1  0.40192704  0.32718488  0.59458990  1
  H+  H300  1  0.85544078  0.42104544  0.10168632  1
  H+  H301  1  0.41160036  0.84248050  0.88753802  1
  H+  H302  1  0.59122960  0.93160393  0.03859069  1
  H+  H303  1  0.07683182  0.91524041  0.10777029  1
  H+  H304  1  0.12760683  0.13099565  0.83208656  1
  H+  H305  1  0.40219450  0.57772097  0.59559670  1
  H+  H306  1  0.37960487  0.68485210  0.42232186  1
  H+  H307  1  0.57041243  0.63995629  0.41205628  1
  H+  H308  1  0.91887184  0.58310283  0.23249296  1
  H+  H309  1  0.82829127  0.68807349  0.41736930  1
  H+  H310  1  0.33078560  0.91170308  0.40251665  1
  H+  H311  1  0.17480044  0.66814969  0.91751903  1
  H+  H312  1  0.83349523  0.66131423  0.77669699  1
  H+  H313  1  0.16643391  0.32618728  0.90551486  1
  H+  H314  1  0.16607841  0.08964359  0.23096852  1
  H+  H315  1  0.38480953  0.11547805  1.00016493  1
  H+  H316  1  0.32203261  0.16499119  0.06518267  1
  H+  H317  1  0.66799543  0.56746026  0.60624884  1
  H+  H318  1  0.93528074  0.34051642  0.56085790  1
  H+  H319  1  0.40577436  0.06782458  0.22852046  1
  H+  H320  1  0.08139590  0.15789686  0.42934749  1
  H+  H321  1  0.08337003  0.17464788  0.06557201  1
  H+  H322  1  0.46912269  0.35952982  0.99663966  1
  H+  H323  1  0.92045835  0.82765519  0.94061445  1
  H+  H324  1  0.34182186  0.44246657  0.07051824  1
  H+  H325  1  0.85631248  0.92788994  0.42918476  1
  H+  H326  1  0.74739874  0.55630555  0.54751357  1
  H+  H327  1  0.72888172  0.36188550  0.50979146  1
  H+  H328  1  0.70551383  0.50917315  0.10183240  1
  H+  H329  1  0.07267027  0.68199298  0.76635582  1
  H+  H330  1  0.91106187  0.18634175  0.14793577  1
  H+  H331  1  0.40484504  0.56118832  0.23159060  1
  H+  H332  1  0.73791810  0.86734479  0.47746361  1
  H+  H333  1  0.67258597  0.34504930  0.24847427  1
  H+  H334  1  0.67461127  0.57900897  0.93337988  1
  H+  H335  1  0.16767957  0.85457389  0.92902251  1
  H+  H336  1  0.40942916  0.82141258  0.23448414  1
  H+  H337  1  0.59569397  0.41647542  0.43544638  1
  H+  H338  1  0.57765743  0.14200939  0.07464611  1
  H+  H339  1  0.16827443  0.55560714  0.26683649  1
  H+  H340  1  0.10351568  0.98180739  0.82421406  1
  H+  H341  1  0.30856755  0.69187491  0.75200248  1
  H+  H342  1  0.33304777  0.90871708  0.06556883  1
  H+  H343  1  0.15063712  0.56596870  0.51248388  1
  H+  H344  1  0.62332597  0.98212164  0.49629046  1
  H+  H345  1  0.66495154  0.23581277  0.39065748  1
  H+  H346  1  0.32777559  0.41554182  0.73044446  1
  H+  H347  1  0.40493129  0.08169476  0.90482958  1
  H+  H348  1  0.09764502  0.17061010  0.76674103  1
  H+  H349  1  0.84354503  0.74147587  0.33208446  1
  H+  H350  1  0.82434841  0.88509356  0.11699173  1
  H+  H351  1  0.41104772  0.59989246  0.94092250  1
  H+  H352  1  0.60759148  0.93624482  0.14846693  1
  H+  H353  1  0.06212369  0.37359857  0.39346295  1
  H+  H354  1  0.30522143  0.35358304  0.12596110  1
  H+  H355  1  0.80903057  0.14586795  0.77298288  1
  H+  H356  1  0.41279238  0.33295894  0.90376037  1
  H+  H357  1  0.07780269  0.91566303  0.44106809  1
  H+  H358  1  0.69197936  0.85367705  0.60015621  1
  H+  H359  1  0.41639911  0.09543020  0.60100169  1
  H+  H360  1  0.63942065  0.78359694  0.99664056  1
  H+  H361  1  0.60069552  0.01366763  0.80803935  1
  H+  H362  1  0.65028650  0.33053962  0.59662422  1
  H+  H363  1  0.90637571  0.83276973  0.56619916  1
  H+  H364  1  0.90473163  0.33202939  0.66340946  1
  H+  H365  1  0.18218792  0.55715858  0.96021718  1
  H+  H366  1  0.90275548  0.44223518  0.78910298  1
  H+  H367  1  0.58488214  0.66570655  0.76738697  1
  H+  H368  1  0.46711262  0.52823850  0.89763578  1
  H+  H369  1  0.67285160  0.59419947  0.23587922  1
  H+  H370  1  0.17455187  0.84033908  0.56864014  1
  H+  H371  1  0.68888726  0.83519881  0.90054751  1
  H+  H372  1  0.71850288  0.09163147  0.17032720  1
  H+  H373  1  0.32808591  0.16986496  0.77187916  1
  H+  H374  1  0.16189253  0.09162022  0.90215311  1
  H+  H375  1  0.74837319  0.37949627  0.16193454  1
  H+  H376  1  0.92420992  0.07245266  0.60611060  1
  H+  H377  1  0.07704704  0.92162851  0.73098073  1
  H+  H378  1  0.58469402  0.42600691  0.05927004  1
  H+  H379  1  0.57609678  0.68594658  0.07469416  1
  H+  H380  1  0.58673868  0.92262052  0.40048329  1
  H+  H381  1  0.88092078  0.83586572  0.18556894  1
  H+  H382  1  0.60470958  0.62936821  0.64766154  1
  H+  H383  1  0.98288450  0.11218985  0.50485271  1
  O2-  O384  1  0.08236533  0.17442208  0.14098745  1
  O2-  O385  1  0.08053830  0.15929625  0.47473410  1
  O2-  O386  1  0.09801266  0.16862879  0.81242257  1
  O2-  O387  1  0.07506863  0.40816463  0.15738266  1
  O2-  O388  1  0.09105638  0.39044339  0.47161798  1
  O2-  O389  1  0.03297771  0.32295940  0.79766127  1
  O2-  O390  1  0.08931268  0.66487395  0.15414559  1
  O2-  O391  1  0.06772619  0.67894095  0.48463386  1
  O2-  O392  1  0.06935178  0.68374435  0.81284030  1
  O2-  O393  1  0.07568448  0.91338169  0.15281092  1
  O2-  O394  1  0.08842184  0.92419372  0.48513812  1
  O2-  O395  1  0.07609985  0.92350790  0.80612127  1
  O2-  O396  1  0.32359304  0.15740570  0.14318705  1
  O2-  O397  1  0.33806083  0.15994362  0.46865781  1
  O2-  O398  1  0.32166398  0.16836602  0.81688253  1
  O2-  O399  1  0.31527551  0.38990248  0.16141976  1
  O2-  O400  1  0.32837827  0.40995069  0.48108858  1
  O2-  O401  1  0.32842249  0.40720530  0.80865874  1
  O2-  O402  1  0.32736458  0.65519545  0.15399565  1
  O2-  O403  1  0.42112288  0.70170808  0.45628719  1
  O2-  O404  1  0.28619895  0.70961815  0.78667382  1
  O2-  O405  1  0.33033968  0.90035990  0.14722295  1
  O2-  O406  1  0.33377056  0.90771936  0.48199288  1
  O2-  O407  1  0.32353542  0.92927057  0.80916684  1
  O2-  O408  1  0.59489429  0.16707396  0.16362302  1
  O2-  O409  1  0.58721612  0.16137132  0.49642007  1
  O2-  O410  1  0.58895647  0.18081595  0.75147134  1
  O2-  O411  1  0.65321236  0.47399884  0.12520923  1
  O2-  O412  1  0.59133359  0.41531535  0.48105771  1
  O2-  O413  1  0.57840592  0.40806603  0.80838579  1
  O2-  O414  1  0.57344644  0.66873352  0.15726970  1
  O2-  O415  1  0.60183980  0.66135167  0.50767567  1
  O2-  O416  1  0.58639365  0.66121680  0.81136625  1
  O2-  O417  1  0.58690041  0.91350590  0.18888397  1
  O2-  O418  1  0.58675992  0.92284999  0.47909252  1
  O2-  O419  1  0.56731550  0.92809775  0.79870817  1
  O2-  O420  1  0.87574368  0.25591842  0.14671778  1
  O2-  O421  1  0.84411406  0.17667622  0.48193154  1
  O2-  O422  1  0.78922573  0.14415333  0.81507300  1
  O2-  O423  1  0.85316894  0.41969751  0.14834571  1
  O2-  O424  1  0.82863898  0.41964940  0.47989389  1
  O2-  O425  1  0.86721520  0.42871995  0.82537385  1
  O2-  O426  1  0.83632469  0.66004326  0.14975210  1
  O2-  O427  1  0.83177080  0.68814989  0.46409688  1
  O2-  O428  1  0.83167047  0.65893557  0.82133701  1
  O2-  O429  1  0.82699052  0.88146833  0.16243478  1
  O2-  O430  1  0.84671779  0.92602272  0.47432191  1
  O2-  O431  1  0.84636509  0.91555888  0.80990373  1
  O2-  O432  1  0.15914902  0.08987295  0.18619481  1
  O2-  O433  1  0.16427175  0.08859693  0.51289001  1
  O2-  O434  1  0.16255204  0.08996168  0.85516715  1
  O2-  O435  1  0.16604796  0.32561509  0.19965184  1
  O2-  O436  1  0.16396525  0.31300094  0.52184696  1
  O2-  O437  1  0.16592334  0.32132467  0.85942926  1
  O2-  O438  1  0.16250683  0.57143772  0.19079664  1
  O2-  O439  1  0.10490750  0.55771072  0.54102358  1
  O2-  O440  1  0.15230984  0.62244538  0.88706465  1
  O2-  O441  1  0.17849506  0.81412888  0.19451632  1
  O2-  O442  1  0.17538449  0.84194993  0.52283438  1
  O2-  O443  1  0.16250482  0.85309364  0.84782769  1
  O2-  O444  1  0.40872357  0.06711435  0.18279518  1
  O2-  O445  1  0.41212929  0.07357724  0.52087692  1
  O2-  O446  1  0.40132340  0.08046237  0.85984779  1
  O2-  O447  1  0.38447651  0.29882727  0.21061632  1
  O2-  O448  1  0.41735962  0.33022361  0.50896579  1
  O2-  O449  1  0.41628182  0.33065871  0.85824723  1
  O2-  O450  1  0.40367258  0.56042754  0.18672550  1
  O2-  O451  1  0.41952122  0.57754838  0.51984714  1
  O2-  O452  1  0.44056111  0.55094791  0.87030004  1
  O2-  O453  1  0.41296439  0.82108009  0.18920718  1
  O2-  O454  1  0.42360628  0.83975225  0.52242108  1
  O2-  O455  1  0.40910734  0.84890600  0.84276233  1
  O2-  O456  1  0.72382455  0.14526074  0.18475856  1
  O2-  O457  1  0.67724383  0.08483195  0.52431465  1
  O2-  O458  1  0.63097715  0.08235250  0.81847496  1
  O2-  O459  1  0.68406691  0.35242175  0.16689796  1
  O2-  O460  1  0.66736171  0.33117683  0.52394670  1
  O2-  O461  1  0.68846724  0.35157329  0.78879358  1
  O2-  O462  1  0.67584679  0.60356352  0.19107424  1
  O2-  O463  1  0.70042028  0.56293495  0.53070464  1
  O2-  O464  1  0.66201973  0.57631440  0.84778894  1
  O2-  O465  1  0.65884730  0.81664277  0.21942627  1
  O2-  O466  1  0.67426030  0.82856537  0.47187280  1
  O2-  O467  1  0.69283089  0.83551373  0.85500859  1
  O2-  O468  1  0.91396689  0.13309389  0.13785287  1
  O2-  O469  1  0.92286071  0.08167134  0.52290645  1
  O2-  O470  1  0.93239251  0.06575278  0.89131532  1
  O2-  O471  1  0.92085334  0.33173290  0.18715300  1
  O2-  O472  1  0.93913461  0.35826810  0.51795821  1
  O2-  O473  1  0.89195911  0.30038962  0.86877759  1
  O2-  O474  1  0.92357386  0.58351907  0.18724952  1
  O2-  O475  1  0.89698499  0.59070708  0.51007457  1
  O2-  O476  1  0.91681140  0.58401541  0.86389624  1
  O2-  O477  1  0.91451521  0.80699964  0.19820399  1
  O2-  O478  1  0.90326700  0.83384071  0.51938154  1
  O2-  O479  1  0.91915674  0.82977319  0.86026784  1
  O2-  O480  1  0.18639246  0.06500103  0.30637186  1
  O2-  O481  1  0.17520589  0.08592210  0.65903519  1
  O2-  O482  1  0.15991443  0.09216809  0.97264714  1
  O2-  O483  1  0.16924555  0.31502231  0.31623955  1
  O2-  O484  1  0.16298325  0.32682100  0.64401595  1
  O2-  O485  1  0.17102761  0.33682240  0.98007278  1
  O2-  O486  1  0.17872973  0.54790468  0.31030553  1
  O2-  O487  1  0.17213201  0.59728728  0.65653038  1
  O2-  O488  1  0.17479080  0.56164398  1.00374378  1
  O2-  O489  1  0.16305067  0.83149023  0.30834565  1
  O2-  O490  1  0.17102432  0.83749862  0.64431578  1
  O2-  O491  1  0.16846381  0.85493261  0.97406267  1
  O2-  O492  1  0.41214066  0.07765792  0.30489842  1
  O2-  O493  1  0.41987283  0.11038473  0.64468789  1
  O2-  O494  1  0.41848371  0.08781560  0.98733874  1
  O2-  O495  1  0.41632923  0.32296066  0.37056788  1
  O2-  O496  1  0.40009576  0.32793989  0.63962550  1
  O2-  O497  1  0.40858650  0.33536256  0.98165004  1
  O2-  O498  1  0.41408355  0.57172319  0.31846318  1
  O2-  O499  1  0.40322796  0.58046417  0.64138460  1
  O2-  O500  1  0.40885009  0.60080082  0.98552810  1
  O2-  O501  1  0.41621489  0.83135523  0.31270874  1
  O2-  O502  1  0.42375676  0.83026661  0.63519991  1
  O2-  O503  1  0.42843085  0.84275170  0.96578277  1
  O2-  O504  1  0.67525489  0.08025599  0.31805426  1
  O2-  O505  1  0.66439164  0.07335995  0.64608126  1
  O2-  O506  1  0.68705534  0.09317907  0.97275400  1
  O2-  O507  1  0.66354725  0.33193480  0.29273192  1
  O2-  O508  1  0.64514412  0.33036622  0.64230893  1
  O2-  O509  1  0.66887574  0.32521238  1.03768713  1
  O2-  O510  1  0.66226101  0.57616734  0.31316692  1
  O2-  O511  1  0.65339095  0.57257195  0.64914379  1
  O2-  O512  1  0.68251042  0.57231001  0.97692024  1
  O2-  O513  1  0.66812707  0.82083577  0.33578660  1
  O2-  O514  1  0.67842416  0.84041284  0.64314838  1
  O2-  O515  1  0.67874885  0.84002233  0.97590689  1
  O2-  O516  1  0.91423631  0.09221748  0.32556955  1
  O2-  O517  1  0.92617988  0.07343741  0.65139069  1
  O2-  O518  1  0.83825762  0.08662116  0.99274145  1
  O2-  O519  1  0.88268194  0.25892402  0.32524273  1
  O2-  O520  1  0.92117134  0.29766993  0.63836564  1
  O2-  O521  1  0.90985998  0.32938685  0.99437177  1
  O2-  O522  1  0.90857190  0.58093022  0.31151832  1
  O2-  O523  1  0.83808725  0.58866480  0.62433929  1
  O2-  O524  1  0.92769580  0.58135414  0.98387396  1
  O2-  O525  1  0.88268704  0.85971441  0.32749767  1
  O2-  O526  1  0.91584510  0.83730952  0.63601123  1
  O2-  O527  1  0.91944662  0.82117590  0.98548704  1
  O2-  O528  1  0.08173311  0.17598476  0.01956615  1
  O2-  O529  1  0.08440417  0.15196111  0.34950460  1
  O2-  O530  1  0.09082710  0.16414702  0.69063975  1
  O2-  O531  1  0.07775313  0.40127857  0.03806035  1
  O2-  O532  1  0.06056386  0.37381011  0.34851147  1
  O2-  O533  1  0.09416660  0.41515058  0.68671024  1
  O2-  O534  1  0.08924576  0.64765469  0.03698401  1
  O2-  O535  1  0.07566132  0.67739673  0.35739403  1
  O2-  O536  1  0.07881067  0.67982393  0.69478318  1
  O2-  O537  1  0.08165393  0.92273728  0.02505897  1
  O2-  O538  1  0.05587174  0.91629488  0.35719270  1
  O2-  O539  1  0.08435000  0.92541625  0.68519006  1
  O2-  O540  1  0.32217268  0.16577190  0.01962570  1
  O2-  O541  1  0.34082128  0.17542799  0.31881241  1
  O2-  O542  1  0.32866685  0.16786140  0.69125553  1
  O2-  O543  1  0.34112522  0.43818635  0.02590072  1
  O2-  O544  1  0.32877231  0.40952792  0.35988082  1
  O2-  O545  1  0.32470267  0.41543018  0.68486050  1
  O2-  O546  1  0.32297977  0.66705751  0.03643645  1
  O2-  O547  1  0.30719027  0.67329979  0.36247056  1
  O2-  O548  1  0.34111167  0.68053132  0.67522986  1
  O2-  O549  1  0.33701159  0.91827660  0.02088422  1
  O2-  O550  1  0.33043348  0.91417843  0.35708083  1
  O2-  O551  1  0.32661284  0.90946455  0.68790157  1
  O2-  O552  1  0.58336248  0.15306953  0.03055308  1
  O2-  O553  1  0.58208803  0.14533421  0.28973709  1
  O2-  O554  1  0.59563600  0.17275263  0.68521618  1
  O2-  O555  1  0.57307830  0.40289959  0.01724307  1
  O2-  O556  1  0.58935806  0.41214967  0.35750922  1
  O2-  O557  1  0.56153432  0.41033709  0.68577390  1
  O2-  O558  1  0.57776676  0.69087805  0.02986784  1
  O2-  O559  1  0.57408122  0.64881632  0.36795052  1
  O2-  O560  1  0.57938221  0.66674098  0.63671134  1
  O2-  O561  1  0.59284764  0.93348986  -0.00557582  1
  O2-  O562  1  0.59052135  0.92188008  0.35502176  1
  O2-  O563  1  0.57646044  0.90744119  0.67496638  1
  O2-  O564  1  0.91014802  0.14016011  0.02400726  1
  O2-  O565  1  0.83641361  0.17343802  0.35575716  1
  O2-  O566  1  0.82283136  0.13362073  0.69145063  1
  O2-  O567  1  0.84523808  0.41970436  0.03029214  1
  O2-  O568  1  0.82996490  0.40738446  0.34847817  1
  O2-  O569  1  0.79152342  0.44634215  0.69849743  1
  O2-  O570  1  0.84245183  0.65809152  0.02448440  1
  O2-  O571  1  0.82544535  0.68282840  0.34688516  1
  O2-  O572  1  0.79908626  0.69433469  0.70084414  1
  O2-  O573  1  0.83010618  0.89495311  0.04081321  1
  O2-  O574  1  0.84781762  0.91207574  0.35301727  1
  O2-  O575  1  0.84498391  0.91355660  0.69459694  1
