# generated using pymatgen
data_H2O
_symmetry_space_group_name_H-M   'P 1'
_cell_length_a   17.99496368
_cell_length_b   17.98677405
_cell_length_c   21.99557155
_cell_angle_alpha   89.98812817
_cell_angle_beta   89.98063715
_cell_angle_gamma   120.02386351
_symmetry_Int_Tables_number   1
_chemical_formula_structural   H2O
_chemical_formula_sum   'H384 O192'
_cell_volume   6164.04198472
_cell_formula_units_Z   192
loop_
 _symmetry_equiv_pos_site_id
 _symmetry_equiv_pos_as_xyz
  1  'x, y, z'
loop_
 _atom_type_symbol
 _atom_type_oxidation_number
  H+  1.0
  O2-  -2.0
loop_
 _atom_site_type_symbol
 _atom_site_label
 _atom_site_symmetry_multiplicity
 _atom_site_fract_x
 _atom_site_fract_y
 _atom_site_fract_z
 _atom_site_occupancy
  H+  H0  1  0.31658835  0.39826080  0.73363378  1
  H+  H1  1  0.45126716  0.57171955  0.46132707  1
  H+  H2  1  0.13920812  0.87497425  0.85057027  1
  H+  H3  1  0.58943254  -0.04171776  1.02782632  1
  H+  H4  1  0.13769278  0.53440150  0.98283225  1
  H+  H5  1  0.36091679  0.62098593  0.49138936  1
  H+  H6  1  0.37267512  0.10247871  0.84828302  1
  H+  H7  1  0.88571970  0.85587702  0.84494469  1
  H+  H8  1  0.11849968  0.40293625  1.00417130  1
  H+  H9  1  0.36748533  0.84107199  0.00401232  1
  H+  H10  1  0.53696967  0.23774808  0.04227387  1
  H+  H11  1  0.63099983  0.28391292  0.32508927  1
  H+  H12  1  0.86315616  0.97686697  0.84403566  1
  H+  H13  1  0.16150044  0.31299305  0.23322824  1
  H+  H14  1  0.21289163  0.97117968  0.67111804  1
  H+  H15  1  0.15010045  0.12531914  0.50335506  1
  H+  H16  1  0.48315199  0.85306195  0.50325142  1
  H+  H17  1  0.11063548  0.36106832  0.84627597  1
  H+  H18  1  0.60624833  0.14032229  0.67906584  1
  H+  H19  1  0.02151754  0.63710991  0.00275570  1
  H+  H20  1  0.60540839  0.23192527  0.84752514  1
  H+  H21  1  0.88637935  0.27131784  0.32194495  1
  H+  H22  1  0.11284007  0.63827109  0.50763589  1
  H+  H23  1  0.39151896  0.03418782  0.63815833  1
  H+  H24  1  0.34828988  0.92298799  0.56980597  1
  H+  H25  1  0.85923443  0.87765442  -0.01974291  1
  H+  H26  1  0.85519440  0.13751979  0.33823177  1
  H+  H27  1  0.46353620  0.84000699  0.85058548  1
  H+  H28  1  0.17339369  0.59303282  0.89567220  1
  H+  H29  1  0.94988830  0.33270372  0.53224282  1
  H+  H30  1  0.60843093  0.63034570  0.00541774  1
  H+  H31  1  0.11399673  0.64875019  0.17776121  1
  H+  H32  1  0.63236772  0.84558377  0.33242547  1
  H+  H33  1  0.14191434  0.52464621  0.50165041  1
  H+  H34  1  0.10679633  0.23948607  0.68112534  1
  H+  H35  1  0.47968593  0.85821972  0.66086884  1
  H+  H36  1  0.64239650  0.11453086  1.02685922  1
  H+  H37  1  0.88795999  0.35982987  0.31828340  1
  H+  H38  1  0.76115166  0.38066890  0.85044812  1
  H+  H39  1  0.62977811  0.75363472  0.33265159  1
  H+  H40  1  0.60211011  0.24194046  -0.00548655  1
  H+  H41  1  0.10653756  0.21816802  0.49262179  1
  H+  H42  1  0.52935586  0.14232089  0.33633018  1
  H+  H43  1  0.85257525  0.62955750  0.00679408  1
  H+  H44  1  0.42407305  0.33176068  0.22805185  1
  H+  H45  1  0.66611217  0.59429229  0.89971409  1
  H+  H46  1  0.47906028  0.60963145  0.82477570  1
  H+  H47  1  0.16472209  0.84126783  0.94402066  1
  H+  H48  1  0.47565395  0.35902586  0.16419028  1
  H+  H49  1  0.13098648  0.99054446  0.49936663  1
  H+  H50  1  0.41828742  0.83338177  0.23091783  1
  H+  H51  1  0.38657769  0.61615365  1.00674831  1
  H+  H52  1  0.13806228  0.52082216  0.66475939  1
  H+  H53  1  0.51004890  0.14979616  0.83784942  1
  H+  H54  1  0.64173441  0.53583023  0.51145879  1
  H+  H55  1  0.97523412  0.61859223  0.52199279  1
  H+  H56  1  0.11233470  0.64205376  0.99701493  1
  H+  H57  1  0.64666800  0.86288800  0.17848601  1
  H+  H58  1  0.55044430  0.03292673  0.75768432  1
  H+  H59  1  0.82565826  0.76806839  0.63601244  1
  H+  H60  1  0.36796641  0.40028741  0.18497619  1
  H+  H61  1  0.36091306  0.87827212  0.49488959  1
  H+  H62  1  0.91584531  0.25168042  0.82678479  1
  H+  H63  1  0.79197598  0.14127358  0.01156720  1
  H+  H64  1  0.27965481  0.58032187  0.04989792  1
  H+  H65  1  0.01696161  0.87708807  0.16918685  1
  H+  H66  1  0.08955285  0.92462422  0.44374807  1
  H+  H67  1  0.23464393  0.38391620  0.65965099  1
  H+  H68  1  0.34424827  0.44951369  0.23224402  1
  H+  H69  1  0.36759217  0.37684300  0.82274953  1
  H+  H70  1  0.71640819  0.37052629  0.50595442  1
  H+  H71  1  0.91710269  0.10937206  0.56803533  1
  H+  H72  1  0.61124645  0.22573269  0.48976134  1
  H+  H73  1  0.06905959  0.67234547  0.41240365  1
  H+  H74  1  0.10743221  0.88603049  0.35276007  1
  H+  H75  1  0.11435845  0.11712609  0.65624649  1
  H+  H76  1  0.60495166  0.97625930  0.67565417  1
  H+  H77  1  0.62073549  0.41911641  0.33712204  1
  H+  H78  1  0.25581377  0.36487714  0.48652248  1
  H+  H79  1  0.73866659  0.63892753  0.66096184  1
  H+  H80  1  0.36266611  0.39099561  -0.04232500  1
  H+  H81  1  0.62813897  0.11022439  0.50540794  1
  H+  H82  1  0.47371853  0.60970192  0.33283272  1
  H+  H83  1  0.09203097  0.19803215  0.00988992  1
  H+  H84  1  0.85238859  0.96587987  -0.01913606  1
  H+  H85  1  0.51710740  0.63551734  1.00711730  1
  H+  H86  1  0.37414334  0.47054422  0.81846369  1
  H+  H87  1  0.39537086  0.86091358  0.63911040  1
  H+  H88  1  0.94942844  0.59799784  0.66703433  1
  H+  H89  1  -0.02333334  0.85997386  0.84002661  1
  H+  H90  1  0.97241555  0.35698776  0.99150947  1
  H+  H91  1  0.23971918  0.86705658  0.50822335  1
  H+  H92  1  0.86632090  0.13672837  0.15477382  1
  H+  H93  1  0.97418228  0.87062024  0.67409848  1
  H+  H94  1  0.85169917  0.38375880  0.83978101  1
  H+  H95  1  0.72894647  0.36797223  0.16973984  1
  H+  H96  1  0.22157848  0.11107246  0.17189940  1
  H+  H97  1  0.89835771  0.50143700  0.48794874  1
  H+  H98  1  0.61565358  0.97070796  0.33389017  1
  H+  H99  1  0.88792180  0.25922970  -0.00274378  1
  H+  H100  1  0.11551697  0.72905788  0.50651158  1
  H+  H101  1  0.33272332  0.42192012  -0.10022499  1
  H+  H102  1  0.61063361  0.97745460  0.49252785  1
  H+  H103  1  0.71673365  0.86261643  0.84258565  1
  H+  H104  1  0.60138541  0.39008388  0.49417550  1
  H+  H105  1  0.86741675  0.73232694  0.50015449  1
  H+  H106  1  0.91382901  0.32773712  0.22616476  1
  H+  H107  1  0.29057240  0.14582344  0.33772482  1
  H+  H108  1  0.71458310  0.10699876  0.50851319  1
  H+  H109  1  0.57409038  0.95338088  0.81743768  1
  H+  H110  1  0.74792762  0.60264340  0.33705366  1
  H+  H111  1  0.67856399  0.08569805  1.08015530  1
  H+  H112  1  0.64131210  0.27846469  0.17521813  1
  H+  H113  1  0.87728700  0.02747183  0.32200479  1
  H+  H114  1  0.15651053  0.07496460  0.90792247  1
  H+  H115  1  0.60732533  0.46933456  0.14051142  1
  H+  H116  1  0.38430829  0.11660260  0.17626054  1
  H+  H117  1  0.46014202  0.34740324  0.50011173  1
  H+  H118  1  0.09888723  0.70163153  0.66639358  1
  H+  H119  1  0.85069779  0.88801239  0.66836012  1
  H+  H120  1  0.13270843  0.77229985  0.99944042  1
  H+  H121  1  0.03364679  0.39302259  0.46372668  1
  H+  H122  1  0.39660325  0.02096935  0.50195589  1
  H+  H123  1  0.35753942  0.89394039  0.16670996  1
  H+  H124  1  0.35129073  0.12961466  0.00939143  1
  H+  H125  1  0.76551006  0.11297314  0.83191757  1
  H+  H126  1  0.22728013  0.87314643  0.85738945  1
  H+  H127  1  0.37858467  0.27179169  0.98833746  1
  H+  H128  1  0.71778142  0.60753820  0.99621080  1
  H+  H129  1  0.18216425  0.33130639  1.02310191  1
  H+  H130  1  0.61203912  0.89068608  0.66938674  1
  H+  H131  1  0.38041268  0.15385520  0.34333597  1
  H+  H132  1  0.36477369  0.73131211  0.68152010  1
  H+  H133  1  0.96749375  0.12424169  0.66681156  1
  H+  H134  1  1.01942339  0.87739326  1.01122077  1
  H+  H135  1  0.01776277  0.48723450  0.11261476  1
  H+  H136  1  0.47825174  0.87476012  0.17451547  1
  H+  H137  1  0.40227123  0.75198966  0.32180721  1
  H+  H138  1  0.89828752  0.02397873  0.18586856  1
  H+  H139  1  0.43043396  0.61963261  0.27316040  1
  H+  H140  1  0.85848725  0.37184217  -0.00084593  1
  H+  H141  1  0.23222937  0.60328479  0.32951547  1
  H+  H142  1  0.13074305  0.86812587  0.18168317  1
  H+  H143  1  0.13320820  0.61386028  0.83546679  1
  H+  H144  1  0.26125598  0.63266040  0.82641463  1
  H+  H145  1  0.11466293  0.48792501  0.82859211  1
  H+  H146  1  0.76077782  0.15224816  0.83097677  1
  H+  H147  1  0.63527642  0.27329850  0.65954927  1
  H+  H148  1  0.01045894  0.38664512  0.67821092  1
  H+  H149  1  0.46180951  0.76092695  0.26666019  1
  H+  H150  1  0.35403885  -0.01968668  0.16469850  1
  H+  H151  1  0.01323988  0.62023586  0.83159246  1
  H+  H152  1  0.39470395  0.27566809  0.32299979  1
  H+  H153  1  0.63154812  0.66681901  0.66205471  1
  H+  H154  1  0.60946510  0.72613718  0.81648970  1
  H+  H155  1  0.37523940  0.25172477  0.83789997  1
  H+  H156  1  0.59524846  0.60137962  0.35362246  1
  H+  H157  1  0.36561571  0.63194256  0.34554620  1
  H+  H158  1  0.13164309  0.54620524  0.16936665  1
  H+  H159  1  0.77044831  0.63682302  0.83316394  1
  H+  H160  1  0.26521579  0.88013154  0.01235019  1
  H+  H161  1  0.47586781  0.37347265  0.32225616  1
  H+  H162  1  0.88159237  0.76512371  0.99418678  1
  H+  H163  1  0.22194457  0.35968382  0.17871376  1
  H+  H164  1  0.85557787  0.63377137  0.15092292  1
  H+  H165  1  0.37039826  0.49003462  0.48637668  1
  H+  H166  1  0.40430423  0.67267659  0.18318481  1
  H+  H167  1  0.36150224  0.22690995  0.16136427  1
  H+  H168  1  0.21891210  0.86562723  0.18078296  1
  H+  H169  1  0.73668608  0.62359673  0.50543732  1
  H+  H170  1  0.89811864  0.87128076  0.49922614  1
  H+  H171  1  0.35453482  0.74762123  0.15501883  1
  H+  H172  1  1.01468420  0.87672310  0.35247811  1
  H+  H173  1  0.62238166  0.73962241  -0.00875628  1
  H+  H174  1  0.36718498  0.97291214  0.84839856  1
  H+  H175  1  0.17259342  0.58008322  0.60516317  1
  H+  H176  1  0.38055603  0.15650353  0.67599378  1
  H+  H177  1  0.26340470  0.13041294  0.00978944  1
  H+  H178  1  0.58136610  0.09707667  0.81249025  1
  H+  H179  1  0.09370510  1.02143421  0.65413490  1
  H+  H180  1  0.39118116  0.03000693  0.33716972  1
  H+  H181  1  0.10729232  0.22148525  0.83176257  1
  H+  H182  1  0.89504077  0.52767555  0.15482681  1
  H+  H183  1  0.61775463  0.97237509  0.16457358  1
  H+  H184  1  0.35695244  0.72068386  0.83401007  1
  H+  H185  1  0.61211719  0.38354345  0.14722605  1
  H+  H186  1  0.13404582  0.36096079  0.49604893  1
  H+  H187  1  0.23916324  0.38391602  0.96779223  1
  H+  H188  1  0.50237706  0.86783840  1.02256907  1
  H+  H189  1  0.72086468  0.84245611  0.97604906  1
  H+  H190  1  0.00832784  0.63594893  0.17108590  1
  H+  H191  1  0.59011107  0.39869293  0.78233431  1
  H+  H192  1  0.76593273  0.87558598  0.32482240  1
  H+  H193  1  1.00138756  0.25158388  0.82793682  1
  H+  H194  1  0.13119571  0.02221208  0.17254500  1
  H+  H195  1  0.64193630  0.62363353  0.83703673  1
  H+  H196  1  0.63506184  0.11219561  0.32039567  1
  H+  H197  1  0.16867240  0.84124375  0.65966699  1
  H+  H198  1  0.32829826  0.67092479  0.75717900  1
  H+  H199  1  0.90193365  0.57311946  0.22119259  1
  H+  H200  1  0.86235613  0.64112120  0.50112090  1
  H+  H201  1  0.87964945  0.60801872  0.84425908  1
  H+  H202  1  0.62523669  0.60083396  0.16174813  1
  H+  H203  1  0.10983802  0.87873763  0.01464482  1
  H+  H204  1  0.88100444  0.51761808  -0.00531833  1
  H+  H205  1  0.13357814  0.11257918  0.84758381  1
  H+  H206  1  0.85035077  0.57954785  0.67024548  1
  H+  H207  1  0.09110049  0.61229808  0.67306447  1
  H+  H208  1  0.49514830  0.67488390  0.18347057  1
  H+  H209  1  0.35956049  0.87967184  0.85045235  1
  H+  H210  1  0.42298847  0.31255175  0.66225286  1
  H+  H211  1  0.47579361  0.12183762  0.65618778  1
  H+  H212  1  0.00075768  0.40605013  0.14966042  1
  H+  H213  1  0.82357521  0.90491914  0.89244403  1
  H+  H214  1  0.60603778  0.36448697  0.84647551  1
  H+  H215  1  0.84169055  0.22084248  0.67647532  1
  H+  H216  1  0.56572849  0.41830340  0.68247585  1
  H+  H217  1  0.14910222  0.01854893  0.32844399  1
  H+  H218  1  0.25441141  0.11729438  0.83223826  1
  H+  H219  1  0.47772292  0.59097940  0.64722885  1
  H+  H220  1  0.39502132  0.53926578  -0.02585868  1
  H+  H221  1  0.89937265  0.37795636  0.50592428  1
  H+  H222  1  0.46144705  0.10776322  1.00271628  1
  H+  H223  1  0.37693809  0.01203080  1.00270398  1
  H+  H224  1  0.83562017  0.22141739  0.49169332  1
  H+  H225  1  0.01474097  0.13477593  0.34600541  1
  H+  H226  1  0.88657855  0.26934466  0.16504066  1
  H+  H227  1  0.65288477  0.78881353  0.50584014  1
  H+  H228  1  0.72752420  0.35776422  0.66428402  1
  H+  H229  1  0.21585644  0.97786574  0.63716530  1
  H+  H230  1  0.31834297  0.14950738  0.77289908  1
  H+  H231  1  0.95628541  0.77500277  0.21382120  1
  H+  H232  1  0.11287716  0.13725204  0.16188721  1
  H+  H233  1  0.30875816  0.19674099  0.51441806  1
  H+  H234  1  0.37057762  0.71556968  0.49776150  1
  H+  H235  1  0.87648996  0.87207287  0.19474592  1
  H+  H236  1  0.62952663  0.51739967  -0.01052471  1
  H+  H237  1  0.54615765  0.65430245  0.51162623  1
  H+  H238  1  0.57770669  0.42956077  0.43738481  1
  H+  H239  1  0.78972266  0.87764139  0.19065284  1
  H+  H240  1  -0.02661216  0.37982226  0.84640455  1
  H+  H241  1  0.51897468  0.37809973  0.99154608  1
  H+  H242  1  0.62361514  0.85747425  0.83750961  1
  H+  H243  1  0.10645942  0.73947413  0.18071484  1
  H+  H244  1  0.35914194  0.44929546  0.67175843  1
  H+  H245  1  0.87413450  0.51649125  0.84863014  1
  H+  H246  1  0.27419744  0.63871424  0.68142919  1
  H+  H247  1  0.22996380  0.61873596  0.99093972  1
  H+  H248  1  0.86115528  0.72412776  0.15984322  1
  H+  H249  1  0.64955103  0.87601893  0.50173288  1
  H+  H250  1  0.73765835  0.11920750  0.16869426  1
  H+  H251  1  0.22525993  0.63298686  0.17149369  1
  H+  H252  1  0.87387152  0.36189851  0.67859192  1
  H+  H253  1  0.61789143  0.14009079  0.16034509  1
  H+  H254  1  0.84226348  0.91320643  0.27824837  1
  H+  H255  1  0.13009961  0.00901551  1.00062923  1
  H+  H256  1  0.90787279  0.57932147  0.93724055  1
  H+  H257  1  0.64766416  0.80893874  0.92366806  1
  H+  H258  1  0.34264559  0.36540686  0.32533663  1
  H+  H259  1  0.10398169  0.97848566  0.83005790  1
  H+  H260  1  0.71126402  0.11185269  0.66258455  1
  H+  H261  1  0.36460502  0.75040428  0.00648032  1
  H+  H262  1  0.91988806  0.12746211  0.84227255  1
  H+  H263  1  0.88284322  0.11350243  0.99881722  1
  H+  H264  1  0.10063704  0.73095499  0.35532723  1
  H+  H265  1  0.86554311  0.50605387  0.30282115  1
  H+  H266  1  0.58523506  0.65580504  0.40814065  1
  H+  H267  1  0.78615815  0.89248913  0.48385875  1
  H+  H268  1  0.76456260  0.38154207  0.33487520  1
  H+  H269  1  0.63748078  0.36450934  -0.03778871  1
  H+  H270  1  0.41151545  0.31808728  0.92331683  1
  H+  H271  1  0.29155027  0.87887888  0.62747396  1
  H+  H272  1  0.83649740  0.69412511  0.33417993  1
  H+  H273  1  0.45269577  0.35451691  0.59902660  1
  H+  H274  1  0.87788225  0.84363193  0.32968360  1
  H+  H275  1  0.22878039  0.87660633  0.34230410  1
  H+  H276  1  0.63022391  0.64727156  0.50139648  1
  H+  H277  1  0.71480021  0.60347105  0.15823833  1
  H+  H278  1  0.11160591  0.21107741  0.34314535  1
  H+  H279  1  0.02825976  0.12752203  0.83075965  1
  H+  H280  1  0.60218506  0.73408591  0.66506869  1
  H+  H281  1  0.12809682  0.47094301  0.32828345  1
  H+  H282  1  0.72212938  0.87257464  0.65933375  1
  H+  H283  1  0.85369119  0.58982929  0.30400357  1
  H+  H284  1  0.66365875  0.33729051  0.56722575  1
  H+  H285  1  0.85832160  0.38082497  0.15220258  1
  H+  H286  1  0.63705314  0.39352464  0.68338621  1
  H+  H287  1  0.84927896  0.46653980  0.68816145  1
  H+  H288  1  0.06795691  0.88709704  0.66816545  1
  H+  H289  1  0.07483909  0.15628717  0.43428895  1
  H+  H290  1  0.47253834  0.11454711  0.17709465  1
  H+  H291  1  0.17138296  0.84626688  0.28145970  1
  H+  H292  1  0.07575421  0.42308022  0.77153348  1
  H+  H293  1  0.91455598  0.09362888  0.26721888  1
  H+  H294  1  0.23051376  0.61069099  0.50926342  1
  H+  H295  1  0.38687444  0.60136760  0.82958569  1
  H+  H296  1  0.91189516  0.33306035  0.90401994  1
  H+  H297  1  0.28877308  0.91609926  0.75227431  1
  H+  H298  1  0.32953739  0.16560750  0.10288660  1
  H+  H299  1  0.34189620  0.35893580  0.48465340  1
  H+  H300  1  0.33436867  0.66440329  0.40392427  1
  H+  H301  1  0.14883232  0.87082073  0.50951994  1
  H+  H302  1  0.58485106  0.66879159  0.75591997  1
  H+  H303  1  0.32491713  0.91110409  0.07167496  1
  H+  H304  1  0.30442265  0.38545237  0.38321183  1
  H+  H305  1  0.66510017  0.06520467  0.92119887  1
  H+  H306  1  0.58806310  0.91917888  0.43172984  1
  H+  H307  1  0.90096289  0.57240502  0.57275190  1
  H+  H308  1  0.42441418  0.09637155  0.55019203  1
  H+  H309  1  0.42685208  0.81822072  0.56387493  1
  H+  H310  1  0.29055744  0.92335535  0.71843847  1
  H+  H311  1  0.62240964  0.73105228  0.15996791  1
  H+  H312  1  0.28083458  0.34544273  0.08204360  1
  H+  H313  1  0.07672011  0.43427956  0.05648480  1
  H+  H314  1  0.10310478  0.39179669  0.67522091  1
  H+  H315  1  0.83779362  0.42063635  0.38676733  1
  H+  H316  1  0.21077316  0.44295324  0.62081392  1
  H+  H317  1  0.15680811  0.34609133  0.32184484  1
  H+  H318  1  0.52433314  0.13456337  0.48519382  1
  H+  H319  1  0.97465560  0.12993184  0.50780824  1
  H+  H320  1  0.71334104  0.52999165  0.70934324  1
  H+  H321  1  0.84507524  0.16899114  0.09021547  1
  H+  H322  1  0.57581467  0.90280622  0.11073026  1
  H+  H323  1  0.72300313  0.11194373  0.32249293  1
  H+  H324  1  0.89856200  0.83648172  0.59173190  1
  H+  H325  1  0.40771525  0.08200098  0.91007931  1
  H+  H326  1  0.82474127  0.66462297  0.06487258  1
  H+  H327  1  0.78868848  0.61349283  0.74515744  1
  H+  H328  1  0.81583291  0.40876760  0.75001071  1
  H+  H329  1  0.07574086  0.15502681  0.07696844  1
  H+  H330  1  0.86317472  0.71944447  0.82268366  1
  H+  H331  1  0.28394787  0.38882545  0.08182274  1
  H+  H332  1  0.42299669  0.54661737  0.58853278  1
  H+  H333  1  0.57972150  0.67270959  0.10142330  1
  H+  H334  1  0.40500334  0.80798745  0.91238180  1
  H+  H335  1  0.92285298  0.08288743  0.90553447  1
  H+  H336  1  0.70625022  0.64361366  0.59406764  1
  H+  H337  1  0.59185501  0.17407277  0.39346169  1
  H+  H338  1  0.41556725  0.08058656  0.27295144  1
  H+  H339  1  0.07617285  0.91060992  0.10784943  1
  H+  H340  1  0.77274440  0.37681695  -0.01025395  1
  H+  H341  1  0.35970697  0.89523970  0.36349266  1
  H+  H342  1  0.10185608  0.41902227  0.41210627  1
  H+  H343  1  0.06531114  0.64651764  0.76919200  1
  H+  H344  1  0.85579523  0.14499593  0.49393269  1
  H+  H345  1  0.53477507  0.87423933  0.33206219  1
  H+  H346  1  0.82952472  0.91647143  0.73194559  1
  H+  H347  1  0.32468796  0.67583819  0.09971691  1
  H+  H348  1  0.88273999  0.03226313  0.66268452  1
  H+  H349  1  0.12622015  0.31974687  0.90610022  1
  H+  H350  1  0.89482443  0.33581680  0.61429925  1
  H+  H351  1  0.96199269  0.09367921  1.00203189  1
  H+  H352  1  0.82239524  0.16687433  0.39683953  1
  H+  H353  1  0.17262125  0.09811498  0.56521995  1
  H+  H354  1  0.98146473  0.11595402  0.17426630  1
  H+  H355  1  0.17378773  0.58216864  0.27040682  1
  H+  H356  1  0.66300800  0.34487609  0.26688357  1
  H+  H357  1  0.17828142  0.07223612  0.26693234  1
  H+  H358  1  0.64805633  0.08038595  0.60471448  1
  H+  H359  1  0.82717308  0.40678895  0.09113830  1
  H+  H360  1  0.57765625  0.17893484  0.73589938  1
  H+  H361  1  0.84325610  0.13378695  0.67203083  1
  H+  H362  1  0.11604390  0.23003524  0.16064477  1
  H+  H363  1  0.66868259  0.10874761  0.92120901  1
  H+  H364  1  0.08117869  0.17665198  0.73829096  1
  H+  H365  1  0.12546347  0.09544332  1.00333666  1
  H+  H366  1  0.42923460  0.22750076  0.72418037  1
  H+  H367  1  0.06722807  0.91983603  0.76967278  1
  H+  H368  1  0.67216769  0.84876158  0.59578936  1
  H+  H369  1  0.58400330  0.17563438  0.10588618  1
  H+  H370  1  0.84098348  0.91136944  0.42355801  1
  H+  H371  1  0.91371267  0.81433506  0.27462863  1
  H+  H372  1  0.58107304  0.40398682  0.04984354  1
  H+  H373  1  0.33273105  0.92578968  0.42331023  1
  H+  H374  1  0.66531584  0.82179857  0.23638695  1
  H+  H375  1  0.03757839  0.38149348  0.32920492  1
  H+  H376  1  0.91920423  0.82143717  0.93369367  1
  H+  H377  1  0.95575513  0.48928734  0.44004019  1
  H+  H378  1  0.56144263  0.88982185  0.76670707  1
  H+  H379  1  0.16973009  0.81421057  0.58988736  1
  H+  H380  1  0.98875997  0.87544861  0.51214550  1
  H+  H381  1  0.67307483  0.08750211  0.22662244  1
  H+  H382  1  0.47110641  0.33705234  0.83782219  1
  H+  H383  1  0.16292633  0.33991040  0.55999143  1
  O2-  O384  1  0.08247738  0.16704950  0.14520987  1
  O2-  O385  1  0.07719664  0.15675705  0.48101181  1
  O2-  O386  1  0.08817880  0.16329655  0.81418881  1
  O2-  O387  1  0.04742197  0.45781829  0.12729973  1
  O2-  O388  1  0.09564780  0.42138011  0.45944621  1
  O2-  O389  1  0.07793368  0.42578359  0.81687675  1
  O2-  O390  1  0.07783656  0.67659773  0.16650085  1
  O2-  O391  1  0.07804465  0.66591906  0.49926034  1
  O2-  O392  1  0.07168701  0.64479676  0.81362251  1
  O2-  O393  1  0.07896320  0.91496694  0.15316138  1
  O2-  O394  1  0.09694285  0.92810634  0.48934870  1
  O2-  O395  1  0.07471840  0.91807902  0.81413052  1
  O2-  O396  1  0.33079535  0.16465124  0.14823339  1
  O2-  O397  1  0.37279525  0.22706995  0.50957651  1
  O2-  O398  1  0.31557482  0.14418467  0.81789810  1
  O2-  O399  1  0.33960848  0.43513764  0.18911565  1
  O2-  O400  1  0.31485281  0.39120252  0.46822696  1
  O2-  O401  1  0.33459276  0.40672479  0.81470910  1
  O2-  O402  1  0.32431925  0.68492553  0.14589190  1
  O2-  O403  1  0.33219131  0.65484113  0.48312740  1
  O2-  O404  1  0.32493661  0.66299111  0.81130208  1
  O2-  O405  1  0.32245408  0.91893046  0.15106811  1
  O2-  O406  1  0.33357324  0.91393470  0.49420616  1
  O2-  O407  1  0.33086166  0.91147832  0.83742022  1
  O2-  O408  1  0.58502162  0.17001418  0.15043248  1
  O2-  O409  1  0.58775315  0.16775717  0.47214946  1
  O2-  O410  1  0.56935721  0.18188256  0.81997899  1
  O2-  O411  1  0.57907313  0.40701851  0.12648887  1
  O2-  O412  1  0.57001877  0.42023270  0.48212102  1
  O2-  O413  1  0.56874378  0.38188699  0.82445168  1
  O2-  O414  1  0.57983329  0.67152749  0.14643952  1
  O2-  O415  1  0.59882991  0.67910628  0.48761292  1
  O2-  O416  1  0.58340376  0.66614175  0.80139641  1
  O2-  O417  1  0.58461565  0.90970699  0.15674533  1
  O2-  O418  1  0.58721830  0.91712092  0.47710175  1
  O2-  O419  1  0.56005230  0.89210038  0.81211448  1
  O2-  O420  1  0.83709311  0.16694826  0.13822887  1
  O2-  O421  1  0.81438948  0.16297126  0.47587521  1
  O2-  O422  1  0.94251758  0.21813782  0.81205552  1
  O2-  O423  1  0.83222017  0.41475023  0.13627114  1
  O2-  O424  1  0.90118395  0.45612214  0.46145166  1
  O2-  O425  1  0.81726193  0.41139853  0.82717178  1
  O2-  O426  1  0.82574645  0.66540441  0.13905402  1
  O2-  O427  1  0.83155454  0.67116623  0.48823306  1
  O2-  O428  1  0.82894186  0.65706251  0.81315306  1
  O2-  O429  1  0.85172154  0.90959943  0.20211283  1
  O2-  O430  1  0.84491252  0.91311764  0.46781898  1
  O2-  O431  1  0.82679569  0.91218819  0.84688601  1
  O2-  O432  1  0.16086036  0.08358883  0.18604768  1
  O2-  O433  1  0.18943644  0.10656990  0.52133410  1
  O2-  O434  1  0.15761413  0.07606351  0.86227240  1
  O2-  O435  1  0.16001717  0.32075377  0.18733320  1
  O2-  O436  1  0.15889355  0.32819352  0.51559211  1
  O2-  O437  1  0.11328094  0.31027617  0.86250398  1
  O2-  O438  1  0.16522483  0.60288668  0.18948846  1
  O2-  O439  1  0.16947621  0.57978091  0.52423771  1
  O2-  O440  1  0.17150026  0.58955603  0.84958427  1
  O2-  O441  1  0.15962220  0.83637078  0.19844972  1
  O2-  O442  1  0.17495527  0.83550392  0.52222752  1
  O2-  O443  1  0.16735022  0.84858297  0.87307908  1
  O2-  O444  1  0.41237811  0.08391630  0.19178788  1
  O2-  O445  1  0.42976242  0.08500120  0.50711028  1
  O2-  O446  1  0.41220967  0.08321729  0.86477209  1
  O2-  O447  1  0.41720349  0.32951526  0.18248376  1
  O2-  O448  1  0.40181089  0.31815558  0.52005958  1
  O2-  O449  1  0.40865844  0.31300029  0.85079738  1
  O2-  O450  1  0.45351323  0.68204727  0.20930011  1
  O2-  O451  1  0.41024755  0.55407381  0.49481379  1
  O2-  O452  1  0.41909848  0.57237450  0.83953131  1
  O2-  O453  1  0.41687211  0.84953845  0.18763297  1
  O2-  O454  1  0.42310745  0.81726106  0.51865099  1
  O2-  O455  1  0.40354467  0.80902101  0.86674925  1
  O2-  O456  1  0.67501775  0.08920430  0.18082725  1
  O2-  O457  1  0.65393944  0.07711316  0.52396227  1
  O2-  O458  1  0.57985494  0.04403347  0.79654009  1
  O2-  O459  1  0.66941999  0.34021943  0.18664160  1
  O2-  O460  1  0.65805628  0.33795701  0.52158731  1
  O2-  O461  1  0.66474003  0.32632314  0.88390684  1
  O2-  O462  1  0.65278546  0.56552671  0.16698790  1
  O2-  O463  1  0.67487728  0.59749418  0.52219418  1
  O2-  O464  1  0.67672260  0.60059059  0.85536120  1
  O2-  O465  1  0.67703944  0.83183950  0.19185287  1
  O2-  O466  1  0.68332028  0.85014205  0.51873575  1
  O2-  O467  1  0.65399374  0.82628224  0.85156830  1
  O2-  O468  1  0.92056476  0.08656637  0.18951637  1
  O2-  O469  1  0.91984787  0.12301197  0.52423540  1
  O2-  O470  1  0.92782591  0.07981622  0.86006827  1
  O2-  O471  1  0.91150856  0.32991455  0.18060710  1
  O2-  O472  1  0.89400138  0.32897900  0.53145494  1
  O2-  O473  1  0.91233226  0.34175154  0.85868936  1
  O2-  O474  1  0.92049541  0.58568173  0.17361640  1
  O2-  O475  1  0.91146120  0.58146686  0.52801390  1
  O2-  O476  1  0.90929773  0.57800337  0.86157552  1
  O2-  O477  1  0.92959343  0.80705493  0.19856887  1
  O2-  O478  1  0.92607107  0.84295367  0.52205798  1
  O2-  O479  1  0.91564589  0.82358255  0.85481279  1
  O2-  O480  1  0.19891985  0.06423290  0.30666363  1
  O2-  O481  1  0.13466413  0.07937164  0.63951799  1
  O2-  O482  1  0.15886169  0.07019607  0.98526502  1
  O2-  O483  1  0.17205763  0.30406239  0.30601047  1
  O2-  O484  1  0.18340414  0.38356505  0.63495573  1
  O2-  O485  1  0.17692968  0.35257787  0.98351259  1
  O2-  O486  1  0.17292081  0.56710713  0.31355172  1
  O2-  O487  1  0.17300669  0.58169491  0.65056916  1
  O2-  O488  1  0.17197854  0.59511687  0.96893815  1
  O2-  O489  1  0.16907622  0.84551830  0.32648016  1
  O2-  O490  1  0.17523723  0.80022424  0.63478665  1
  O2-  O491  1  0.16501680  0.83616694  0.99034335  1
  O2-  O492  1  0.42531868  0.08726394  0.31764313  1
  O2-  O493  1  0.41751742  0.09762235  0.63794528  1
  O2-  O494  1  0.40206161  0.07301545  0.98763041  1
  O2-  O495  1  0.41985201  0.33533465  0.30325689  1
  O2-  O496  1  0.46738848  0.36504796  0.64246130  1
  O2-  O497  1  0.41211539  0.32919013  0.96882120  1
  O2-  O498  1  0.41736958  0.59323420  0.31441838  1
  O2-  O499  1  0.41983965  0.54731641  0.63293471  1
  O2-  O500  1  0.42760569  0.59619639  0.99344756  1
  O2-  O501  1  0.44778237  0.79643808  0.29387482  1
  O2-  O502  1  0.42009372  0.82202428  0.64362985  1
  O2-  O503  1  0.39711914  0.80941308  0.99013452  1
  O2-  O504  1  0.66334664  0.07996420  0.30499971  1
  O2-  O505  1  0.64777581  0.08112244  0.65015072  1
  O2-  O506  1  0.66412193  0.07613482  1.03696086  1
  O2-  O507  1  0.66106086  0.34564372  0.31226104  1
  O2-  O508  1  0.67048365  0.33314536  0.64330013  1
  O2-  O509  1  0.66632414  0.33049174  0.95176651  1
  O2-  O510  1  0.63040755  0.53303490  0.33415386  1
  O2-  O511  1  0.72404303  0.67490795  0.63356866  1
  O2-  O512  1  0.65709080  0.58019347  0.98096820  1
  O2-  O513  1  0.65866713  0.81273368  0.31512650  1
  O2-  O514  1  0.66359547  0.84428885  0.64111012  1
  O2-  O515  1  0.65629384  0.80712652  0.96931421  1
  O2-  O516  1  0.90692207  0.08983925  0.31252678  1
  O2-  O517  1  0.90889935  0.09276471  0.64900924  1
  O2-  O518  1  0.90600896  0.07379232  0.98162913  1
  O2-  O519  1  0.91957834  0.33054598  0.30443422  1
  O2-  O520  1  0.90521571  0.33515714  0.65834909  1
  O2-  O521  1  0.91128687  0.32166729  0.97940737  1
  O2-  O522  1  0.88219470  0.56082061  0.28186831  1
  O2-  O523  1  0.88993513  0.56197858  0.65114584  1
  O2-  O524  1  0.90779794  0.57909178  0.98309553  1
  O2-  O525  1  0.90786293  0.81146347  0.32042838  1
  O2-  O526  1  0.87925077  0.82564965  0.63601391  1
  O2-  O527  1  0.91589633  0.82590521  0.97891344  1
  O2-  O528  1  0.06918207  0.14286677  0.03037071  1
  O2-  O529  1  0.07209705  0.15478870  0.36359267  1
  O2-  O530  1  0.07407422  0.17938245  0.69312677  1
  O2-  O531  1  0.08165736  0.42864745  0.01183035  1
  O2-  O532  1  0.09736831  0.40880293  0.34415217  1
  O2-  O533  1  0.07155937  0.41898909  0.69299130  1
  O2-  O534  1  0.08236106  0.67005685  0.01569418  1
  O2-  O535  1  0.06168221  0.67133623  0.36818615  1
  O2-  O536  1  0.06064178  0.64357925  0.68400429  1
  O2-  O537  1  0.07842720  0.90952980  0.02869802  1
  O2-  O538  1  0.07415016  0.91311714  0.36820016  1
  O2-  O539  1  0.03404501  0.90671855  0.69014772  1
  O2-  O540  1  0.32502369  0.16436653  0.02278449  1
  O2-  O541  1  0.34996373  0.18533135  0.35299486  1
  O2-  O542  1  0.37408852  0.19771135  0.70328408  1
  O2-  O543  1  0.33416903  0.42429702  -0.05501487  1
  O2-  O544  1  0.30887086  0.39283444  0.33853014  1
  O2-  O545  1  0.31189184  0.39416768  0.68843835  1
  O2-  O546  1  0.31160645  0.63781926  0.03241061  1
  O2-  O547  1  0.33527017  0.66468446  0.35865560  1
  O2-  O548  1  0.33186793  0.67271374  0.70142917  1
  O2-  O549  1  0.32734983  0.90867675  0.02634101  1
  O2-  O550  1  0.33354979  0.92880535  0.37607809  1
  O2-  O551  1  0.35134843  0.92116749  0.61601470  1
  O2-  O552  1  0.56228398  0.20405461  0.02761237  1
  O2-  O553  1  0.59178199  0.17575546  0.34788391  1
  O2-  O554  1  0.57740864  0.17398814  0.69086825  1
  O2-  O555  1  0.58073701  0.40470281  0.00394100  1
  O2-  O556  1  0.58765487  0.44439897  0.35599444  1
  O2-  O557  1  0.61938366  0.43141325  0.70456663  1
  O2-  O558  1  0.58346138  0.66758876  0.01819250  1
  O2-  O559  1  0.57862562  0.64613361  0.36360977  1
  O2-  O560  1  0.58275234  0.67375079  0.67722374  1
  O2-  O561  1  0.56143417  0.89733335  0.03956024  1
  O2-  O562  1  0.59112472  0.91247705  0.35252776  1
  O2-  O563  1  0.57737690  0.91445411  0.68849553  1
  O2-  O564  1  0.85269268  0.17127999  0.02311157  1
  O2-  O565  1  0.82411127  0.16847046  0.35134691  1
  O2-  O566  1  0.80692931  0.15848718  0.68450047  1
  O2-  O567  1  0.82774465  0.40335620  0.01223749  1
  O2-  O568  1  0.82763868  0.40707769  0.34314344  1
  O2-  O569  1  0.81972123  0.40638149  0.70444715  1
  O2-  O570  1  0.82262805  0.66169963  0.01885533  1
  O2-  O571  1  0.81104437  0.63171837  0.34069733  1
  O2-  O572  1  0.76820643  0.58582297  0.70412045  1
  O2-  O573  1  0.82200231  0.90298026  -0.03012239  1
  O2-  O574  1  0.82998626  0.91253350  0.32308601  1
  O2-  O575  1  0.82728616  0.92318857  0.68809945  1
