# generated using pymatgen
data_H2O
_symmetry_space_group_name_H-M   'P 1'
_cell_length_a   17.97928399
_cell_length_b   17.98395752
_cell_length_c   21.98893628
_cell_angle_alpha   90.00045521
_cell_angle_beta   89.98595532
_cell_angle_gamma   119.98071997
_symmetry_Int_Tables_number   1
_chemical_formula_structural   H2O
_chemical_formula_sum   'H384 O192'
_cell_volume   6158.52682224
_cell_formula_units_Z   192
loop_
 _symmetry_equiv_pos_site_id
 _symmetry_equiv_pos_as_xyz
  1  'x, y, z'
loop_
 _atom_type_symbol
 _atom_type_oxidation_number
  H+  1.0
  O2-  -2.0
loop_
 _atom_site_type_symbol
 _atom_site_label
 _atom_site_symmetry_multiplicity
 _atom_site_fract_x
 _atom_site_fract_y
 _atom_site_fract_z
 _atom_site_occupancy
  H+  H0  1  0.85907228  0.21795466  0.33868764  1
  H+  H1  1  0.39505076  0.60966639  0.50954665  1
  H+  H2  1  -0.00908856  0.12735394  0.84345491  1
  H+  H3  1  0.27066023  0.89216551  0.15951178  1
  H+  H4  1  0.40781178  0.32405738  0.56550421  1
  H+  H5  1  0.53350511  0.18958465  0.04018816  1
  H+  H6  1  0.26310751  0.13033239  0.66600545  1
  H+  H7  1  -0.02612353  0.61783249  0.65888366  1
  H+  H8  1  0.80514524  0.37803541  0.41330179  1
  H+  H9  1  0.58923660  0.62722670  0.43235856  1
  H+  H10  1  0.27765894  0.12626769  -0.00290672  1
  H+  H11  1  0.92976613  0.82579898  0.24621002  1
  H+  H12  1  0.36249147  0.73316867  0.82479147  1
  H+  H13  1  0.85232768  0.63102646  0.15621042  1
  H+  H14  1  0.02135905  0.14282184  0.67530157  1
  H+  H15  1  0.14533815  0.87194717  0.17086030  1
  H+  H16  1  0.20090894  0.34898887  0.89896980  1
  H+  H17  1  0.71248337  0.58932133  0.43904667  1
  H+  H18  1  0.70789165  0.59311469  0.68737314  1
  H+  H19  1  0.13379996  0.52042848  0.84061948  1
  H+  H20  1  0.85960015  0.73041281  1.00481659  1
  H+  H21  1  0.10766378  0.87762314  0.82451451  1
  H+  H22  1  0.11041351  0.73263798  0.50018348  1
  H+  H23  1  0.39580486  0.36983608  0.83418414  1
  H+  H24  1  0.83336166  0.16343860  0.40046296  1
  H+  H25  1  0.63896148  0.36236123  0.99514575  1
  H+  H26  1  0.39634469  0.54446791  0.93523848  1
  H+  H27  1  0.85097163  0.92815350  0.73157000  1
  H+  H28  1  0.01549228  0.12505334  0.49219600  1
  H+  H29  1  1.02350535  0.89233092  0.50088722  1
  H+  H30  1  0.12551169  0.48963067  0.47544999  1
  H+  H31  1  0.78110775  0.39330677  0.00397740  1
  H+  H32  1  0.61107556  0.97697391  0.83049855  1
  H+  H33  1  0.87188254  0.12638800  0.16817164  1
  H+  H34  1  0.89280290  0.53292332  0.18278213  1
  H+  H35  1  0.52000504  0.39529938  1.01295793  1
  H+  H36  1  0.35923769  0.46921775  0.34214574  1
  H+  H37  1  0.44474514  0.44846505  0.11281527  1
  H+  H38  1  0.86430544  0.23101516  0.49480357  1
  H+  H39  1  0.63869762  0.77729056  0.66972762  1
  H+  H40  1  0.78197159  0.89998381  0.00589214  1
  H+  H41  1  0.57836439  0.91961989  0.07008777  1
  H+  H42  1  0.76084972  0.40133376  0.49698431  1
  H+  H43  1  0.27152387  0.88616876  0.33830350  1
  H+  H44  1  0.15708979  0.63023815  0.46941214  1
  H+  H45  1  0.51882012  0.63906089  0.67679863  1
  H+  H46  1  1.01579488  0.37618023  0.33691216  1
  H+  H47  1  0.47569875  0.59479877  0.50373342  1
  H+  H48  1  0.60766461  0.26203911  0.63142760  1
  H+  H49  1  0.51647259  0.87918806  0.33857562  1
  H+  H50  1  0.15778465  0.63976382  0.68984299  1
  H+  H51  1  0.73373378  0.10521807  0.17622207  1
  H+  H52  1  0.52432908  0.88604524  0.16522928  1
  H+  H53  1  0.86879762  0.48531531  0.68239755  1
  H+  H54  1  0.37149181  0.26254855  0.65398137  1
  H+  H55  1  0.77983994  0.89558914  0.16066732  1
  H+  H56  1  0.63521879  0.52332678  0.18337846  1
  H+  H57  1  0.74136714  0.28873171  0.38297912  1
  H+  H58  1  0.13381928  0.39011043  1.01194594  1
  H+  H59  1  0.12059375  0.60273820  0.31972932  1
  H+  H60  1  0.58982699  0.42475219  0.10053230  1
  H+  H61  1  0.40106404  0.77927441  0.66623494  1
  H+  H62  1  0.13336977  0.10759593  0.33229318  1
  H+  H63  1  0.78394900  0.39784885  0.19344726  1
  H+  H64  1  0.40790233  0.28976406  0.83622950  1
  H+  H65  1  1.03047025  0.88041677  0.16630219  1
  H+  H66  1  0.60589165  0.34775624  0.64502137  1
  H+  H67  1  0.38465952  0.53462693  0.17694555  1
  H+  H68  1  0.13393228  0.01875787  0.33536087  1
  H+  H69  1  0.24978521  0.62062054  0.32686904  1
  H+  H70  1  0.10501340  0.84716471  0.62076690  1
  H+  H71  1  0.38222347  0.27851564  -0.00526466  1
  H+  H72  1  0.61131931  0.47996183  0.00462041  1
  H+  H73  1  0.64110940  0.86677407  0.17450163  1
  H+  H74  1  0.24319977  0.62658597  0.48278095  1
  H+  H75  1  0.12066608  0.14131588  0.82655927  1
  H+  H76  1  0.80905623  0.66683871  0.64470283  1
  H+  H77  1  0.13228483  0.97532584  0.66506662  1
  H+  H78  1  0.87189910  0.39940063  0.18340819  1
  H+  H79  1  0.88446316  0.86573023  0.51004044  1
  H+  H80  1  0.88217336  0.36742323  0.51093855  1
  H+  H81  1  0.59797527  0.17058603  0.09689811  1
  H+  H82  1  0.85913342  0.13823001  0.67827858  1
  H+  H83  1  0.64926853  0.73169850  0.51412525  1
  H+  H84  1  0.20750815  0.36135344  0.16837196  1
  H+  H85  1  0.46946914  0.86718073  0.84163595  1
  H+  H86  1  0.13299347  0.61065850  0.16600976  1
  H+  H87  1  0.87028644  0.21632458  0.16318734  1
  H+  H88  1  0.38828482  0.61347751  0.65950834  1
  H+  H89  1  0.02463271  0.38443637  0.83796743  1
  H+  H90  1  0.88576232  0.27421432  0.66543333  1
  H+  H91  1  0.13501069  0.61187048  0.84092330  1
  H+  H92  1  0.26947251  0.63503610  0.16105699  1
  H+  H93  1  0.13529643  0.77518791  0.32520886  1
  H+  H94  1  0.66378975  0.92741120  0.50949648  1
  H+  H95  1  0.89122268  0.32794341  0.11457706  1
  H+  H96  1  0.64302557  0.13354665  0.50881137  1
  H+  H97  1  0.77471538  0.14290466  0.49568682  1
  H+  H98  1  0.88394375  0.78398095  0.33258002  1
  H+  H99  1  0.77379313  0.89453670  0.33738564  1
  H+  H100  1  0.33383145  0.41583795  0.75752418  1
  H+  H101  1  0.40113312  0.34750777  0.18093886  1
  H+  H102  1  0.89214358  0.12186724  0.50584019  1
  H+  H103  1  0.34333444  0.92202387  0.39237068  1
  H+  H104  1  0.96549012  0.76871933  0.22159042  1
  H+  H105  1  0.71681577  0.01479724  0.89139016  1
  H+  H106  1  0.27727755  0.12862495  0.15814569  1
  H+  H107  1  0.61209076  0.63925335  0.16935783  1
  H+  H108  1  0.15145318  0.51636879  0.99070800  1
  H+  H109  1  0.46983819  0.86903366  0.51401064  1
  H+  H110  1  0.78224564  0.89305928  0.67629753  1
  H+  H111  1  0.88748934  0.87511075  0.33049553  1
  H+  H112  1  0.88638214  -0.01161671  0.82485716  1
  H+  H113  1  0.12615680  0.74611181  0.65397665  1
  H+  H114  1  0.62068455  0.86466189  0.84493604  1
  H+  H115  1  0.10502104  0.38072663  0.16126758  1
  H+  H116  1  0.91666690  0.08842021  0.60542820  1
  H+  H117  1  0.11223862  0.22025136  0.16495784  1
  H+  H118  1  0.37734244  0.10771954  0.50965877  1
  H+  H119  1  0.83961850  0.92614049  0.10146307  1
  H+  H120  1  0.39399345  0.10374570  0.98319128  1
  H+  H121  1  0.47557180  0.35565131  0.33724935  1
  H+  H122  1  0.72224883  0.37489144  0.32786449  1
  H+  H123  1  0.62420960  0.89587236  0.67309607  1
  H+  H124  1  0.44749816  0.46496931  0.14480244  1
  H+  H125  1  0.78127415  0.38837902  0.83440464  1
  H+  H126  1  0.88321282  0.61729601  0.98838395  1
  H+  H127  1  0.17777346  0.59541687  0.74326484  1
  H+  H128  1  0.20278224  0.06056493  0.85127879  1
  H+  H129  1  0.37506425  0.60075974  0.33583419  1
  H+  H130  1  -0.02797328  0.85097921  0.83737706  1
  H+  H131  1  0.72419043  0.10206098  0.32780343  1
  H+  H132  1  0.13831359  0.77545265  0.84590898  1
  H+  H133  1  0.12852782  0.36638411  0.66059291  1
  H+  H134  1  0.33143857  0.42329835  0.10689256  1
  H+  H135  1  0.71845764  0.61460406  -0.00703825  1
  H+  H136  1  0.35920080  0.46947639  0.49752008  1
  H+  H137  1  0.22423956  0.35712151  0.32957067  1
  H+  H138  1  0.88536257  0.62698165  0.66041935  1
  H+  H139  1  0.02734932  0.64186739  0.82315908  1
  H+  H140  1  0.38541873  0.10818743  0.32131396  1
  H+  H141  1  0.12819500  0.27599333  0.65641601  1
  H+  H142  1  0.73896649  0.81735622  0.51303231  1
  H+  H143  1  0.38697310  0.86169041  0.17700972  1
  H+  H144  1  0.35367874  0.37724960  0.49770062  1
  H+  H145  1  0.36964984  0.76072507  0.32855058  1
  H+  H146  1  0.47447653  0.86755078  0.99768511  1
  H+  H147  1  0.10599737  0.87838801  0.50887354  1
  H+  H148  1  0.66809416  0.07669230  0.26675569  1
  H+  H149  1  0.68046024  0.93455893  0.54168186  1
  H+  H150  1  0.12982602  0.11519228  0.65764044  1
  H+  H151  1  0.60482006  0.97024146  0.33728216  1
  H+  H152  1  0.08361789  0.67160916  0.39794859  1
  H+  H153  1  -0.01724848  0.10761266  0.17605899  1
  H+  H154  1  0.46990188  0.34865216  0.50822821  1
  H+  H155  1  0.27044028  0.12961120  0.34080093  1
  H+  H156  1  0.35864296  0.72535762  0.16245287  1
  H+  H157  1  0.50663198  0.12082264  0.66814661  1
  H+  H158  1  0.89214431  0.36806285  0.84911756  1
  H+  H159  1  0.13260088  0.52038305  0.16625350  1
  H+  H160  1  0.63426428  0.78521004  0.84760987  1
  H+  H161  1  0.37256008  0.35365080  0.65511379  1
  H+  H162  1  0.89013133  0.01814152  0.17442083  1
  H+  H163  1  0.88665196  0.03041841  0.50406443  1
  H+  H164  1  0.35803596  0.87434624  0.67863913  1
  H+  H165  1  0.36327484  -0.00042559  0.66106894  1
  H+  H166  1  0.60804083  0.98477800  0.01413991  1
  H+  H167  1  0.67080478  0.09347171  0.60024485  1
  H+  H168  1  0.52703693  0.64511685  0.17008207  1
  H+  H169  1  0.88045192  0.76815583  0.83738504  1
  H+  H170  1  0.52668913  0.14267540  0.49834619  1
  H+  H171  1  0.54350945  0.13800030  0.15887813  1
  H+  H172  1  0.90121456  0.12546221  0.84326742  1
  H+  H173  1  0.01970321  0.64775664  0.00157814  1
  H+  H174  1  0.47850664  0.11657561  0.83030472  1
  H+  H175  1  0.64413874  0.77991322  0.17631802  1
  H+  H176  1  0.37419368  0.14383904  0.81921703  1
  H+  H177  1  0.64947714  0.11451012  0.17107325  1
  H+  H178  1  0.12859843  0.23418054  0.82938041  1
  H+  H179  1  0.64624822  0.36732913  0.16755170  1
  H+  H180  1  0.14062017  0.02128033  0.17681839  1
  H+  H181  1  0.63257176  0.11564863  0.65840960  1
  H+  H182  1  0.59848038  0.47185796  0.35803801  1
  H+  H183  1  0.61891835  0.23388853  0.82732105  1
  H+  H184  1  0.78524040  0.13474048  0.83783320  1
  H+  H185  1  0.90661723  0.75479056  0.48787712  1
  H+  H186  1  0.38467830  0.62133341  0.17770383  1
  H+  H187  1  0.37668447  0.85323238  0.32647644  1
  H+  H188  1  0.77103348  0.14052419  0.67737355  1
  H+  H189  1  0.36703627  0.09128923  0.65874047  1
  H+  H190  1  0.40818221  0.50212681  0.84018146  1
  H+  H191  1  0.38736548  0.10520482  0.16733052  1
  H+  H192  1  0.34065629  0.15746133  0.05341894  1
  H+  H193  1  0.92286855  0.08418753  0.26565028  1
  H+  H194  1  0.13341159  1.02020059  -0.00187525  1
  H+  H195  1  0.59861282  0.59714343  0.49904426  1
  H+  H196  1  0.27808749  0.38820490  0.81954319  1
  H+  H197  1  0.89002239  0.11392081  0.32521578  1
  H+  H198  1  0.62503192  0.49371227  0.53002263  1
  H+  H199  1  0.64846701  0.87939658  -0.00039702  1
  H+  H200  1  -0.08357041  0.83395683  -0.06558769  1
  H+  H201  1  0.86834981  0.14130700  0.01165691  1
  H+  H202  1  0.89812226  0.27682336  1.00349430  1
  H+  H203  1  0.64293502  0.86861439  0.33095965  1
  H+  H204  1  0.11178941  0.22370636  0.34341559  1
  H+  H205  1  0.74558117  0.57936738  0.45129093  1
  H+  H206  1  0.86674607  0.98373960  0.33764530  1
  H+  H207  1  0.32838912  0.40800420  0.40050552  1
  H+  H208  1  0.42365422  0.55351688  0.00295583  1
  H+  H209  1  0.36076955  0.21799589  0.34153992  1
  H+  H210  1  0.59163165  0.45474808  0.68678017  1
  H+  H211  1  0.53578550  0.38499148  0.83389813  1
  H+  H212  1  0.50291054  0.36820913  0.67564853  1
  H+  H213  1  0.58988604  0.40427362  0.44514806  1
  H+  H214  1  0.62310486  -0.01455256  0.67110215  1
  H+  H215  1  0.48523408  0.52267656  0.88330302  1
  H+  H216  1  0.10913044  0.88769282  0.00969044  1
  H+  H217  1  0.90033604  0.78096587  0.65804946  1
  H+  H218  1  0.38642523  0.02003600  0.31993643  1
  H+  H219  1  0.26677553  0.38830621  0.66579521  1
  H+  H220  1  0.36471953  0.88547376  0.01213739  1
  H+  H221  1  0.13598851  0.23549503  0.01884978  1
  H+  H222  1  0.65203294  0.63841310  0.84108698  1
  H+  H223  1  0.88052527  0.53486444  0.31288471  1
  H+  H224  1  0.87154605  0.39839982  0.68231467  1
  H+  H225  1  0.09338247  -0.04234207  0.81973823  1
  H+  H226  1  0.17910111  0.58007254  0.92939663  1
  H+  H227  1  0.88730141  0.02603028  0.66341342  1
  H+  H228  1  0.37087282  0.89632746  0.49175640  1
  H+  H229  1  0.64006440  0.35478327  0.84164986  1
  H+  H230  1  0.02574471  0.64353509  0.15812095  1
  H+  H231  1  0.98963966  0.12708079  0.99935216  1
  H+  H232  1  0.89428992  0.52882863  0.83843194  1
  H+  H233  1  0.24326289  0.39388414  0.07480558  1
  H+  H234  1  0.23055190  0.37395925  0.51027210  1
  H+  H235  1  0.35912326  0.47513225  0.66624455  1
  H+  H236  1  0.24779423  0.62301360  0.99687444  1
  H+  H237  1  0.29969638  0.16849839  0.82111414  1
  H+  H238  1  0.35161601  0.21779219  0.49319829  1
  H+  H239  1  0.21643223  0.10804172  0.50066328  1
  H+  H240  1  0.61394065  0.97561191  0.16395222  1
  H+  H241  1  0.38852814  0.99342488  0.48741561  1
  H+  H242  1  0.61546436  0.39598180  0.34502953  1
  H+  H243  1  0.85774278  0.47872019  0.49747094  1
  H+  H244  1  0.26893757  0.88850014  0.83169505  1
  H+  H245  1  0.72147901  0.61236390  0.18366786  1
  H+  H246  1  0.02269532  0.88827568  0.34955972  1
  H+  H247  1  0.12020035  0.13451425  0.16596371  1
  H+  H248  1  0.10849188  0.11535662  0.49051808  1
  H+  H249  1  0.87421351  0.98599565  0.00774510  1
  H+  H250  1  0.53446027  0.63899613  0.83398978  1
  H+  H251  1  0.52980957  0.13702698  0.34032227  1
  H+  H252  1  0.10714858  0.47629412  0.68930059  1
  H+  H253  1  0.10175723  0.46621188  0.33344808  1
  H+  H254  1  0.11793874  0.72900564  0.15868627  1
  H+  H255  1  0.36864456  0.21363894  0.15838284  1
  H+  H256  1  1.02120636  0.64245613  0.33997066  1
  H+  H257  1  0.28544985  0.64546264  0.67812269  1
  H+  H258  1  0.89285062  0.86708826  0.65782026  1
  H+  H259  1  0.87136806  0.39753192  0.00560090  1
  H+  H260  1  0.86657029  0.34039719  0.33192034  1
  H+  H261  1  0.86734880  0.64044546  0.81595203  1
  H+  H262  1  0.49659291  0.96509600  0.46042978  1
  H+  H263  1  0.63932608  0.27338095  -0.00075601  1
  H+  H264  1  0.13958174  0.38383816  0.50493074  1
  H+  H265  1  0.88797303  0.53047326  0.98834316  1
  H+  H266  1  0.90718193  0.61950220  0.50797532  1
  H+  H267  1  0.13513815  0.86396670  0.32909051  1
  H+  H268  1  0.57634626  0.59882857  0.01058283  1
  H+  H269  1  0.64777343  0.27813731  0.17161469  1
  H+  H270  1  0.63750068  0.12532219  1.00259264  1
  H+  H271  1  0.48852830  0.87200424  0.66666409  1
  H+  H272  1  0.87945223  0.89595628  0.82360084  1
  H+  H273  1  0.76667462  0.93068480  0.47683576  1
  H+  H274  1  0.36047676  0.35228631  0.98779782  1
  H+  H275  1  0.77070106  0.64495812  0.34855708  1
  H+  H276  1  0.38188581  0.73616302  0.50962387  1
  H+  H277  1  0.22179803  0.86458589  0.99805540  1
  H+  H278  1  0.13432678  0.35699437  0.32860848  1
  H+  H279  1  0.88906814  0.86914263  0.99306555  1
  H+  H280  1  0.13004875  0.77616495  0.99618437  1
  H+  H281  1  0.27767217  0.64214484  0.82294971  1
  H+  H282  1  0.35334747  0.73327051  1.00803595  1
  H+  H283  1  0.83817411  0.16224922  0.07423999  1
  H+  H284  1  0.53625577  0.38482936  0.16198303  1
  H+  H285  1  0.36796802  0.97605390  0.00744047  1
  H+  H286  1  0.85407926  0.71809021  0.16251135  1
  H+  H287  1  0.14605055  0.36694109  0.84822557  1
  H+  H288  1  0.67508468  0.84447235  0.27024328  1
  H+  H289  1  0.08400978  0.91301214  0.40852130  1
  H+  H290  1  0.08791451  0.17625337  0.73123676  1
  H+  H291  1  0.63020790  0.34365224  0.54978722  1
  H+  H292  1  0.89937994  0.32952971  0.26730235  1
  H+  H293  1  0.42097391  0.83541867  0.57877175  1
  H+  H294  1  0.73343144  0.62594999  0.83864306  1
  H+  H295  1  0.83816904  0.67097873  0.75652173  1
  H+  H296  1  0.35926126  0.97680527  0.82412357  1
  H+  H297  1  0.91999303  0.58244419  0.57096691  1
  H+  H298  1  0.89050217  0.27784428  0.84752001  1
  H+  H299  1  0.01911841  0.88717498  0.00866915  1
  H+  H300  1  0.40406005  0.07225954  0.56834287  1
  H+  H301  1  0.15322063  0.07026421  0.90655852  1
  H+  H302  1  0.32266994  0.66989835  0.06748299  1
  H+  H303  1  0.14749010  0.57215645  0.25815398  1
  H+  H304  1  0.09143437  0.41710241  0.09752161  1
  H+  H305  1  0.61370821  0.14367894  0.81627515  1
  H+  H306  1  0.27115867  0.63836402  0.39366155  1
  H+  H307  1  0.09937491  0.68770230  0.77005022  1
  H+  H308  1  0.48296653  0.10307863  0.98554111  1
  H+  H309  1  0.34786230  0.67549215  0.73328725  1
  H+  H310  1  0.08130184  0.91544069  0.10240620  1
  H+  H311  1  0.01968486  0.38577971  0.67914264  1
  H+  H312  1  0.33540840  0.92266475  0.09463973  1
  H+  H313  1  0.92637112  0.33469892  0.94339819  1
  H+  H314  1  0.92292344  0.59373056  0.89407643  1
  H+  H315  1  0.41494801  0.07483485  0.22935402  1
  H+  H316  1  0.58269344  0.16648966  0.43791623  1
  H+  H317  1  0.61240575  0.12783273  0.34258248  1
  H+  H318  1  0.08236737  0.41257906  0.42992195  1
  H+  H319  1  0.36911817  0.98986503  0.16142901  1
  H+  H320  1  0.32174399  0.90041125  0.73614000  1
  H+  H321  1  0.55751985  0.93623864  0.42839389  1
  H+  H322  1  0.16411206  0.83720241  0.90451679  1
  H+  H323  1  0.66970671  0.32535848  0.90238832  1
  H+  H324  1  0.30116216  0.43864288  -0.02443492  1
  H+  H325  1  0.60492911  0.63572598  0.68560034  1
  H+  H326  1  0.07951379  0.67370076  0.06063253  1
  H+  H327  1  0.64976443  0.56288981  0.62771251  1
  H+  H328  1  0.58316711  0.68070191  0.77174051  1
  H+  H329  1  0.41913527  0.58063625  0.60120659  1
  H+  H330  1  0.33058712  0.16330389  0.72193606  1
  H+  H331  1  0.82712241  0.92724253  0.42532997  1
  H+  H332  1  0.57942878  0.38943005  0.77072350  1
  H+  H333  1  0.18776361  0.64399288  0.58258009  1
  H+  H334  1  0.97001231  0.73377175  0.45307768  1
  H+  H335  1  0.68290539  0.07243778  0.91938211  1
  H+  H336  1  0.32527289  0.15762671  0.43407966  1
  H+  H337  1  0.21147646  0.78806190  0.69113059  1
  H+  H338  1  0.55177927  0.63172455  0.06969426  1
  H+  H339  1  0.67735139  0.82233321  0.60801005  1
  H+  H340  1  0.40955039  0.58083138  0.27586536  1
  H+  H341  1  0.37966328  0.86421219  0.84418112  1
  H+  H342  1  0.04074890  0.38789059  0.00512684  1
  H+  H343  1  0.41412385  0.83732452  0.93769463  1
  H+  H344  1  0.91660959  0.83770461  0.57153389  1
  H+  H345  1  0.02044095  0.13480618  0.34000849  1
  H+  H346  1  0.70462300  0.58556995  0.53790293  1
  H+  H347  1  0.16112944  0.32860643  0.23464584  1
  H+  H348  1  0.63311358  0.04277953  0.50443957  1
  H+  H349  1  0.55348033  0.59984407  0.32897793  1
  H+  H350  1  0.88112039  0.62257661  0.32450249  1
  H+  H351  1  0.72695046  0.12496982  1.00880382  1
  H+  H352  1  0.38701329  0.35607913  0.33008215  1
  H+  H353  1  0.84293612  0.42191689  0.77563579  1
  H+  H354  1  0.57351172  0.16996259  0.72155900  1
  H+  H355  1  0.09463684  0.16570032  0.07148793  1
  H+  H356  1  0.03343319  0.63597946  0.49586174  1
  H+  H357  1  0.42554347  0.31827262  0.24132165  1
  H+  H358  1  0.91667760  0.33431013  0.60601189  1
  H+  H359  1  0.15618087  0.08415518  0.59712596  1
  H+  H360  1  0.65464608  0.58544870  0.27931201  1
  H+  H361  1  0.42054836  0.08282148  0.89012515  1
  H+  H362  1  0.17082379  0.07953192  0.23682861  1
  H+  H363  1  0.38018013  0.69144380  0.44722201  1
  H+  H364  1  0.58137970  0.92663949  0.76633194  1
  H+  H365  1  0.92531326  0.60785951  0.22820874  1
  H+  H366  1  0.67449319  0.36331002  0.26457590  1
  H+  H367  1  0.82629885  0.66823343  0.06270867  1
  H+  H368  1  0.85108872  0.68279007  0.39605887  1
  H+  H369  1  0.17545881  0.84297473  0.23143765  1
  H+  H370  1  0.12869145  0.01387204  0.50422385  1
  H+  H371  1  0.83381271  0.17019804  0.77347442  1
  H+  H372  1  0.66528936  0.58895534  0.93125425  1
  H+  H373  1  0.93180066  0.09974576  0.93919948  1
  H+  H374  1  0.15461579  0.59718679  0.58040058  1
  H+  H375  1  0.97385429  0.37338565  0.50705711  1
  H+  H376  1  0.14251386  0.11430757  0.99765064  1
  H+  H377  1  0.67402665  0.85076678  0.93877311  1
  H+  H378  1  0.41085890  0.82649791  0.23648599  1
  H+  H379  1  0.07619946  0.15388492  0.42723971  1
  H+  H380  1  0.97793926  0.36281356  0.15130563  1
  H+  H381  1  0.16164272  0.34614524  0.57258298  1
  H+  H382  1  0.08071887  0.40898294  0.77696462  1
  H+  H383  1  0.10197178  0.90633794  0.71705708  1
  O2-  O384  1  0.08675652  0.16036928  0.14892652  1
  O2-  O385  1  0.07601339  0.14844565  0.47438634  1
  O2-  O386  1  0.09513559  0.17532059  0.81126089  1
  O2-  O387  1  0.08028036  0.41460996  0.14249390  1
  O2-  O388  1  0.09097818  0.42496068  0.47476282  1
  O2-  O389  1  0.08541061  0.41444057  0.82211783  1
  O2-  O390  1  0.08660552  0.66925612  0.14350436  1
  O2-  O391  1  0.08966087  0.67636084  0.47677950  1
  O2-  O392  1  0.09103448  0.67283173  0.81367055  1
  O2-  O393  1  0.08855484  0.91666930  0.14798566  1
  O2-  O394  1  0.08409386  0.91621729  0.48662596  1
  O2-  O395  1  0.07295625  0.89956281  0.80350152  1
  O2-  O396  1  0.33670048  0.15471471  0.14086338  1
  O2-  O397  1  0.31936738  0.15668768  0.47951023  1
  O2-  O398  1  0.35166014  0.17975041  0.79983967  1
  O2-  O399  1  0.27759391  0.42274116  0.11364982  1
  O2-  O400  1  0.32261307  0.40775071  0.48408626  1
  O2-  O401  1  0.33764136  0.41552370  0.80277936  1
  O2-  O402  1  0.33025447  0.66554221  0.14597680  1
  O2-  O403  1  0.35918333  0.67717431  0.48894601  1
  O2-  O404  1  0.33545430  0.67576666  0.80487583  1
  O2-  O405  1  0.33349052  0.92373947  0.14321543  1
  O2-  O406  1  0.38384001  0.94341782  0.46313142  1
  O2-  O407  1  0.32830237  0.91436343  0.81420052  1
  O2-  O408  1  0.60318627  0.16988380  0.14431120  1
  O2-  O409  1  0.58636882  0.17137859  0.48315065  1
  O2-  O410  1  0.58381243  0.17471456  0.80630556  1
  O2-  O411  1  0.59474990  0.42358825  0.14631945  1
  O2-  O412  1  0.58921368  0.40242826  0.49136366  1
  O2-  O413  1  0.59111597  0.39735512  0.81497168  1
  O2-  O414  1  0.58557930  0.67186413  0.15250938  1
  O2-  O415  1  0.57709277  0.63020615  0.47595582  1
  O2-  O416  1  0.59016807  0.68387356  0.81678929  1
  O2-  O417  1  0.58320107  0.91531538  0.14785064  1
  O2-  O418  1  0.54395119  0.95318028  0.46872151  1
  O2-  O419  1  0.56985874  0.92199636  0.81105543  1
  O2-  O420  1  0.83847573  0.15442675  0.15270927  1
  O2-  O421  1  0.83585569  0.17036483  0.48032449  1
  O2-  O422  1  0.84178215  0.17369515  0.81867469  1
  O2-  O423  1  0.84682233  0.43157991  0.20224080  1
  O2-  O424  1  0.82003591  0.41696079  0.48487909  1
  O2-  O425  1  0.84298586  0.42046690  0.82190279  1
  O2-  O426  1  0.81874822  0.65986404  0.14520057  1
  O2-  O427  1  0.90916584  0.70856776  0.46301211  1
  O2-  O428  1  0.83625582  0.67012723  0.80213632  1
  O2-  O429  1  0.84061707  0.92788866  0.14682458  1
  O2-  O430  1  0.82000372  0.92922809  0.47180288  1
  O2-  O431  1  0.86183794  0.93356382  0.80253016  1
  O2-  O432  1  0.17439166  0.08191228  0.19145040  1
  O2-  O433  1  0.15452270  0.07790259  0.51463795  1
  O2-  O434  1  0.15326405  0.06701439  0.86016365  1
  O2-  O435  1  0.15140552  0.32487816  0.18981941  1
  O2-  O436  1  0.16821708  0.35195599  0.52502803  1
  O2-  O437  1  0.18046638  0.33829226  0.85581096  1
  O2-  O438  1  0.16291689  0.58046906  0.18246863  1
  O2-  O439  1  0.18778581  0.59792810  0.46058211  1
  O2-  O440  1  0.16780735  0.58260822  0.85274166  1
  O2-  O441  1  0.17930213  0.84442217  0.18580217  1
  O2-  O442  1  0.13183642  0.81994903  0.53853307  1
  O2-  O443  1  0.16614220  0.83687842  0.85878481  1
  O2-  O444  1  0.41535442  0.07193221  0.18292937  1
  O2-  O445  1  0.41147765  0.08108022  0.52328716  1
  O2-  O446  1  0.41743456  0.08622943  0.84482755  1
  O2-  O447  1  0.42743141  0.31481839  0.19550472  1
  O2-  O448  1  0.40887164  0.32475799  0.51941139  1
  O2-  O449  1  0.42883138  0.34645730  0.85486657  1
  O2-  O450  1  0.41443410  0.59148911  0.19560443  1
  O2-  O451  1  0.41720295  0.57072412  0.52218253  1
  O2-  O452  1  0.45171568  0.54776860  0.86786799  1
  O2-  O453  1  0.41454151  0.82917837  0.19064328  1
  O2-  O454  1  0.41360937  0.82780817  0.53316891  1
  O2-  O455  1  0.41075053  0.83497957  0.86000078  1
  O2-  O456  1  0.67231822  0.07859128  0.18931590  1
  O2-  O457  1  0.67309503  0.10036613  0.52199065  1
  O2-  O458  1  0.69722451  0.05459879  0.87955030  1
  O2-  O459  1  0.67384610  0.33764606  0.18791768  1
  O2-  O460  1  0.64400416  0.36499148  0.50454005  1
  O2-  O461  1  0.67202924  0.32423636  0.85687811  1
  O2-  O462  1  0.66270988  0.58179259  0.20227650  1
  O2-  O463  1  0.64391853  0.55193688  0.54844273  1
  O2-  O464  1  0.67665671  0.60432005  0.85817845  1
  O2-  O465  1  0.67423436  0.84049002  0.19114748  1
  O2-  O466  1  0.69211894  0.77867498  0.53993195  1
  O2-  O467  1  0.65727266  0.84454949  0.86359922  1
  O2-  O468  1  0.92290823  0.07951747  0.19255486  1
  O2-  O469  1  0.92242718  0.09042309  0.51959697  1
  O2-  O470  1  0.93166624  0.09672037  0.86055881  1
  O2-  O471  1  0.91271176  0.33011003  0.15572252  1
  O2-  O472  1  0.91486920  0.33857581  0.52317927  1
  O2-  O473  1  0.92252403  0.33728823  0.86445202  1
  O2-  O474  1  0.92192134  0.59807503  0.18353921  1
  O2-  O475  1  0.92329617  0.57852053  0.52480479  1
  O2-  O476  1  0.92589016  0.59165962  0.84852756  1
  O2-  O477  1  0.94219497  0.80424757  0.20717814  1
  O2-  O478  1  0.91790083  0.83959088  0.52365903  1
  O2-  O479  1  0.91372658  0.82704710  0.85572321  1
  O2-  O480  1  0.16434036  0.07806444  0.31757367  1
  O2-  O481  1  0.15986932  0.08499900  0.64215511  1
  O2-  O482  1  0.16661709  0.07910939  0.97963251  1
  O2-  O483  1  0.16342185  0.32499075  0.31467595  1
  O2-  O484  1  0.15701578  0.33670566  0.64004010  1
  O2-  O485  1  0.19151730  0.34410295  1.01587410  1
  O2-  O486  1  0.14558045  0.56802664  0.30377622  1
  O2-  O487  1  0.16930132  0.59174465  0.69923179  1
  O2-  O488  1  0.18173614  0.57809752  0.97505393  1
  O2-  O489  1  0.16582475  0.83599177  0.31032888  1
  O2-  O490  1  0.08666039  0.79260759  0.59696498  1
  O2-  O491  1  0.16298696  0.83925686  0.98163696  1
  O2-  O492  1  0.41603345  0.07986318  0.30327111  1
  O2-  O493  1  0.39716444  0.05987286  0.64589421  1
  O2-  O494  1  0.42243722  0.07083702  0.96896310  1
  O2-  O495  1  0.41765529  0.32515644  0.31715174  1
  O2-  O496  1  0.40344970  0.32393679  0.64000819  1
  O2-  O497  1  0.40229957  0.33862035  1.00570507  1
  O2-  O498  1  0.40786957  0.57377475  0.32088052  1
  O2-  O499  1  0.41656729  0.57985669  0.64657281  1
  O2-  O500  1  0.37137549  0.53190692  0.97683759  1
  O2-  O501  1  0.40511007  0.82011494  0.31264981  1
  O2-  O502  1  0.42718915  0.84043580  0.65252674  1
  O2-  O503  1  0.41288536  0.83707213  0.98346806  1
  O2-  O504  1  0.66411389  0.07308851  0.31229734  1
  O2-  O505  1  0.66877610  0.09019490  0.64587659  1
  O2-  O506  1  0.66770209  0.09389254  0.99126619  1
  O2-  O507  1  0.68463810  0.39057906  0.30539371  1
  O2-  O508  1  0.62754278  0.32042676  0.61569942  1
  O2-  O509  1  0.67046390  0.33335609  0.98102572  1
  O2-  O510  1  0.65320336  0.58145067  0.32571435  1
  O2-  O511  1  0.64814988  0.56713348  0.67287553  1
  O2-  O512  1  0.65893784  0.58073403  0.97700526  1
  O2-  O513  1  0.67996400  0.84651872  0.31551920  1
  O2-  O514  1  0.67195739  0.83574451  0.65115939  1
  O2-  O515  1  0.68464997  0.85696904  0.98377362  1
  O2-  O516  1  0.92348235  0.08603717  0.31196333  1
  O2-  O517  1  0.91605846  0.08882846  0.65040864  1
  O2-  O518  1  0.92908618  0.09892460  0.98471746  1
  O2-  O519  1  0.90603418  0.32423007  0.31091347  1
  O2-  O520  1  0.92008016  0.33503462  0.65109093  1
  O2-  O521  1  0.93218739  0.33739738  0.98874721  1
  O2-  O522  1  0.91592127  0.59697585  0.30838836  1
  O2-  O523  1  0.91461774  0.58788354  0.64480353  1
  O2-  O524  1  0.91689386  0.59112505  0.97241216  1
  O2-  O525  1  0.91980871  0.84463463  0.31885433  1
  O2-  O526  1  0.92208474  0.83860607  0.63841921  1
  O2-  O527  1  0.91840633  0.83652117  0.97997203  1
  O2-  O528  1  0.09920196  0.17154900  0.02611173  1
  O2-  O529  1  0.08005316  0.16273098  0.35876021  1
  O2-  O530  1  0.08408143  0.17603918  0.68582305  1
  O2-  O531  1  0.10157333  0.42257310  0.01985839  1
  O2-  O532  1  0.07622643  0.40709699  0.35144713  1
  O2-  O533  1  0.08018192  0.41336718  0.69566416  1
  O2-  O534  1  0.08041517  0.68127446  0.01609300  1
  O2-  O535  1  0.08242282  0.66936073  0.35231815  1
  O2-  O536  1  0.15449359  0.73428540  0.68854835  1
  O2-  O537  1  0.07917603  0.91800289  0.02599585  1
  O2-  O538  1  0.08395897  0.91463987  0.36278010  1
  O2-  O539  1  0.12970796  0.92112409  0.67676129  1
  O2-  O540  1  0.33973867  0.15458551  0.00845950  1
  O2-  O541  1  0.33118640  0.15701668  0.35557897  1
  O2-  O542  1  0.32571606  0.15854810  0.67684665  1
  O2-  O543  1  0.25876016  0.37314576  -0.03226730  1
  O2-  O544  1  0.32956449  0.40720786  0.35535363  1
  O2-  O545  1  0.32723137  0.41329684  0.67949595  1
  O2-  O546  1  0.31965071  0.67215932  0.02215096  1
  O2-  O547  1  0.30149636  0.64939356  0.35422042  1
  O2-  O548  1  0.34781755  0.67379831  0.68674336  1
  O2-  O549  1  0.33677334  0.91863482  0.02861378  1
  O2-  O550  1  0.33435770  0.91523039  0.34718787  1
  O2-  O551  1  0.31469103  0.89055404  0.69128882  1
  O2-  O552  1  0.57640792  0.17429531  0.02840970  1
  O2-  O553  1  0.58699398  0.16149158  0.35940199  1
  O2-  O554  1  0.56893651  0.15897749  0.67720205  1
  O2-  O555  1  0.58172750  0.42092414  0.02355890  1
  O2-  O556  1  0.57639420  0.41115671  0.36972118  1
  O2-  O557  1  0.56251298  0.39140148  0.69149698  1
  O2-  O558  1  0.52859563  0.60184992  0.03081274  1
  O2-  O559  1  0.61114276  0.62934503  0.34764277  1
  O2-  O560  1  0.57831229  0.67168840  0.69374119  1
  O2-  O561  1  0.57618063  0.92264888  0.02469766  1
  O2-  O562  1  0.57457578  0.91208469  0.35698085  1
  O2-  O563  1  0.59338669  0.92574542  0.68813186  1
  O2-  O564  1  0.83719194  0.16974962  0.02920134  1
  O2-  O565  1  0.83146344  0.15842224  0.35507391  1
  O2-  O566  1  0.83081317  0.16996331  0.69429695  1
  O2-  O567  1  0.84195018  0.42933196  0.01705189  1
  O2-  O568  1  0.78882297  0.34612714  0.37337276  1
  O2-  O569  1  0.84440508  0.42807319  0.70212052  1
  O2-  O570  1  0.82827644  0.66872334  0.01760515  1
  O2-  O571  1  0.83422268  0.67581165  0.35207244  1
  O2-  O572  1  0.84631447  0.67192854  0.67835051  1
  O2-  O573  1  0.84354936  0.92518453  0.02120326  1
  O2-  O574  1  0.83558594  0.92404224  0.35475451  1
  O2-  O575  1  0.84483337  0.92652412  0.68529134  1
