# generated using pymatgen
data_H2O
_symmetry_space_group_name_H-M   'P 1'
_cell_length_a   17.97446003
_cell_length_b   17.97016661
_cell_length_c   21.98201144
_cell_angle_alpha   90.00892682
_cell_angle_beta   89.99920606
_cell_angle_gamma   119.99123071
_symmetry_Int_Tables_number   1
_chemical_formula_structural   H2O
_chemical_formula_sum   'H384 O192'
_cell_volume   6149.56477985
_cell_formula_units_Z   192
loop_
 _symmetry_equiv_pos_site_id
 _symmetry_equiv_pos_as_xyz
  1  'x, y, z'
loop_
 _atom_type_symbol
 _atom_type_oxidation_number
  H+  1.0
  O2-  -2.0
loop_
 _atom_site_type_symbol
 _atom_site_label
 _atom_site_symmetry_multiplicity
 _atom_site_fract_x
 _atom_site_fract_y
 _atom_site_fract_z
 _atom_site_occupancy
  H+  H0  1  0.14251512  0.06692549  0.84480358  1
  H+  H1  1  0.39055529  0.27328702  -0.01383265  1
  H+  H2  1  0.65608547  0.56256636  0.26716717  1
  H+  H3  1  0.37905539  0.13347203  0.83863772  1
  H+  H4  1  0.63485419  0.59444154  0.32921353  1
  H+  H5  1  0.15802194  0.36544170  0.99803712  1
  H+  H6  1  0.38459188  0.61158405  0.83849176  1
  H+  H7  1  0.10767592  0.23887685  0.66112257  1
  H+  H8  1  0.98728282  0.62657692  0.34306384  1
  H+  H9  1  0.65830199  0.84615619  0.32857967  1
  H+  H10  1  0.34914019  0.86505705  0.00835405  1
  H+  H11  1  0.91251678  0.25638081  0.80283976  1
  H+  H12  1  0.50919103  0.63907116  0.52090680  1
  H+  H13  1  0.64831023  0.53063827  0.50948512  1
  H+  H14  1  0.66883261  0.65604827  0.15494620  1
  H+  H15  1  0.48590395  0.85736133  0.33356085  1
  H+  H16  1  0.18296293  0.82901601  0.16768944  1
  H+  H17  1  0.38965848  0.05085283  0.84733885  1
  H+  H18  1  0.34909634  0.22786005  0.15956961  1
  H+  H19  1  0.13795993  0.28640116  0.83418457  1
  H+  H20  1  0.59071300  -0.05174206  0.16419140  1
  H+  H21  1  0.62056296  0.12480136  0.33281938  1
  H+  H22  1  0.48455383  0.36582806  0.51076877  1
  H+  H23  1  0.38443929  0.27010561  0.65988658  1
  H+  H24  1  0.87054957  0.64214198  0.29653074  1
  H+  H25  1  0.12664858  0.73632943  0.34440022  1
  H+  H26  1  0.26673926  0.63383719  1.00604199  1
  H+  H27  1  0.13448932  0.61670208  0.50729614  1
  H+  H28  1  0.11637982  0.13626361  0.00303354  1
  H+  H29  1  0.11871738  0.75293587  1.00048520  1
  H+  H30  1  0.78023453  0.64903871  0.49544653  1
  H+  H31  1  0.51898375  0.63356257  0.83567803  1
  H+  H32  1  0.34584868  0.68716440  0.76675602  1
  H+  H33  1  0.68242630  0.32730303  0.22064496  1
  H+  H34  1  0.52121644  0.15098635  0.82281024  1
  H+  H35  1  0.29393854  0.54901811  0.45741160  1
  H+  H36  1  0.12454246  0.86780743  0.49641816  1
  H+  H37  1  0.49419760  0.37453875  0.83001521  1
  H+  H38  1  0.30449913  0.19724532  0.81929059  1
  H+  H39  1  0.85499148  -0.03699466  0.83313405  1
  H+  H40  1  0.64710743  0.27262391  0.50187014  1
  H+  H41  1  0.13866780  0.86225108  0.32956068  1
  H+  H42  1  0.86492073  0.36957936  0.49596176  1
  H+  H43  1  0.00489545  0.60359870  0.22061637  1
  H+  H44  1  0.10666438  0.86184948  0.66200793  1
  H+  H45  1  0.00590788  0.88204363  0.34136697  1
  H+  H46  1  0.88412717  0.76820774  0.84167062  1
  H+  H47  1  0.14949496  0.57771264  0.27942609  1
  H+  H48  1  0.09041976  0.15177686  0.81175998  1
  H+  H49  1  0.34632511  0.97132161  0.49182420  1
  H+  H50  1  0.88478805  0.52772143  0.64778888  1
  H+  H51  1  0.89900751  0.13233601  0.98807764  1
  H+  H52  1  0.02532303  0.64819957  0.48987617  1
  H+  H53  1  1.00742136  0.87108905  0.67302562  1
  H+  H54  1  0.64017593  0.74466955  0.49779983  1
  H+  H55  1  0.90779600  0.86076742  0.23539762  1
  H+  H56  1  0.77641578  0.63447692  0.82277389  1
  H+  H57  1  0.60930946  0.47152406  0.00921384  1
  H+  H58  1  0.12127262  0.76796701  0.65118142  1
  H+  H59  1  0.76722696  0.38615004  0.66560317  1
  H+  H60  1  0.14035683  0.52304018  -0.00220121  1
  H+  H61  1  0.43052698  0.78069338  0.58383377  1
  H+  H62  1  0.84428963  0.46502767  -0.00351167  1
  H+  H63  1  0.11779358  0.59973906  0.99501635  1
  H+  H64  1  0.58977873  0.97424515  1.02125069  1
  H+  H65  1  0.83941427  0.21663978  1.01174158  1
  H+  H66  1  0.39595935  0.76104035  0.51548982  1
  H+  H67  1  0.35724263  0.47432439  0.16587350  1
  H+  H68  1  0.34657488  0.12669574  0.66998619  1
  H+  H69  1  0.21701492  0.35739899  0.17669031  1
  H+  H70  1  0.62614565  0.12128904  0.99280167  1
  H+  H71  1  0.38893268  0.68191474  0.67177505  1
  H+  H72  1  0.09228422  0.25101882  0.34325272  1
  H+  H73  1  0.06898110  0.90915727  0.10161408  1
  H+  H74  1  0.62363583  0.11318171  0.84335278  1
  H+  H75  1  0.53565734  0.86687968  0.50540529  1
  H+  H76  1  0.90947705  0.42871054  0.14647267  1
  H+  H77  1  0.10959928  0.62699814  0.83211718  1
  H+  H78  1  0.63097604  0.95071461  0.34046036  1
  H+  H79  1  0.46759252  0.11061163  0.65520780  1
  H+  H80  1  0.11430636  0.94539344  0.82679694  1
  H+  H81  1  0.60811078  0.89039341  0.67728484  1
  H+  H82  1  -0.03190379  0.10927391  0.32355157  1
  H+  H83  1  0.35684166  0.38419146  0.16046408  1
  H+  H84  1  0.72398217  0.11839697  -0.00227549  1
  H+  H85  1  0.11563171  0.18039479  0.33799878  1
  H+  H86  1  0.29350194  0.90130645  0.33220553  1
  H+  H87  1  0.89149955  0.40710603  0.86409584  1
  H+  H88  1  0.61447992  0.46747975  0.16127434  1
  H+  H89  1  0.10201937  0.71832405  0.83703407  1
  H+  H90  1  0.37211607  0.39035512  0.81947333  1
  H+  H91  1  0.51270067  0.88636729  0.83261017  1
  H+  H92  1  0.63371028  0.65216615  0.50027606  1
  H+  H93  1  0.85636701  0.12967712  0.15553125  1
  H+  H94  1  0.39288714  0.28054001  0.50397632  1
  H+  H95  1  0.30112416  0.96117345  0.15553286  1
  H+  H96  1  0.62387699  0.85103685  0.17369734  1
  H+  H97  1  0.20875110  0.48207859  0.05400575  1
  H+  H98  1  0.61447370  0.23308558  0.82208168  1
  H+  H99  1  0.85408666  0.23133006  0.33958997  1
  H+  H100  1  0.01887324  0.88308092  0.00768499  1
  H+  H101  1  0.13924333  0.01591129  0.99804087  1
  H+  H102  1  0.88772127  0.60916653  0.49302193  1
  H+  H103  1  0.42438539  0.58619182  0.27576324  1
  H+  H104  1  0.11645365  0.59785157  0.18630863  1
  H+  H105  1  0.13566666  0.13698929  0.65321022  1
  H+  H106  1  0.56942720  0.91806133  0.77187443  1
  H+  H107  1  0.11638983  0.64874743  0.66160897  1
  H+  H108  1  0.10471728  0.35510271  0.51131968  1
  H+  H109  1  0.70031247  0.86706424  0.56852272  1
  H+  H110  1  0.72585168  0.61323133  1.00221843  1
  H+  H111  1  0.46911454  0.10304058  0.50481275  1
  H+  H112  1  0.32720486  0.36668301  0.34371684  1
  H+  H113  1  0.26751263  0.79435507  0.77077368  1
  H+  H114  1  0.63224427  0.13519198  0.14508975  1
  H+  H115  1  0.11552791  0.39882962  0.67176407  1
  H+  H116  1  0.74622535  0.09122609  0.32079229  1
  H+  H117  1  0.40636095  1.03302964  0.33541273  1
  H+  H118  1  0.62568608  0.48409694  0.82189607  1
  H+  H119  1  0.86562632  0.60134410  0.98324877  1
  H+  H120  1  0.38448363  0.82873847  0.19254158  1
  H+  H121  1  0.22992760  0.13001299  0.65757596  1
  H+  H122  1  0.60214372  0.71336012  -0.04755964  1
  H+  H123  1  0.36557639  0.38325863  0.66779471  1
  H+  H124  1  0.26609550  0.11369794  0.33836493  1
  H+  H125  1  0.64000163  0.61302730  0.98653912  1
  H+  H126  1  0.50970501  0.86921499  0.67530131  1
  H+  H127  1  0.49242238  0.62249627  0.33219689  1
  H+  H128  1  0.10525515  0.38074769  0.16646066  1
  H+  H129  1  0.93427451  0.26536707  0.83329740  1
  H+  H130  1  0.63467383  0.35553906  0.65372362  1
  H+  H131  1  0.76375967  0.88305642  0.15737302  1
  H+  H132  1  0.38800074  0.50541344  0.65965981  1
  H+  H133  1  0.12199641  0.76547108  0.49537114  1
  H+  H134  1  0.74597778  0.01687922  0.28482676  1
  H+  H135  1  0.35474886  0.63208845  1.00749124  1
  H+  H136  1  0.83234105  0.90864239  0.77217251  1
  H+  H137  1  0.07955937  0.16561649  0.09854618  1
  H+  H138  1  0.60771855  0.22620960  0.99972615  1
  H+  H139  1  0.38686440  0.13080668  0.99948566  1
  H+  H140  1  0.46660532  0.60483454  0.18178469  1
  H+  H141  1  0.86146555  0.66889951  0.07021010  1
  H+  H142  1  0.27867848  0.64511685  0.82238015  1
  H+  H143  1  0.80041869  0.94115128  0.50149713  1
  H+  H144  1  0.62147766  0.01419493  0.66790298  1
  H+  H145  1  0.86241252  0.79623880  0.31225798  1
  H+  H146  1  0.11551897  0.42994340  0.08015312  1
  H+  H147  1  0.87873809  0.02150213  0.16877013  1
  H+  H148  1  0.62668217  0.11442819  0.66820149  1
  H+  H149  1  0.37526859  0.76755714  1.00392586  1
  H+  H150  1  0.32055389  0.08776074  0.17822989  1
  H+  H151  1  0.60862022  0.11861983  0.29966186  1
  H+  H152  1  0.97362526  0.36223196  0.66323428  1
  H+  H153  1  0.03624772  0.15384810  -0.00187797  1
  H+  H154  1  0.01557150  0.86792920  0.82955816  1
  H+  H155  1  0.59297130  0.45385091  0.33984430  1
  H+  H156  1  0.24019227  0.63520916  0.65821161  1
  H+  H157  1  0.10120473  -0.04213245  0.33542172  1
  H+  H158  1  0.23769989  0.08413043  0.83372246  1
  H+  H159  1  0.89668361  0.89352242  0.50758062  1
  H+  H160  1  0.15249378  0.27292028  0.99434373  1
  H+  H161  1  0.13351723  0.02857950  0.50689595  1
  H+  H162  1  0.11665632  0.63994878  0.34685363  1
  H+  H163  1  0.77383267  0.89894273  0.00745790  1
  H+  H164  1  0.94106452  0.34452837  1.04354417  1
  H+  H165  1  0.92652827  0.97148055  0.71987938  1
  H+  H166  1  0.09264236  0.74546188  0.18323782  1
  H+  H167  1  0.75503843  0.37770393  1.00597076  1
  H+  H168  1  0.61494868  0.01897741  0.84611677  1
  H+  H169  1  0.85585874  0.07884809  0.83143318  1
  H+  H170  1  0.98789480  0.36882134  0.49774353  1
  H+  H171  1  0.01425118  0.13395759  0.15587335  1
  H+  H172  1  0.90856268  0.47344805  0.30474005  1
  H+  H173  1  0.33754555  0.89810198  0.15362840  1
  H+  H174  1  0.84788976  0.21456836  0.15391887  1
  H+  H175  1  0.37529015  0.60152661  0.18309028  1
  H+  H176  1  0.37948843  0.73488824  0.34357347  1
  H+  H177  1  0.52563619  0.38362470  0.66995566  1
  H+  H178  1  0.11249688  0.27026414  0.51223332  1
  H+  H179  1  0.12123157  0.01934459  0.17034790  1
  H+  H180  1  0.87175504  0.15233521  0.34110916  1
  H+  H181  1  0.77231542  0.35683896  0.31322662  1
  H+  H182  1  0.88266106  0.60914289  0.83010401  1
  H+  H183  1  0.63265349  0.71744879  0.33840915  1
  H+  H184  1  0.62976713  0.34605853  0.17086474  1
  H+  H185  1  0.28153182  0.38854502  0.82205828  1
  H+  H186  1  0.17826155  0.33708453  0.89690823  1
  H+  H187  1  0.15402725  0.33824855  0.59607096  1
  H+  H188  1  -0.03055870  0.87915091  0.17208344  1
  H+  H189  1  -0.03336870  0.35224389  0.16910191  1
  H+  H190  1  0.74058681  0.09165511  0.81730723  1
  H+  H191  1  0.76414792  0.90288280  0.67238313  1
  H+  H192  1  0.47065485  0.61214205  0.98775305  1
  H+  H193  1  0.56007559  0.90495253  0.07652903  1
  H+  H194  1  0.71902293  0.86014348  0.83852337  1
  H+  H195  1  0.84909187  0.12615828  0.66127164  1
  H+  H196  1  0.20341975  0.82898582  0.83969423  1
  H+  H197  1  0.39090954  0.64174391  0.33744111  1
  H+  H198  1  0.48171216  0.60091792  0.67052239  1
  H+  H199  1  0.43574996  0.66161509  0.53443348  1
  H+  H200  1  0.24931011  0.85961017  0.00339961  1
  H+  H201  1  0.73039892  0.11144824  0.50626084  1
  H+  H202  1  0.66522935  0.05539340  0.22610568  1
  H+  H203  1  0.66888004  0.32783161  0.59467479  1
  H+  H204  1  0.25447093  0.14385572  0.15489175  1
  H+  H205  1  1.01710025  0.47672593  0.92509227  1
  H+  H206  1  0.38202715  0.41039541  0.49338471  1
  H+  H207  1  0.99905574  0.61963916  1.00739873  1
  H+  H208  1  0.60743532  0.72569033  0.83277898  1
  H+  H209  1  0.10261021  0.46937056  0.16746445  1
  H+  H210  1  0.27309369  0.13892255  0.49205241  1
  H+  H211  1  0.64661417  0.37126367  0.83586738  1
  H+  H212  1  0.02338408  0.64133662  0.65805433  1
  H+  H213  1  0.38020011  0.89608220  0.33817796  1
  H+  H214  1  0.65916453  0.88114030  0.50840072  1
  H+  H215  1  0.60486148  0.72773032  0.16468214  1
  H+  H216  1  0.36581547  0.48596328  0.01154075  1
  H+  H217  1  0.88844133  0.02243866  0.66281410  1
  H+  H218  1  0.14865248  0.53482301  0.83785241  1
  H+  H219  1  0.36595234  0.25921096  0.32511721  1
  H+  H220  1  0.40611569  0.83040778  0.90658640  1
  H+  H221  1  0.32381628  0.15220568  0.40071425  1
  H+  H222  1  0.89313813  0.00992300  0.31589018  1
  H+  H223  1  0.22168575  0.36698700  0.65310872  1
  H+  H224  1  0.73043369  0.36162852  0.84680369  1
  H+  H225  1  0.88511581  0.79815305  0.50391634  1
  H+  H226  1  0.08694635  0.38873923  0.34533115  1
  H+  H227  1  0.37958496  0.87569072  0.66663857  1
  H+  H228  1  0.70560027  0.81019903  0.65187662  1
  H+  H229  1  0.78351587  0.67711453  0.09134738  1
  H+  H230  1  0.88297256  0.51778447  0.83606544  1
  H+  H231  1  0.15337516  0.54207585  0.66330955  1
  H+  H232  1  0.46667833  0.36008726  0.17497152  1
  H+  H233  1  0.38737585  0.77057920  0.84746144  1
  H+  H234  1  0.86131950  0.72933023  0.66972515  1
  H+  H235  1  0.59216210  0.71555560  0.69090912  1
  H+  H236  1  0.62367603  0.39071549  0.49592562  1
  H+  H237  1  0.11595233  0.83545624  0.84225448  1
  H+  H238  1  0.87286493  0.88213792  0.16712769  1
  H+  H239  1  0.38037609  0.11455877  0.33694626  1
  H+  H240  1  0.00979874  0.62063229  0.83012914  1
  H+  H241  1  0.74914805  0.84764302  0.31461798  1
  H+  H242  1  0.71473750  0.08773165  0.16478053  1
  H+  H243  1  0.00905524  0.12234029  0.49082602  1
  H+  H244  1  0.95697972  0.36780985  0.32777559  1
  H+  H245  1  0.47712307  0.12926736  0.15437329  1
  H+  H246  1  0.02019954  0.89554939  0.49529130  1
  H+  H247  1  0.72317526  0.10829837  0.66421935  1
  H+  H248  1  0.63824563  0.61101819  0.66605575  1
  H+  H249  1  0.62381492  0.27544220  0.33463152  1
  H+  H250  1  0.62331814  0.35781617  -0.00515472  1
  H+  H251  1  0.07976302  0.46199483  0.49790633  1
  H+  H252  1  0.10386985  0.87510921  0.01035224  1
  H+  H253  1  0.63259104  0.87704221  -0.00619212  1
  H+  H254  1  0.27322173  0.12983574  1.00607348  1
  H+  H255  1  0.63077977  0.86418118  0.83756932  1
  H+  H256  1  0.08622399  0.87320844  0.16373225  1
  H+  H257  1  0.13026089  0.11612678  0.50281281  1
  H+  H258  1  0.24574562  0.59687511  0.47970920  1
  H+  H259  1  0.64039720  0.61434343  0.84330257  1
  H+  H260  1  0.21104502  0.60523402  0.18209165  1
  H+  H261  1  0.60890793  0.71797023  0.02002847  1
  H+  H262  1  0.22120254  0.87008775  0.49446622  1
  H+  H263  1  0.36026814  0.71253139  0.17749766  1
  H+  H264  1  0.12801259  0.26855326  0.17552241  1
  H+  H265  1  0.88235538  0.85631566  0.84309789  1
  H+  H266  1  0.86651372  0.35614915  0.01418918  1
  H+  H267  1  0.35983591  0.13374064  0.49196160  1
  H+  H268  1  0.20535639  0.36740948  0.33556804  1
  H+  H269  1  0.89014796  0.87329847  0.66852444  1
  H+  H270  1  0.64611772  0.23231782  0.14408926  1
  H+  H271  1  0.41181565  0.28279927  0.82538459  1
  H+  H272  1  0.27659310  0.38659302  0.00990801  1
  H+  H273  1  0.61585907  0.22249625  0.66696884  1
  H+  H274  1  0.61349134  0.12651320  0.49674097  1
  H+  H275  1  0.33530308  0.84487204  0.82223787  1
  H+  H276  1  0.73826216  0.36089641  0.50040158  1
  H+  H277  1  0.12862566  0.07969873  0.32672249  1
  H+  H278  1  0.88602336  0.36271277  0.66070874  1
  H+  H279  1  0.87888178  0.78138222  0.00390964  1
  H+  H280  1  0.12850232  0.40197462  0.83206868  1
  H+  H281  1  0.58356795  0.41841151  0.44119617  1
  H+  H282  1  0.84544762  0.40578352  0.43292468  1
  H+  H283  1  0.48496688  0.12906679  -0.00412598  1
  H+  H284  1  0.48167523  0.10355864  0.17952110  1
  H+  H285  1  0.85869854  0.22610536  0.49986248  1
  H+  H286  1  0.39335290  0.50319900  0.49221769  1
  H+  H287  1  0.95547244  0.10990910  0.82932118  1
  H+  H288  1  0.85584994  0.37893675  0.79826902  1
  H+  H289  1  0.56550881  0.35392016  0.35008021  1
  H+  H290  1  0.58193271  0.14383629  0.43528380  1
  H+  H291  1  0.89232732  0.52110877  0.49445312  1
  H+  H292  1  0.66684793  0.07849354  0.56446209  1
  H+  H293  1  0.83612456  0.66632605  0.76266837  1
  H+  H294  1  0.42448785  0.82123988  0.27365758  1
  H+  H295  1  0.79649717  0.11553774  0.75643799  1
  H+  H296  1  0.72914298  0.61473483  0.66313293  1
  H+  H297  1  0.33069570  0.16800409  0.06686294  1
  H+  H298  1  0.65466385  0.33078850  0.93350859  1
  H+  H299  1  0.14888673  0.80899877  0.93879567  1
  H+  H300  1  0.30876718  0.90403500  0.06482726  1
  H+  H301  1  0.15727979  0.06890465  0.26044082  1
  H+  H302  1  0.07404850  0.91768829  0.43319503  1
  H+  H303  1  0.06879860  0.88960835  0.73327901  1
  H+  H304  1  -0.00904143  0.57498896  0.15421845  1
  H+  H305  1  0.16182069  0.83119088  0.26893289  1
  H+  H306  1  0.16771833  0.10124076  0.59130101  1
  H+  H307  1  0.11954992  0.10862737  0.17269634  1
  H+  H308  1  0.57546781  0.65631113  0.74825327  1
  H+  H309  1  0.59622531  0.42308677  0.76167021  1
  H+  H310  1  0.04973762  0.40806908  0.40644629  1
  H+  H311  1  0.04690999  0.41232534  0.84493093  1
  H+  H312  1  0.09244404  0.68264700  0.43213193  1
  H+  H313  1  0.67575797  0.58343282  0.89896860  1
  H+  H314  1  0.89888129  0.33081998  0.22211347  1
  H+  H315  1  0.55788193  0.66171329  0.11021808  1
  H+  H316  1  0.07046326  0.18589464  0.75240687  1
  H+  H317  1  0.17674867  0.06582238  0.93621725  1
  H+  H318  1  0.90085635  0.06745122  0.59701206  1
  H+  H319  1  0.86405147  0.64102801  0.66472280  1
  H+  H320  1  0.51885670  0.38306477  0.00470938  1
  H+  H321  1  0.59624688  0.16921510  0.06139628  1
  H+  H322  1  0.05249489  0.63920971  0.06847827  1
  H+  H323  1  0.01867736  0.14488565  0.65942019  1
  H+  H324  1  0.86689872  0.09045639  0.49973489  1
  H+  H325  1  0.32841785  0.65075260  0.39432114  1
  H+  H326  1  0.91042243  0.82884574  0.93875425  1
  H+  H327  1  0.40159908  0.32742597  0.23224445  1
  H+  H328  1  0.16628642  0.58617968  0.56447946  1
  H+  H329  1  0.82568374  0.91700475  0.09585901  1
  H+  H330  1  0.92891901  0.11171830  0.92578999  1
  H+  H331  1  0.40434746  0.57464664  0.93335704  1
  H+  H332  1  0.58298494  0.16716038  0.72962426  1
  H+  H333  1  0.91217057  0.84239938  0.60389764  1
  H+  H334  1  0.91168008  0.08023513  0.22860289  1
  H+  H335  1  0.83574240  0.68400580  0.43546071  1
  H+  H336  1  0.59981357  0.66670088  0.40142398  1
  H+  H337  1  0.50142324  0.85306043  0.17124987  1
  H+  H338  1  0.95358168  0.38098802  0.94399258  1
  H+  H339  1  0.65566141  0.08355965  0.93257844  1
  H+  H340  1  0.87455575  0.46121168  0.09375920  1
  H+  H341  1  0.40847201  0.07655961  0.56351082  1
  H+  H342  1  0.48514283  0.14239594  0.33660642  1
  H+  H343  1  0.41736194  0.33029448  0.60033723  1
  H+  H344  1  0.85032021  0.21708681  0.66793513  1
  H+  H345  1  0.80898562  0.14854901  0.06598128  1
  H+  H346  1  0.71502600  0.40122718  0.30525604  1
  H+  H347  1  0.38818499  0.01685875  0.65452712  1
  H+  H348  1  0.89941962  0.31854786  0.56203889  1
  H+  H349  1  0.66613278  0.82409199  0.23001701  1
  H+  H350  1  0.91473262  0.58544030  0.58779619  1
  H+  H351  1  0.61005726  0.96775434  0.49758603  1
  H+  H352  1  0.32222063  0.91444734  0.43146010  1
  H+  H353  1  0.57778026  0.25185725  0.39944605  1
  H+  H354  1  0.38457443  0.52171938  0.83726326  1
  H+  H355  1  0.82893775  0.16415236  0.43983393  1
  H+  H356  1  0.33749222  0.41736079  0.72694802  1
  H+  H357  1  0.14886475  0.83727261  0.59404713  1
  H+  H358  1  0.33269247  0.42399170  0.07918626  1
  H+  H359  1  0.15020481  0.34141312  0.27313582  1
  H+  H360  1  0.42655887  0.33156138  0.92682880  1
  H+  H361  1  0.86181083  0.89671899  0.00878332  1
  H+  H362  1  0.07048009  0.16871960  0.43455444  1
  H+  H363  1  0.32373699  0.65668010  0.11492032  1
  H+  H364  1  0.42326544  0.11113956  0.93246556  1
  H+  H365  1  0.11152592  0.52150505  0.33887502  1
  H+  H366  1  0.44807249  0.35185268  0.33010789  1
  H+  H367  1  0.67594944  0.58903889  0.56928314  1
  H+  H368  1  0.90391108  0.57955541  0.92527556  1
  H+  H369  1  0.77782035  0.62641186  0.30904075  1
  H+  H370  1  0.81916273  0.43615612  0.72368797  1
  H+  H371  1  0.34674274  0.90887642  0.72153846  1
  H+  H372  1  0.31807476  0.15648011  0.73143618  1
  H+  H373  1  0.59337740  0.89983668  0.40312189  1
  H+  H374  1  0.17183218  0.59298863  0.89753933  1
  H+  H375  1  0.61513936  0.47296878  0.66790207  1
  H+  H376  1  0.77003831  0.61875145  0.21777562  1
  H+  H377  1  0.08882608  0.42808587  0.73245943  1
  H+  H378  1  0.31852119  0.41421534  0.40212782  1
  H+  H379  1  0.66749493  0.85661960  0.93251099  1
  H+  H380  1  0.46155400  0.86250003  1.00603745  1
  H+  H381  1  0.43627559  0.58715841  0.59972941  1
  H+  H382  1  0.26295103  0.01463859  0.22521342  1
  H+  H383  1  0.57424005  0.40955344  0.10308377  1
  O2-  O384  1  0.07660066  0.16422809  0.14402428  1
  O2-  O385  1  0.07039182  0.15786630  0.47900092  1
  O2-  O386  1  0.06752623  0.18786773  0.79811610  1
  O2-  O387  1  0.07697952  0.41105896  0.14728197  1
  O2-  O388  1  0.05160598  0.40297873  0.48156192  1
  O2-  O389  1  0.09838530  0.43363298  0.81889084  1
  O2-  O390  1  0.03331980  0.62395636  0.18038260  1
  O2-  O391  1  0.08821940  0.68567364  0.47933603  1
  O2-  O392  1  0.07388594  0.65488532  0.81930629  1
  O2-  O393  1  0.06560565  0.91159416  0.14727519  1
  O2-  O394  1  0.08052378  0.92167103  0.47867487  1
  O2-  O395  1  0.07375340  0.88557746  0.81171663  1
  O2-  O396  1  0.31546684  0.16834188  0.14189189  1
  O2-  O397  1  0.33190595  0.16534336  0.47440229  1
  O2-  O398  1  0.31750953  0.15350458  0.80514878  1
  O2-  O399  1  0.32713149  0.41583828  0.14521703  1
  O2-  O400  1  0.35946593  0.44534896  0.47516368  1
  O2-  O401  1  0.34115679  0.42039245  0.80511125  1
  O2-  O402  1  0.32085367  0.65060155  0.15951471  1
  O2-  O403  1  0.29988988  0.60595392  0.45981199  1
  O2-  O404  1  0.34081178  0.67395604  0.81105282  1
  O2-  O405  1  0.29315087  0.90624031  0.13452778  1
  O2-  O406  1  0.30871223  0.91209148  0.47540045  1
  O2-  O407  1  0.28830855  0.84465863  0.79716573  1
  O2-  O408  1  0.63717866  0.18176512  0.11844186  1
  O2-  O409  1  0.58139984  0.15448128  0.47877965  1
  O2-  O410  1  0.58043463  0.17242958  0.80689413  1
  O2-  O411  1  0.57305531  0.40869954  0.14868915  1
  O2-  O412  1  0.59230400  0.42207451  0.48612291  1
  O2-  O413  1  0.59710888  0.42314917  0.80729240  1
  O2-  O414  1  0.57446459  0.66398565  0.15260970  1
  O2-  O415  1  0.60379434  0.68339990  0.48596797  1
  O2-  O416  1  0.57996739  0.66329360  0.82077999  1
  O2-  O417  1  0.56159940  0.88790527  0.14881528  1
  O2-  O418  1  0.58937482  0.90774212  0.48365520  1
  O2-  O419  1  0.57301729  0.91915836  0.81702105  1
  O2-  O420  1  0.82075193  0.15398010  0.13907028  1
  O2-  O421  1  0.82821347  0.15985652  0.48480912  1
  O2-  O422  1  0.77923257  0.07914597  0.79309053  1
  O2-  O423  1  0.92268296  0.48022259  0.12229642  1
  O2-  O424  1  0.84034217  0.40964184  0.47725636  1
  O2-  O425  1  0.84921331  0.40708055  0.83416556  1
  O2-  O426  1  0.71757147  0.59039695  0.19083887  1
  O2-  O427  1  0.84084274  0.68362130  0.47964874  1
  O2-  O428  1  0.83742613  0.66327968  0.80833521  1
  O2-  O429  1  0.82514907  0.91640870  0.14328137  1
  O2-  O430  1  0.86174100  0.97570150  0.48691720  1
  O2-  O431  1  0.82381907  0.90213149  0.81799432  1
  O2-  O432  1  0.15133922  0.07880471  0.18757996  1
  O2-  O433  1  0.16383002  0.08982834  0.52073252  1
  O2-  O434  1  0.17870834  0.04315935  0.85646314  1
  O2-  O435  1  0.15689223  0.32866270  0.19158550  1
  O2-  O436  1  0.13866007  0.32929763  0.52816998  1
  O2-  O437  1  0.17734484  0.34417084  0.85203400  1
  O2-  O438  1  0.15039164  0.56934323  0.19616202  1
  O2-  O439  1  0.15653792  0.57858241  0.51969817  1
  O2-  O440  1  0.17380741  0.59664576  0.85209710  1
  O2-  O441  1  0.12828689  0.80845953  0.18994150  1
  O2-  O442  1  0.15587235  0.83609160  0.51065927  1
  O2-  O443  1  0.14575886  0.80465134  0.86040818  1
  O2-  O444  1  0.31247789  0.03416168  0.19857685  1
  O2-  O445  1  0.40816807  0.07683124  0.51768646  1
  O2-  O446  1  0.41799068  0.11154010  0.85865160  1
  O2-  O447  1  0.40449446  0.33053691  0.18664743  1
  O2-  O448  1  0.42312351  0.33763126  0.52386461  1
  O2-  O449  1  0.43177593  0.34037542  0.84212222  1
  O2-  O450  1  0.40651210  0.57066914  0.19675296  1
  O2-  O451  1  0.44939191  0.61439611  0.53866390  1
  O2-  O452  1  0.41190887  0.58011439  0.85669737  1
  O2-  O453  1  0.41787358  0.80190418  0.20368700  1
  O2-  O454  1  0.44503572  0.77020808  0.54008816  1
  O2-  O455  1  0.40940571  0.83116083  0.86147591  1
  O2-  O456  1  0.65533418  0.05752265  0.18191361  1
  O2-  O457  1  0.66681422  0.07879715  0.51983214  1
  O2-  O458  1  0.64812134  0.07955937  0.86236193  1
  O2-  O459  1  0.66740895  0.32144684  0.17698016  1
  O2-  O460  1  0.67674382  0.33281390  0.51621069  1
  O2-  O461  1  0.66807317  0.33426530  0.85447757  1
  O2-  O462  1  0.72862925  0.66554603  0.15555596  1
  O2-  O463  1  0.67900481  0.59166105  0.52382392  1
  O2-  O464  1  0.67375357  0.58533786  0.85359994  1
  O2-  O465  1  0.66098303  0.82506213  0.18455586  1
  O2-  O466  1  0.69980173  0.86179729  0.52373841  1
  O2-  O467  1  0.65795647  0.83164227  0.85385577  1
  O2-  O468  1  0.91122253  0.08257836  0.18286741  1
  O2-  O469  1  0.89748442  0.06032006  0.51734204  1
  O2-  O470  1  0.90230745  0.07102523  0.85148628  1
  O2-  O471  1  0.90397240  0.32607810  0.17749750  1
  O2-  O472  1  0.89659413  0.31577667  0.51746887  1
  O2-  O473  1  0.97710046  0.42040679  0.90781408  1
  O2-  O474  1  0.93898334  0.53630519  0.28357911  1
  O2-  O475  1  0.92111957  0.58283742  0.50831115  1
  O2-  O476  1  0.91309355  0.57929012  0.84866178  1
  O2-  O477  1  0.90863603  0.85516703  0.18836132  1
  O2-  O478  1  0.91989761  0.85658190  0.52163706  1
  O2-  O479  1  0.91444452  0.82751043  0.85884015  1
  O2-  O480  1  0.16371528  0.06039385  0.30570828  1
  O2-  O481  1  0.16918483  0.10763678  0.63818210  1
  O2-  O482  1  0.17290003  0.07499640  0.98049730  1
  O2-  O483  1  0.14482433  0.34409839  0.31790486  1
  O2-  O484  1  0.15993352  0.33944911  0.64326818  1
  O2-  O485  1  0.18607012  0.33502681  0.97975174  1
  O2-  O486  1  0.14767247  0.58180204  0.32427445  1
  O2-  O487  1  0.17996732  0.60034004  0.64434982  1
  O2-  O488  1  0.14987844  0.57495695  0.97438177  1
  O2-  O489  1  0.17735171  0.84289763  0.31276834  1
  O2-  O490  1  0.14572547  0.83247320  0.63892099  1
  O2-  O491  1  0.15281153  0.81285927  0.98429547  1
  O2-  O492  1  0.42585431  0.09570709  0.32370815  1
  O2-  O493  1  0.40740827  0.07775627  0.64121990  1
  O2-  O494  1  0.42311492  0.10502921  0.97871426  1
  O2-  O495  1  0.39071347  0.31882369  0.31019649  1
  O2-  O496  1  0.41666835  0.33112635  0.64625717  1
  O2-  O497  1  0.42563119  0.33300591  0.97175766  1
  O2-  O498  1  0.43114352  0.59920714  0.32011924  1
  O2-  O499  1  0.42496645  0.57182431  0.64755530  1
  O2-  O500  1  0.40786167  0.57763594  0.97927930  1
  O2-  O501  1  0.42471638  0.83173648  0.32028717  1
  O2-  O502  1  0.41218118  0.79863245  0.65132034  1
  O2-  O503  1  0.40020481  0.82877171  0.98974123  1
  O2-  O504  1  0.70722334  0.03730279  0.29754400  1
  O2-  O505  1  0.65594505  0.07729306  0.65382087  1
  O2-  O506  1  0.65748437  0.08762043  0.97971915  1
  O2-  O507  1  0.70942301  0.34449207  0.30141282  1
  O2-  O508  1  0.66549307  0.32471289  0.64036302  1
  O2-  O509  1  0.65276906  0.32636205  0.97879903  1
  O2-  O510  1  0.65507079  0.55588736  0.31184778  1
  O2-  O511  1  0.66790625  0.58248651  0.64810551  1
  O2-  O512  1  0.67154756  0.58172641  0.97900951  1
  O2-  O513  1  0.68392756  0.81638115  0.30614041  1
  O2-  O514  1  0.70651775  0.86491453  0.65399763  1
  O2-  O515  1  0.66850720  0.85404235  0.97775049  1
  O2-  O516  1  0.91006346  0.07169089  0.30618866  1
  O2-  O517  1  0.90757662  0.07997250  0.64147265  1
  O2-  O518  1  0.95003530  0.14225167  0.96531324  1
  O2-  O519  1  0.89748812  0.33867314  0.30815570  1
  O2-  O520  1  0.91211403  0.32705103  0.65138859  1
  O2-  O521  1  0.90234024  0.32678715  1.00858096  1
  O2-  O522  1  0.92644452  0.58975307  0.32875260  1
  O2-  O523  1  0.91454167  0.58815735  0.63326286  1
  O2-  O524  1  0.90038920  0.57601764  0.97099861  1
  O2-  O525  1  0.90167237  0.85827072  0.30445997  1
  O2-  O526  1  0.91111350  0.83398282  0.64858821  1
  O2-  O527  1  0.91513333  0.83745704  0.98395090  1
  O2-  O528  1  0.09383125  0.17300796  0.01849767  1
  O2-  O529  1  0.07008281  0.18785160  0.35555051  1
  O2-  O530  1  0.07910703  0.17641984  0.67545131  1
  O2-  O531  1  0.14942698  0.44744004  0.04001491  1
  O2-  O532  1  0.05168082  0.41357888  0.36052179  1
  O2-  O533  1  0.08748891  0.43118746  0.68760137  1
  O2-  O534  1  0.05878075  0.64640879  0.02427613  1
  O2-  O535  1  0.09324575  0.67885812  0.36374867  1
  O2-  O536  1  0.08343224  0.67766269  0.67273934  1
  O2-  O537  1  0.07882549  0.91023820  0.02479803  1
  O2-  O538  1  0.06518240  0.90172259  0.35598899  1
  O2-  O539  1  0.06920231  0.89534937  0.68791325  1
  O2-  O540  1  0.33443929  0.16399941  0.02124664  1
  O2-  O541  1  0.32587878  0.14749347  0.35456190  1
  O2-  O542  1  0.31864535  0.15947622  0.68471780  1
  O2-  O543  1  0.33496816  0.42595332  0.03073971  1
  O2-  O544  1  0.29629139  0.39448741  0.36029335  1
  O2-  O545  1  0.33849885  0.41828067  0.68117407  1
  O2-  O546  1  0.32481034  0.66167236  0.02434099  1
  O2-  O547  1  0.35126139  0.67005698  0.35136248  1
  O2-  O548  1  0.36052846  0.71383701  0.68490004  1
  O2-  O549  1  0.31153762  0.89463941  0.01901958  1
  O2-  O550  1  0.35247476  0.93106226  0.34974618  1
  O2-  O551  1  0.36519747  0.92063807  0.67900479  1
  O2-  O552  1  0.57833618  0.16428195  0.01415625  1
  O2-  O553  1  0.56545489  0.24224459  0.35601038  1
  O2-  O554  1  0.58584033  0.16217118  0.68405895  1
  O2-  O555  1  0.57810885  0.41147601  0.02425889  1
  O2-  O556  1  0.55318235  0.39937174  0.36220055  1
  O2-  O557  1  0.58715540  0.41241458  0.68304301  1
  O2-  O558  1  0.58468308  0.67465785  -0.01226457  1
  O2-  O559  1  0.59720927  0.65850137  0.35669163  1
  O2-  O560  1  0.57409992  0.65616511  0.70163954  1
  O2-  O561  1  0.55957065  0.91242786  0.03041163  1
  O2-  O562  1  0.59280040  0.89274660  0.35818145  1
  O2-  O563  1  0.57117259  0.91418348  0.68866569  1
  O2-  O564  1  0.80545156  0.15325827  0.01994460  1
  O2-  O565  1  0.83284663  0.17219288  0.35588560  1
  O2-  O566  1  0.81512245  0.15361592  0.67628407  1
  O2-  O567  1  0.81732527  0.40902149  0.01770155  1
  O2-  O568  1  0.86202633  0.39154380  0.33310415  1
  O2-  O569  1  0.82725841  0.42274557  0.68213798  1
  O2-  O570  1  0.81789079  0.68059472  0.05384779  1
  O2-  O571  1  0.83106326  0.66404628  0.28623103  1
  O2-  O572  1  0.83319641  0.66815510  0.68446561  1
  O2-  O573  1  0.83100114  0.92374126  0.02747347  1
  O2-  O574  1  0.85265701  0.90097951  0.32545164  1
  O2-  O575  1  0.87034572  0.93685827  0.70075057  1
