# generated using pymatgen
data_H2O
_symmetry_space_group_name_H-M   'P 1'
_cell_length_a   17.98533592
_cell_length_b   17.98676933
_cell_length_c   21.99382386
_cell_angle_alpha   90.01302565
_cell_angle_beta   90.01444953
_cell_angle_gamma   119.97178298
_symmetry_Int_Tables_number   1
_chemical_formula_structural   H2O
_chemical_formula_sum   'H384 O192'
_cell_volume   6163.48661780
_cell_formula_units_Z   192
loop_
 _symmetry_equiv_pos_site_id
 _symmetry_equiv_pos_as_xyz
  1  'x, y, z'
loop_
 _atom_type_symbol
 _atom_type_oxidation_number
  H+  1.0
  O2-  -2.0
loop_
 _atom_site_type_symbol
 _atom_site_label
 _atom_site_symmetry_multiplicity
 _atom_site_fract_x
 _atom_site_fract_y
 _atom_site_fract_z
 _atom_site_occupancy
  H+  H0  1  0.52872861  0.87446600  0.50402684  1
  H+  H1  1  0.58287174  0.40428008  0.23535243  1
  H+  H2  1  0.81725436  0.38196410  0.80737681  1
  H+  H3  1  0.31739079  0.88756679  0.75535325  1
  H+  H4  1  0.26307713  0.37286562  0.34335453  1
  H+  H5  1  0.32964581  0.40845912  0.10645938  1
  H+  H6  1  0.10253669  0.89707119  0.49922896  1
  H+  H7  1  0.35519723  0.46299063  0.16914932  1
  H+  H8  1  0.60465200  0.95891463  0.34085355  1
  H+  H9  1  0.11259164  0.38150360  0.15828397  1
  H+  H10  1  0.59370165  0.50315327  0.34631353  1
  H+  H11  1  0.14342479  0.51852848  0.17271520  1
  H+  H12  1  0.41590994  0.32982409  0.60404630  1
  H+  H13  1  0.93207385  0.33463616  0.60166385  1
  H+  H14  1  0.71037754  0.39171955  0.84953771  1
  H+  H15  1  0.12746619  0.20181282  0.49737242  1
  H+  H16  1  0.74413738  0.12765530  0.83671763  1
  H+  H17  1  0.98800851  0.86003275  0.33169569  1
  H+  H18  1  0.86483871  0.21976939  0.34229713  1
  H+  H19  1  0.13034820  0.60419416  0.50165600  1
  H+  H20  1  0.63338641  0.61256404  0.84570447  1
  H+  H21  1  -0.02013478  0.62991269  0.66190008  1
  H+  H22  1  0.88561285  0.39798867  1.00177900  1
  H+  H23  1  0.08680009  0.91717697  0.72940427  1
  H+  H24  1  0.12737100  0.74316304  0.48837030  1
  H+  H25  1  0.58729995  0.20940760  0.67387842  1
  H+  H26  1  0.63884206  0.57447369  0.57255094  1
  H+  H27  1  0.61738696  0.14035366  0.15332251  1
  H+  H28  1  0.11604375  0.73618534  0.67184576  1
  H+  H29  1  0.00633181  0.88026940  0.16023296  1
  H+  H30  1  0.65474242  0.12795267  0.83681025  1
  H+  H31  1  0.51281890  0.48240399  0.38488439  1
  H+  H32  1  0.86053441  0.62514678  0.16218716  1
  H+  H33  1  1.02949302  0.13134781  0.34304985  1
  H+  H34  1  0.37299254  0.47591763  0.01271491  1
  H+  H35  1  0.15428580  0.83632318  0.21468844  1
  H+  H36  1  0.26852715  0.38138008  0.66698331  1
  H+  H37  1  0.89729303  0.12255308  0.84173194  1
  H+  H38  1  0.74340075  0.34416936  0.31207981  1
  H+  H39  1  0.89840609  0.03377776  0.84087806  1
  H+  H40  1  0.91432260  0.83626455  0.60427857  1
  H+  H41  1  0.69757202  0.53105449  0.63030385  1
  H+  H42  1  0.31800500  0.93016267  0.45408903  1
  H+  H43  1  0.12015366  0.97318555  0.33561802  1
  H+  H44  1  0.35264547  0.12864201  0.67848609  1
  H+  H45  1  0.09312822  0.15193492  0.40004934  1
  H+  H46  1  0.85124099  0.63345779  0.01288455  1
  H+  H47  1  0.01533063  0.89025277  -0.00130626  1
  H+  H48  1  0.48536707  0.61082409  0.00110724  1
  H+  H49  1  0.12184275  0.45439468  0.37982112  1
  H+  H50  1  0.61663183  0.50456162  0.67730666  1
  H+  H51  1  0.55937704  0.42306419  0.77471120  1
  H+  H52  1  0.12008627  0.88397217  0.33696588  1
  H+  H53  1  0.11898485  1.02916774  0.00034054  1
  H+  H54  1  0.95963540  0.10323156  0.17145139  1
  H+  H55  1  0.86085019  0.48446443  0.33584323  1
  H+  H56  1  0.75363573  0.42403391  0.63011824  1
  H+  H57  1  0.40541217  0.57399588  0.56752044  1
  H+  H58  1  0.49082259  0.88264539  0.85206779  1
  H+  H59  1  0.15982048  0.54800659  0.27035419  1
  H+  H60  1  0.61448669  0.62929201  0.67090039  1
  H+  H61  1  0.89243028  0.61606970  0.32622555  1
  H+  H62  1  0.03546132  0.16509012  0.82222719  1
  H+  H63  1  0.63456163  0.09322558  0.33254874  1
  H+  H64  1  0.19538676  0.72958024  0.45412524  1
  H+  H65  1  0.61817154  0.47709621  0.18676904  1
  H+  H66  1  0.46490840  0.09732384  0.67707260  1
  H+  H67  1  0.42855192  0.83149860  0.94784203  1
  H+  H68  1  0.78671188  0.57732779  0.37952368  1
  H+  H69  1  0.15542896  0.62430951  0.83947374  1
  H+  H70  1  0.14067912  0.10827645  0.32156622  1
  H+  H71  1  0.35680684  0.70775490  0.13086910  1
  H+  H72  1  0.91454389  0.09082708  0.57103616  1
  H+  H73  1  0.49658692  0.12563101  0.16603685  1
  H+  H74  1  0.78250401  0.39220071  0.14957521  1
  H+  H75  1  0.82973509  0.76661016  0.99926045  1
  H+  H76  1  0.46750284  0.58669191  0.17940640  1
  H+  H77  1  0.22646233  0.85841480  0.66444656  1
  H+  H78  1  0.78006914  0.93475544  0.01927968  1
  H+  H79  1  0.52300000  0.63410700  0.82703284  1
  H+  H80  1  0.50868207  0.62204400  0.34357909  1
  H+  H81  1  0.88254940  0.86272305  0.17994405  1
  H+  H82  1  0.45804751  0.36830153  0.84580100  1
  H+  H83  1  0.76233619  0.87222375  0.16460021  1
  H+  H84  1  0.36408636  0.21491199  0.33492373  1
  H+  H85  1  0.50421089  0.63053301  0.49496728  1
  H+  H86  1  0.39109420  0.36239566  0.51011466  1
  H+  H87  1  0.47075253  0.36417138  0.17963250  1
  H+  H88  1  0.88833454  0.53585217  0.51056707  1
  H+  H89  1  0.10846160  0.97452678  0.66792713  1
  H+  H90  1  0.35717464  0.46755761  0.49606498  1
  H+  H91  1  0.62439259  0.60344651  1.00389284  1
  H+  H92  1  0.63389940  0.60390386  0.17281648  1
  H+  H93  1  0.21474817  0.62333611  1.01026958  1
  H+  H94  1  0.00738217  0.62106204  -0.00929788  1
  H+  H95  1  0.33742576  -0.05761635  0.82021473  1
  H+  H96  1  0.90676027  0.24448555  0.17594814  1
  H+  H97  1  0.88832541  0.11716963  0.66687905  1
  H+  H98  1  0.22372503  0.10555134  0.84246521  1
  H+  H99  1  0.22520640  0.34278431  0.50123775  1
  H+  H100  1  0.36374313  0.75781168  0.66815763  1
  H+  H101  1  0.29804535  0.14161848  0.19159995  1
  H+  H102  1  0.35606229  0.60867322  0.68054790  1
  H+  H103  1  0.03356797  0.62872285  0.81596176  1
  H+  H104  1  0.87189050  0.77225597  0.85194821  1
  H+  H105  1  0.09269118  0.42065883  0.09819903  1
  H+  H106  1  0.09271083  0.66709277  0.38836288  1
  H+  H107  1  0.47487535  0.60229941  0.65990965  1
  H+  H108  1  0.36707042  0.36478977  0.84569825  1
  H+  H109  1  0.77125187  0.63788856  0.68316460  1
  H+  H110  1  0.82586647  0.08607806  0.14964883  1
  H+  H111  1  0.38492443  0.51192788  0.65968470  1
  H+  H112  1  0.64241477  0.35905693  0.17154039  1
  H+  H113  1  0.38833468  0.60030187  0.99512318  1
  H+  H114  1  0.13359328  0.75639017  0.83980497  1
  H+  H115  1  0.88260335  0.41771825  0.16115947  1
  H+  H116  1  0.61975636  0.13169397  0.49388898  1
  H+  H117  1  0.84577439  0.42011008  0.44178861  1
  H+  H118  1  0.09615198  0.66694376  0.75932714  1
  H+  H119  1  0.62196865  0.20242975  0.33793427  1
  H+  H120  1  0.34931695  0.36845316  0.34133914  1
  H+  H121  1  0.88337619  0.52850344  0.16645573  1
  H+  H122  1  0.61441515  0.37326927  0.84137247  1
  H+  H123  1  0.89457020  1.03901586  0.50885199  1
  H+  H124  1  0.02056899  0.13949176  -0.00041344  1
  H+  H125  1  0.10675458  0.61716878  0.99411244  1
  H+  H126  1  0.37704008  0.36000726  0.17280233  1
  H+  H127  1  0.12912957  0.77506730  0.15829437  1
  H+  H128  1  0.14735330  0.29010458  0.99523910  1
  H+  H129  1  0.75731684  0.62400731  0.01394838  1
  H+  H130  1  0.78547998  0.14910758  0.67687692  1
  H+  H131  1  0.64034699  0.77547288  0.82627899  1
  H+  H132  1  0.10467509  0.71387536  -0.00817609  1
  H+  H133  1  0.46936346  0.10489642  0.98373431  1
  H+  H134  1  0.53420378  0.88218467  0.00847461  1
  H+  H135  1  0.99939046  0.37025382  0.31965543  1
  H+  H136  1  0.89589689  0.36345433  0.51540788  1
  H+  H137  1  0.20325079  0.87669152  0.51626844  1
  H+  H138  1  0.37488673  0.59561820  0.33417297  1
  H+  H139  1  0.39959531  0.85803656  0.52123152  1
  H+  H140  1  0.87829648  0.23545766  0.67653037  1
  H+  H141  1  0.78055422  0.38916107  0.49692078  1
  H+  H142  1  0.88857501  0.25782814  0.15015067  1
  H+  H143  1  0.36732421  0.38397120  0.01377454  1
  H+  H144  1  0.13359069  0.38705651  0.46847109  1
  H+  H145  1  0.11915866  0.47835858  0.67407695  1
  H+  H146  1  0.16082630  0.31752506  0.55577210  1
  H+  H147  1  0.61613664  0.51626345  0.51353896  1
  H+  H148  1  0.11116338  1.00289084  0.16211347  1
  H+  H149  1  0.57370330  0.32153107  0.36562444  1
  H+  H150  1  0.28137752  0.87426682  1.00612298  1
  H+  H151  1  0.63583147  0.62642903  0.32861413  1
  H+  H152  1  0.41357790  0.06595584  0.80835140  1
  H+  H153  1  0.59359219  -0.08801345  0.09687412  1
  H+  H154  1  0.36222647  0.96800454  -0.00030918  1
  H+  H155  1  0.10905953  0.64276163  0.66718214  1
  H+  H156  1  0.61006817  0.95588933  0.16198926  1
  H+  H157  1  0.77664427  0.44094760  0.37433322  1
  H+  H158  1  0.36776623  0.62963258  0.83871697  1
  H+  H159  1  0.26760452  0.63299821  0.84061344  1
  H+  H160  1  0.57407647  0.89960084  0.40010818  1
  H+  H161  1  0.60574387  0.46591992  1.00614947  1
  H+  H162  1  0.93426999  0.09708862  0.92886241  1
  H+  H163  1  0.26443042  0.56143576  0.70948123  1
  H+  H164  1  0.74514039  0.39657588  0.65794060  1
  H+  H165  1  0.11646073  0.63733127  0.16448036  1
  H+  H166  1  0.90316799  0.52273501  0.83491530  1
  H+  H167  1  0.72682121  0.11076630  0.16741691  1
  H+  H168  1  0.62271570  0.75223700  0.51048766  1
  H+  H169  1  0.49331844  0.12050498  0.51551513  1
  H+  H170  1  0.62060793  0.89392918  0.82466797  1
  H+  H171  1  0.84319538  0.89971867  1.01069066  1
  H+  H172  1  0.46554880  0.36624933  0.66943505  1
  H+  H173  1  0.13077822  0.40097129  0.00648302  1
  H+  H174  1  0.97651040  0.88055848  0.50842089  1
  H+  H175  1  0.88023773  0.89175224  0.34642497  1
  H+  H176  1  0.77531974  0.12986747  0.34263036  1
  H+  H177  1  0.88858040  0.27213968  0.51375014  1
  H+  H178  1  0.62269989  0.88263342  0.00198370  1
  H+  H179  1  0.39442255  0.86377038  0.84932356  1
  H+  H180  1  0.40941607  0.81752523  0.58267876  1
  H+  H181  1  0.38860799  0.15416934  0.49564254  1
  H+  H182  1  0.99670196  0.36032361  0.65942488  1
  H+  H183  1  0.38585155  0.83768244  0.30084854  1
  H+  H184  1  0.64801385  0.11958815  0.66389689  1
  H+  H185  1  0.60395014  0.69991975  0.15829781  1
  H+  H186  1  0.97970114  0.61185817  0.32130944  1
  H+  H187  1  0.86120263  0.63738781  0.83145911  1
  H+  H188  1  0.23802455  0.37428457  0.00241594  1
  H+  H189  1  0.13704495  0.76681138  0.31260044  1
  H+  H190  1  1.00189507  0.41518502  0.17738967  1
  H+  H191  1  0.37166557  0.97082333  0.30786707  1
  H+  H192  1  0.63813525  0.36188538  0.49782401  1
  H+  H193  1  0.53740163  0.15638338  0.83110251  1
  H+  H194  1  0.13774417  0.86572065  0.66306966  1
  H+  H195  1  0.35476508  0.37662798  0.67235909  1
  H+  H196  1  0.19316463  0.09350152  0.14726420  1
  H+  H197  1  0.09458144  0.12487861  0.15421671  1
  H+  H198  1  1.02237027  0.14060143  0.67000594  1
  H+  H199  1  0.11794818  0.87827530  0.81880966  1
  H+  H200  1  0.35952813  0.84829040  0.66897988  1
  H+  H201  1  0.10525677  0.41517130  0.73277873  1
  H+  H202  1  0.47799510  0.82772186  0.16399102  1
  H+  H203  1  1.02893524  0.63671120  0.15810621  1
  H+  H204  1  0.13728678  0.52432819  -0.00198037  1
  H+  H205  1  0.10531289  0.61663047  0.33376746  1
  H+  H206  1  0.40234366  0.86409412  0.00514595  1
  H+  H207  1  0.63037492  0.74573478  -0.02285480  1
  H+  H208  1  0.90026099  0.28290903  0.99295755  1
  H+  H209  1  0.62609287  0.98556193  0.82258022  1
  H+  H210  1  0.10147601  0.21797889  0.15762317  1
  H+  H211  1  0.76272650  0.62427832  0.16434903  1
  H+  H212  1  0.85822600  0.73035174  0.67938677  1
  H+  H213  1  0.88632009  0.23726208  0.82969944  1
  H+  H214  1  0.46182416  0.36500501  0.32938517  1
  H+  H215  1  0.22585431  0.85435890  0.30584522  1
  H+  H216  1  0.26307562  0.61534600  0.34525795  1
  H+  H217  1  0.72040937  0.60874005  0.84850862  1
  H+  H218  1  0.03796790  0.39565234  0.00545392  1
  H+  H219  1  0.88479924  0.02576494  0.66471188  1
  H+  H220  1  0.57814616  0.33619826  0.65138223  1
  H+  H221  1  0.62896806  0.83674598  0.16546140  1
  H+  H222  1  0.39354261  0.27415342  0.50673972  1
  H+  H223  1  0.88679527  0.62025001  0.66793048  1
  H+  H224  1  0.87559226  0.65485179  0.49570893  1
  H+  H225  1  0.37039028  0.60233794  0.50966882  1
  H+  H226  1  0.14506108  0.36545658  0.65110175  1
  H+  H227  1  0.61443523  0.22590633  0.14405578  1
  H+  H228  1  0.22789830  0.60764737  0.16869839  1
  H+  H229  1  0.35681258  0.71892576  0.50079948  1
  H+  H230  1  0.39203301  0.88010245  0.15651240  1
  H+  H231  1  0.11135933  0.14046874  0.66857278  1
  H+  H232  1  0.21705535  0.61582077  0.65178809  1
  H+  H233  1  0.52074026  0.38102867  0.49983666  1
  H+  H234  1  0.35456144  0.23369323  0.82733436  1
  H+  H235  1  0.61808719  0.87875748  0.49804355  1
  H+  H236  1  0.25889483  0.40529901  0.81842259  1
  H+  H237  1  0.22079592  0.11448144  0.65284945  1
  H+  H238  1  0.78021582  0.89712189  0.82450198  1
  H+  H239  1  0.90263908  0.04266510  0.99323694  1
  H+  H240  1  0.64467172  0.02523341  0.98593058  1
  H+  H241  1  0.39193044  1.10819952  0.32103996  1
  H+  H242  1  0.87546706  0.01111009  0.18128417  1
  H+  H243  1  -0.02575355  0.86309368  0.66316754  1
  H+  H244  1  0.62047554  0.84237515  0.67052662  1
  H+  H245  1  0.14285017  0.84519811  0.98913152  1
  H+  H246  1  0.72759062  0.11053352  0.50678740  1
  H+  H247  1  0.13076589  0.26611799  0.33217902  1
  H+  H248  1  0.15786142  0.31871845  0.23162919  1
  H+  H249  1  0.48199153  0.10660927  0.32497638  1
  H+  H250  1  0.83640811  0.66662933  0.41326438  1
  H+  H251  1  0.21751305  0.60461750  0.50783587  1
  H+  H252  1  0.61589356  0.34974977  0.38161384  1
  H+  H253  1  0.86042688  0.88685099  0.67422920  1
  H+  H254  1  0.78132391  0.91702240  0.48254388  1
  H+  H255  1  0.38352856  0.52285570  0.84176584  1
  H+  H256  1  0.13181058  0.47446545  0.47861687  1
  H+  H257  1  0.92952839  0.37521472  0.84028794  1
  H+  H258  1  0.22400112  0.84104906  0.83843472  1
  H+  H259  1  0.59022669  0.62470721  0.49796849  1
  H+  H260  1  0.86935504  0.14653813  -0.00046623  1
  H+  H261  1  0.58453728  0.15321128  0.40174886  1
  H+  H262  1  0.35672052  0.22024553  0.67341218  1
  H+  H263  1  0.13762249  0.27297233  0.65254184  1
  H+  H264  1  0.59753607  0.47709109  0.83712480  1
  H+  H265  1  0.77797157  0.14199477  -0.00309404  1
  H+  H266  1  0.61460452  0.26048330  -0.01021472  1
  H+  H267  1  0.46994200  0.83670661  0.32121357  1
  H+  H268  1  0.89797001  0.77326374  0.33212138  1
  H+  H269  1  0.21901864  0.34883187  0.17336214  1
  H+  H270  1  0.61787229  0.84348497  0.31699778  1
  H+  H271  1  0.72435722  0.62255392  0.33250464  1
  H+  H272  1  0.13793180  0.36019914  0.32558721  1
  H+  H273  1  0.50384554  0.85882450  0.67907957  1
  H+  H274  1  0.62147551  0.22298597  0.48911632  1
  H+  H275  1  0.87602045  0.74582976  0.49136510  1
  H+  H276  1  0.92580293  0.41684706  0.67770863  1
  H+  H277  1  0.89328456  0.11238774  0.33192261  1
  H+  H278  1  0.35024979  0.73638396  1.03405102  1
  H+  H279  1  0.40471493  0.13444885  0.17433023  1
  H+  H280  1  0.87926480  0.86449421  0.84723322  1
  H+  H281  1  0.37470792  0.50628955  0.33397610  1
  H+  H282  1  0.35489561  0.12415282  1.00509174  1
  H+  H283  1  0.61055357  0.13168954  -0.00633625  1
  H+  H284  1  0.21784702  0.11115527  0.00092450  1
  H+  H285  1  0.34922870  0.95005393  0.67990481  1
  H+  H286  1  0.76980590  0.88372791  0.67783777  1
  H+  H287  1  0.38165575  0.26424740  -0.00422402  1
  H+  H288  1  0.80122688  0.11963085  0.08955987  1
  H+  H289  1  0.64362762  0.32819990  0.93211051  1
  H+  H290  1  0.58663500  0.16847055  0.73841680  1
  H+  H291  1  0.08768683  0.19236149  0.76003774  1
  H+  H292  1  0.88071516  0.98091063  0.34249470  1
  H+  H293  1  0.57692768  0.15524945  0.05385905  1
  H+  H294  1  0.35157599  0.70552669  0.33896132  1
  H+  H295  1  0.37179702  0.92554757  0.10511018  1
  H+  H296  1  0.88608798  0.87588412  0.50947765  1
  H+  H297  1  0.86958420  0.56563671  0.94347520  1
  H+  H298  1  0.16786008  0.81467895  0.92736419  1
  H+  H299  1  0.57999475  0.65545531  0.76637403  1
  H+  H300  1  0.73101647  0.18576413  0.20844635  1
  H+  H301  1  0.14904508  0.82987007  0.57440102  1
  H+  H302  1  0.95073296  0.59009431  0.88823779  1
  H+  H303  1  0.61162610  0.71692483  0.67421319  1
  H+  H304  1  0.91990634  0.83639904  0.23663600  1
  H+  H305  1  0.85553620  0.81859560  0.93457084  1
  H+  H306  1  0.27656485  0.12559257  0.33325017  1
  H+  H307  1  0.84956252  0.17842249  0.76945809  1
  H+  H308  1  0.32489564  0.66076974  0.43929071  1
  H+  H309  1  0.91376479  0.58690003  0.22788635  1
  H+  H310  1  0.32740717  0.17238499  0.76736774  1
  H+  H311  1  0.91967907  0.08453819  0.27007869  1
  H+  H312  1  0.39483003  0.04625337  0.51833595  1
  H+  H313  1  0.67385860  0.08568288  0.92630165  1
  H+  H314  1  0.67953332  0.09372332  0.60455530  1
  H+  H315  1  0.57217283  0.70651083  0.04496729  1
  H+  H316  1  0.65390511  0.32398660  0.55688788  1
  H+  H317  1  0.71935387  0.81491996  0.52793238  1
  H+  H318  1  0.39212999  0.13577689  0.83175648  1
  H+  H319  1  0.40852954  0.56261232  0.23854270  1
  H+  H320  1  0.33159727  0.40680475  0.43695992  1
  H+  H321  1  0.82802051  0.66818475  0.77545773  1
  H+  H322  1  0.41610672  0.78704722  0.22113674  1
  H+  H323  1  0.85073824  0.42359993  0.06186823  1
  H+  H324  1  0.91581711  0.50358361  0.68048909  1
  H+  H325  1  0.89795337  0.44189084  0.76235694  1
  H+  H326  1  0.12431810  0.04746276  0.49391709  1
  H+  H327  1  0.52079323  0.25987026  0.60888221  1
  H+  H328  1  0.64881134  0.32273687  0.30909611  1
  H+  H329  1  0.40500298  0.32664704  0.93744219  1
  H+  H330  1  0.43704194  0.09693479  0.23433347  1
  H+  H331  1  0.51365039  0.37563199  0.00460117  1
  H+  H332  1  0.65634267  0.81840796  0.61103529  1
  H+  H333  1  0.86090118  0.13718575  0.50217401  1
  H+  H334  1  0.07749141  0.16611325  0.06751674  1
  H+  H335  1  0.84267045  0.92670824  0.76798464  1
  H+  H336  1  0.40845908  0.07908396  0.92607323  1
  H+  H337  1  0.56949786  0.65918461  0.40301476  1
  H+  H338  1  0.32499386  0.41977939  0.76558298  1
  H+  H339  1  0.61640495  0.75519288  0.32046408  1
  H+  H340  1  0.66903038  0.82548335  0.88807480  1
  H+  H341  1  0.82820364  0.92036369  0.10976852  1
  H+  H342  1  0.72915092  0.80568920  0.96800696  1
  H+  H343  1  0.12053817  0.30344606  0.81622037  1
  H+  H344  1  0.35019152  0.90496134  0.36023399  1
  H+  H345  1  0.51426729  0.47068732  0.71707142  1
  H+  H346  1  0.65061219  0.80590635  0.22756388  1
  H+  H347  1  0.91467374  0.59484323  0.56888840  1
  H+  H348  1  0.15364032  0.57810265  0.59526907  1
  H+  H349  1  0.16298599  0.09620179  0.59301067  1
  H+  H350  1  0.57096706  0.89981900  0.73384971  1
  H+  H351  1  0.33079214  0.15314966  0.06749900  1
  H+  H352  1  0.57518923  0.42429184  0.44026896  1
  H+  H353  1  0.65581470  0.57819678  0.94310785  1
  H+  H354  1  0.60775136  0.36219841  0.99778664  1
  H+  H355  1  0.67082166  0.07685429  0.27161891  1
  H+  H356  1  0.35175179  0.17010506  0.43348687  1
  H+  H357  1  0.57000744  0.63343026  0.10185857  1
  H+  H358  1  0.87995236  0.50863824  -0.00241590  1
  H+  H359  1  0.67252241  0.59209052  0.23675405  1
  H+  H360  1  0.94135480  0.38057960  0.23505952  1
  H+  H361  1  0.68029758  0.31682124  0.21558091  1
  H+  H362  1  0.33270286  0.65050081  0.77570563  1
  H+  H363  1  0.18327642  0.60017687  0.90471380  1
  H+  H364  1  1.01309894  0.36412330  0.83989688  1
  H+  H365  1  0.36854654  0.23397605  0.16886470  1
  H+  H366  1  0.27919177  0.99038330  0.45162751  1
  H+  H367  1  0.84747338  0.92878409  0.42961744  1
  H+  H368  1  0.16190753  0.07532616  0.25992461  1
  H+  H369  1  0.83203636  0.16502972  0.44095304  1
  H+  H370  1  0.41571493  0.07915869  0.61508485  1
  H+  H371  1  0.40776159  0.32637009  0.26728316  1
  H+  H372  1  0.63875538  0.01975992  0.50881965  1
  H+  H373  1  0.09663957  0.87920417  0.14937348  1
  H+  H374  1  0.11819514  0.13715592  0.00639118  1
  H+  H375  1  0.82099020  0.65440083  0.09892413  1
  H+  H376  1  0.16278877  0.07446579  0.89966285  1
  H+  H377  1  0.97185061  0.29045039  0.27886466  1
  H+  H378  1  0.62394099  0.24497231  0.82845353  1
  H+  H379  1  0.04914708  0.92173729  0.06718776  1
  H+  H380  1  0.41998631  0.57867569  0.90380700  1
  H+  H381  1  0.08425822  0.92399685  0.43430401  1
  H+  H382  1  0.11889548  0.96679196  0.82287500  1
  H+  H383  1  0.94146953  0.34058053  0.93327315  1
  O2-  O384  1  0.06865178  0.15913832  0.13835625  1
  O2-  O385  1  0.10010403  0.14054352  0.48203522  1
  O2-  O386  1  0.09085289  0.20727814  0.80398744  1
  O2-  O387  1  0.09033734  0.41909924  0.14379275  1
  O2-  O388  1  0.13054552  0.43413879  0.44755056  1
  O2-  O389  1  0.10263411  0.40440850  0.80470054  1
  O2-  O390  1  0.08918241  0.66695608  0.14481889  1
  O2-  O391  1  0.13392908  0.70051880  0.46241949  1
  O2-  O392  1  0.09542030  0.65981953  0.80524338  1
  O2-  O393  1  0.06494418  0.91174842  0.13879771  1
  O2-  O394  1  0.08201834  0.93306966  0.47885019  1
  O2-  O395  1  0.09269015  0.91072237  0.80091171  1
  O2-  O396  1  0.34131379  0.16932503  0.15975321  1
  O2-  O397  1  0.35485884  0.17863447  0.47785632  1
  O2-  O398  1  0.33317948  0.17372424  0.81285531  1
  O2-  O399  1  0.32433707  0.40156083  0.15189554  1
  O2-  O400  1  0.33396718  0.40696152  0.48235948  1
  O2-  O401  1  0.32090828  0.42364655  0.81065603  1
  O2-  O402  1  0.31704948  0.65585953  0.10536174  1
  O2-  O403  1  0.32172106  0.65927634  0.48479035  1
  O2-  O404  1  0.33596228  0.65901715  0.82096437  1
  O2-  O405  1  0.39811950  0.93584170  0.14565173  1
  O2-  O406  1  0.29932930  0.96201051  0.47959382  1
  O2-  O407  1  0.31760573  0.88458271  0.80548855  1
  O2-  O408  1  0.58171032  0.16271486  0.13400167  1
  O2-  O409  1  0.58835297  0.16125210  0.47697643  1
  O2-  O410  1  0.59792244  0.18369658  0.81658466  1
  O2-  O411  1  0.58539080  0.41196559  0.19131825  1
  O2-  O412  1  0.58176617  0.41334637  0.48346873  1
  O2-  O413  1  0.56381602  0.41675022  0.82139173  1
  O2-  O414  1  0.57555228  0.63707414  0.14775672  1
  O2-  O415  1  0.56528782  0.65999140  0.48034677  1
  O2-  O416  1  0.58320124  0.66185597  0.81155258  1
  O2-  O417  1  0.58530706  0.90040064  0.14177420  1
  O2-  O418  1  0.58538831  0.90600469  0.48347072  1
  O2-  O419  1  0.58938636  0.92408077  0.81173536  1
  O2-  O420  1  0.77695950  0.08405377  0.12681860  1
  O2-  O421  1  0.82724408  0.16522291  0.48581379  1
  O2-  O422  1  0.84900040  0.17667480  0.81541251  1
  O2-  O423  1  0.84262647  0.43231107  0.13739175  1
  O2-  O424  1  0.84269281  0.42194248  0.48635289  1
  O2-  O425  1  0.87677470  0.42783740  0.80931699  1
  O2-  O426  1  0.82301244  0.65182355  0.14566408  1
  O2-  O427  1  0.84974841  0.68647925  0.47464769  1
  O2-  O428  1  0.82528023  0.66279334  0.82102066  1
  O2-  O429  1  0.82467628  0.91108459  0.15434208  1
  O2-  O430  1  0.84040852  0.93040319  0.47669152  1
  O2-  O431  1  0.84243434  0.92872807  0.81351906  1
  O2-  O432  1  0.14457341  0.06769751  0.17517788  1
  O2-  O433  1  0.15518733  0.10886396  0.50727016  1
  O2-  O434  1  0.16434392  0.06577150  0.85577832  1
  O2-  O435  1  0.15706400  0.31789727  0.18632212  1
  O2-  O436  1  0.16265420  0.30955680  0.51084402  1
  O2-  O437  1  0.15253020  0.36765944  0.82768598  1
  O2-  O438  1  0.17444666  0.57638152  0.19279877  1
  O2-  O439  1  0.15540649  0.57147928  0.51989730  1
  O2-  O440  1  0.19168923  0.60351520  0.85991713  1
  O2-  O441  1  0.14982877  0.83606947  0.17006600  1
  O2-  O442  1  0.14467038  0.83286235  0.52826138  1
  O2-  O443  1  0.16517559  0.81533581  0.85800110  1
  O2-  O444  1  0.43805634  0.10518799  0.18787760  1
  O2-  O445  1  0.43667866  0.10230445  0.53576332  1
  O2-  O446  1  0.42604797  0.10538253  0.84229040  1
  O2-  O447  1  0.40865355  0.32919813  0.18909075  1
  O2-  O448  1  0.42293380  0.33360610  0.52560955  1
  O2-  O449  1  0.39749930  0.33480058  0.86091563  1
  O2-  O450  1  0.40722036  0.55674343  0.19364623  1
  O2-  O451  1  0.40291837  0.57312557  0.52207346  1
  O2-  O452  1  0.41800871  0.58298560  0.85807524  1
  O2-  O453  1  0.41729479  0.78932225  0.17602329  1
  O2-  O454  1  0.41944025  0.81994045  0.53603540  1
  O2-  O455  1  0.43652190  0.85916374  0.87554551  1
  O2-  O456  1  0.69045493  0.12730510  0.19549187  1
  O2-  O457  1  0.66559636  0.08083939  0.52115453  1
  O2-  O458  1  0.68256363  0.09512685  0.85048938  1
  O2-  O459  1  0.67276629  0.32533780  0.17163509  1
  O2-  O460  1  0.66826392  0.33122097  0.51321330  1
  O2-  O461  1  0.65115394  0.34750120  0.85724623  1
  O2-  O462  1  0.67081703  0.58077669  0.19179526  1
  O2-  O463  1  0.63278444  0.57491019  0.52804917  1
  O2-  O464  1  0.66006556  0.58036972  0.86426619  1
  O2-  O465  1  0.65679698  0.80481333  0.18131331  1
  O2-  O466  1  0.66338523  0.81143497  0.52853013  1
  O2-  O467  1  0.67088843  0.83478000  0.84317612  1
  O2-  O468  1  0.90281015  0.07399331  0.19172955  1
  O2-  O469  1  0.91434079  0.09663801  0.52600354  1
  O2-  O470  1  0.92864657  0.09345954  0.85790232  1
  O2-  O471  1  0.95574463  0.41900522  0.19981297  1
  O2-  O472  1  0.92400493  0.33151529  0.52969124  1
  O2-  O473  1  0.95232128  0.33960383  0.85768851  1
  O2-  O474  1  0.91084776  0.58938578  0.18257219  1
  O2-  O475  1  0.91494051  0.59633796  0.52365646  1
  O2-  O476  1  0.92839830  0.58521673  0.84710765  1
  O2-  O477  1  0.91740568  0.83620242  0.19167443  1
  O2-  O478  1  0.91695333  0.84629002  0.52464604  1
  O2-  O479  1  0.89392524  0.82801062  0.87298491  1
  O2-  O480  1  0.17049153  0.07825420  0.30455337  1
  O2-  O481  1  0.16062346  0.08611247  0.63733920  1
  O2-  O482  1  0.15813278  0.09059458  0.98618630  1
  O2-  O483  1  0.16216935  0.32429500  0.31250895  1
  O2-  O484  1  0.17192661  0.33235412  0.63470753  1
  O2-  O485  1  0.17881740  0.35148196  0.98591796  1
  O2-  O486  1  0.15384301  0.54662458  0.31630102  1
  O2-  O487  1  0.15594749  0.58417367  0.64093379  1
  O2-  O488  1  0.16243127  0.58741962  0.98431587  1
  O2-  O489  1  0.16289063  0.82811329  0.30113274  1
  O2-  O490  1  0.16474598  0.83258919  0.64674490  1
  O2-  O491  1  0.16658715  0.81020178  0.97459223  1
  O2-  O492  1  0.42522811  0.08136160  0.30327204  1
  O2-  O493  1  0.40586217  0.07230843  0.65968226  1
  O2-  O494  1  0.40777007  0.07662514  0.97102552  1
  O2-  O495  1  0.40569225  0.32035368  0.31261830  1
  O2-  O496  1  0.40898678  0.32386964  0.64925242  1
  O2-  O497  1  0.41326038  0.32533275  0.98263219  1
  O2-  O498  1  0.40691945  0.56710715  0.31937670  1
  O2-  O499  1  0.41365591  0.57394263  0.64619211  1
  O2-  O500  1  0.42106800  0.57415725  0.98023901  1
  O2-  O501  1  0.41230666  0.80096609  0.30162535  1
  O2-  O502  1  0.39368332  0.81597502  0.65188353  1
  O2-  O503  1  0.42854926  0.82810446  0.99380835  1
  O2-  O504  1  0.66790324  0.06680195  0.31613327  1
  O2-  O505  1  0.68802113  0.10120456  0.64900289  1
  O2-  O506  1  0.67085917  0.08577592  0.97213629  1
  O2-  O507  1  0.68651606  0.30229599  0.29348074  1
  O2-  O508  1  0.57813970  0.29085149  0.62674976  1
  O2-  O509  1  0.64037549  0.32299660  0.97769358  1
  O2-  O510  1  0.66663622  0.59604923  0.31285231  1
  O2-  O511  1  0.66968852  0.55763684  0.65223159  1
  O2-  O512  1  0.65452866  0.57294355  0.98861844  1
  O2-  O513  1  0.64277701  0.81071583  0.29858524  1
  O2-  O514  1  0.65806046  0.81744189  0.65602162  1
  O2-  O515  1  0.67332220  0.80533219  0.96431044  1
  O2-  O516  1  0.92755206  0.08733919  0.31521359  1
  O2-  O517  1  0.91718143  0.08611429  0.64984637  1
  O2-  O518  1  0.93755141  0.10185293  0.97570577  1
  O2-  O519  1  0.94790134  0.31995758  0.30193972  1
  O2-  O520  1  0.93528966  0.33658834  0.64810517  1
  O2-  O521  1  0.93577760  0.34321874  0.97875786  1
  O2-  O522  1  0.91844532  0.58415507  0.30695359  1
  O2-  O523  1  0.91842252  0.59376616  0.64914611  1
  O2-  O524  1  0.90083119  0.57426737  0.98157947  1
  O2-  O525  1  0.92682999  0.83222627  0.31737113  1
  O2-  O526  1  0.91247666  0.83291524  0.64968172  1
  O2-  O527  1  0.82763087  0.81313611  0.97718632  1
  O2-  O528  1  0.08357756  0.16862894  0.02070011  1
  O2-  O529  1  0.09156933  0.16073849  0.35548005  1
  O2-  O530  1  0.08426091  0.17420364  0.68254783  1
  O2-  O531  1  0.09820972  0.43072686  0.02118993  1
  O2-  O532  1  0.11185739  0.45421703  0.33336570  1
  O2-  O533  1  0.10318174  0.41920217  0.68623559  1
  O2-  O534  1  0.06989150  0.64975014  0.00242746  1
  O2-  O535  1  0.08317204  0.65569876  0.34389140  1
  O2-  O536  1  0.08354290  0.67457245  0.68712058  1
  O2-  O537  1  0.04285233  0.94032997  0.02494287  1
  O2-  O538  1  0.09200559  0.91507115  0.35468067  1
  O2-  O539  1  0.08076554  0.91464106  0.68305620  1
  O2-  O540  1  0.32571075  0.15441685  0.02303570  1
  O2-  O541  1  0.33753495  0.15333239  0.34736995  1
  O2-  O542  1  0.32222089  0.16046177  0.68980072  1
  O2-  O543  1  0.34040990  0.41637221  0.03040701  1
  O2-  O544  1  0.32363525  0.40177254  0.35867602  1
  O2-  O545  1  0.32829612  0.41161989  0.68528600  1
  O2-  O546  1  0.29466221  0.69470366  0.05439405  1
  O2-  O547  1  0.32244774  0.64931701  0.36120803  1
  O2-  O548  1  0.31198187  0.61947575  0.70180743  1
  O2-  O549  1  0.34157223  0.91106851  0.01883139  1
  O2-  O550  1  0.34057468  0.90774035  0.31697346  1
  O2-  O551  1  0.31641321  0.88919520  0.69182850  1
  O2-  O552  1  0.57634036  0.15846838  0.00863938  1
  O2-  O553  1  0.58158124  0.14596463  0.35589299  1
  O2-  O554  1  0.57414954  0.15527963  0.69424281  1
  O2-  O555  1  0.57590750  0.40341477  0.01800824  1
  O2-  O556  1  0.54385704  0.45507493  0.36867388  1
  O2-  O557  1  0.54530152  0.44028778  0.70781312  1
  O2-  O558  1  0.56629823  0.65440984  0.02678769  1
  O2-  O559  1  0.57016946  0.65462443  0.35757075  1
  O2-  O560  1  0.58021373  0.65373060  0.68656029  1
  O2-  O561  1  0.59757269  0.91553034  0.01926641  1
  O2-  O562  1  0.56870858  0.89859120  0.35507693  1
  O2-  O563  1  0.56456236  0.88147320  0.69061055  1
  O2-  O564  1  0.83569105  0.17136451  0.01695745  1
  O2-  O565  1  0.83520138  0.16082564  0.35877746  1
  O2-  O566  1  0.84575985  0.17589871  0.69388754  1
  O2-  O567  1  0.85261179  0.42586362  0.01637246  1
  O2-  O568  1  0.81847169  0.42828274  0.35593880  1
  O2-  O569  1  0.92989583  0.46470473  0.70374162  1
  O2-  O570  1  0.81802414  0.65966250  0.02928232  1
  O2-  O571  1  0.81926154  0.63766678  0.36781659  1
  O2-  O572  1  0.83131388  0.67162651  0.69817322  1
  O2-  O573  1  0.83844199  0.94866448  0.02973901  1
  O2-  O574  1  0.85219318  0.92340889  0.36191852  1
  O2-  O575  1  0.83131220  0.91808901  0.68998721  1
