# generated using pymatgen
data_H2O
_symmetry_space_group_name_H-M   'P 1'
_cell_length_a   17.99979516
_cell_length_b   17.99124869
_cell_length_c   22.01063380
_cell_angle_alpha   89.97999844
_cell_angle_beta   90.00931049
_cell_angle_gamma   119.99156782
_symmetry_Int_Tables_number   1
_chemical_formula_structural   H2O
_chemical_formula_sum   'H384 O192'
_cell_volume   6173.46397498
_cell_formula_units_Z   192
loop_
 _symmetry_equiv_pos_site_id
 _symmetry_equiv_pos_as_xyz
  1  'x, y, z'
loop_
 _atom_type_symbol
 _atom_type_oxidation_number
  H+  1.0
  O2-  -2.0
loop_
 _atom_site_type_symbol
 _atom_site_label
 _atom_site_symmetry_multiplicity
 _atom_site_fract_x
 _atom_site_fract_y
 _atom_site_fract_z
 _atom_site_occupancy
  H+  H0  1  0.15617346  0.26105594  0.52773435  1
  H+  H1  1  0.05877386  0.35544663  0.35430029  1
  H+  H2  1  0.51266188  0.63423837  0.34718299  1
  H+  H3  1  0.94532319  0.34922154  0.66336779  1
  H+  H4  1  0.36382189  0.95857089  0.82888520  1
  H+  H5  1  0.90817539  0.86236568  0.80987139  1
  H+  H6  1  0.51596889  0.87215026  0.17574665  1
  H+  H7  1  0.61523283  0.12957241  0.59378800  1
  H+  H8  1  0.52988243  0.38821076  0.49139271  1
  H+  H9  1  0.38255718  0.84692479  0.18496276  1
  H+  H10  1  0.36827966  0.13055507  0.34167532  1
  H+  H11  1  0.41297395  0.09759760  1.01037230  1
  H+  H12  1  0.91739279  0.10388460  0.89234386  1
  H+  H13  1  0.49327001  0.09457900  0.85848589  1
  H+  H14  1  0.61117355  0.46490507  0.33520093  1
  H+  H15  1  0.94590677  0.53509444  0.30368048  1
  H+  H16  1  0.26352312  0.14368757  -0.00792265  1
  H+  H17  1  0.21932641  0.28235990  0.33264847  1
  H+  H18  1  0.86927075  0.11570162  0.00747673  1
  H+  H19  1  0.60323541  0.38054416  0.85906351  1
  H+  H20  1  0.12781551  0.76504763  -0.00680914  1
  H+  H21  1  0.88645382  0.51751101  0.98547165  1
  H+  H22  1  0.87201842  0.19538147  0.16372939  1
  H+  H23  1  0.67646272  0.59372430  0.91067124  1
  H+  H24  1  0.11933110  0.64376480  0.35175023  1
  H+  H25  1  0.61881235  -0.01324590  0.33562486  1
  H+  H26  1  0.11476671  -0.03273750  0.82704678  1
  H+  H27  1  0.21423432  0.36374490  0.83281779  1
  H+  H28  1  0.61468896  0.69670782  0.05688144  1
  H+  H29  1  0.35452996  0.95590035  0.01814826  1
  H+  H30  1  0.12519393  0.52211693  0.83860694  1
  H+  H31  1  0.46929111  0.35793349  0.32323695  1
  H+  H32  1  0.84718165  0.40355954  0.33528637  1
  H+  H33  1  0.85454369  0.62796898  0.99871543  1
  H+  H34  1  0.01721135  0.14448202  0.67206770  1
  H+  H35  1  0.06755687  0.30682621  0.62651191  1
  H+  H36  1  0.84731297  0.24084659  0.66678436  1
  H+  H37  1  0.35988677  0.20670401  0.65665246  1
  H+  H38  1  0.14193318  0.02693294  0.99168965  1
  H+  H39  1  0.28531273  0.26045493  0.76199591  1
  H+  H40  1  0.11906565  0.22352685  0.33433185  1
  H+  H41  1  0.36342005  0.72104100  0.34291365  1
  H+  H42  1  0.39165480  0.76785164  0.50527761  1
  H+  H43  1  0.93973403  0.03095213  0.30382890  1
  H+  H44  1  0.71677828  0.36647043  0.19791928  1
  H+  H45  1  0.63590924  0.11800839  0.32481742  1
  H+  H46  1  -0.04351425  0.58821484  0.54150287  1
  H+  H47  1  -0.00128830  0.09135204  0.16034879  1
  H+  H48  1  0.61338351  0.89519928  0.33477045  1
  H+  H49  1  0.17383450  0.14168915  0.30530281  1
  H+  H50  1  0.16780647  0.31110311  0.92214207  1
  H+  H51  1  0.65459468  0.82406434  0.26542582  1
  H+  H52  1  0.63156742  0.87695035  0.51018478  1
  H+  H53  1  0.21295589  0.60031210  0.99758392  1
  H+  H54  1  0.86360095  0.64587324  0.66625841  1
  H+  H55  1  0.14451143  0.85952363  0.51913482  1
  H+  H56  1  0.28177022  0.13371309  0.33437140  1
  H+  H57  1  0.61646457  0.48366673  0.48647470  1
  H+  H58  1  0.49676685  0.13916018  0.17773566  1
  H+  H59  1  0.37825660  0.40369345  0.15886291  1
  H+  H60  1  0.58880277  0.13867222  0.40436362  1
  H+  H61  1  0.35410404  0.95791927  0.16584724  1
  H+  H62  1  0.72862736  0.88853348  0.66007490  1
  H+  H63  1  0.04795157  0.89454189  0.31625169  1
  H+  H64  1  0.62811410  1.01944753  0.66006365  1
  H+  H65  1  0.40225467  0.10784749  0.66501158  1
  H+  H66  1  0.73850315  0.59960422  0.32757785  1
  H+  H67  1  0.88419723  0.27497719  0.83059449  1
  H+  H68  1  0.86151129  0.40479375  0.17411138  1
  H+  H69  1  0.59248849  0.72697018  0.34453365  1
  H+  H70  1  0.38370702  0.85309249  0.34017674  1
  H+  H71  1  0.71378103  0.86448594  0.51143088  1
  H+  H72  1  0.85443172  1.00303739  0.82240811  1
  H+  H73  1  0.85455060  1.00156033  0.67272649  1
  H+  H74  1  0.63698715  0.09527920  0.85140454  1
  H+  H75  1  0.32908375  0.40434703  0.43529412  1
  H+  H76  1  1.03485048  0.64934043  0.34864126  1
  H+  H77  1  0.51961089  0.40366998  0.99374216  1
  H+  H78  1  0.37208776  0.41243569  1.01205580  1
  H+  H79  1  0.97242482  0.60838146  0.99018744  1
  H+  H80  1  0.85763156  0.28241487  0.33358224  1
  H+  H81  1  0.88362469  0.54501611  0.18426777  1
  H+  H82  1  0.80005741  0.91691316  -0.00386169  1
  H+  H83  1  -0.01438814  0.18145068  0.31136959  1
  H+  H84  1  0.73477893  0.11404130  0.17607320  1
  H+  H85  1  0.97876480  0.85914571  0.16464802  1
  H+  H86  1  0.10291163  0.62713951  0.00553456  1
  H+  H87  1  0.68339249  0.58306657  0.26712543  1
  H+  H88  1  0.63139162  0.40205592  0.83189714  1
  H+  H89  1  0.72271291  0.61226076  0.49805823  1
  H+  H90  1  0.34027492  0.71379398  0.01066466  1
  H+  H91  1  0.74163307  0.38830364  0.65870414  1
  H+  H92  1  0.35240572  0.63308602  1.01448936  1
  H+  H93  1  0.64689971  0.12750662  0.17761202  1
  H+  H94  1  0.36868493  0.14934464  0.14507771  1
  H+  H95  1  0.69825154  0.34601396  0.33936111  1
  H+  H96  1  0.10450515  0.62849416  0.83544735  1
  H+  H97  1  0.59967823  0.21002968  0.35424320  1
  H+  H98  1  1.02072737  0.39028368  0.81921838  1
  H+  H99  1  0.24090676  0.10186727  0.51060725  1
  H+  H100  1  0.46383411  0.40473118  0.83156034  1
  H+  H101  1  0.98016270  0.40244884  0.31798337  1
  H+  H102  1  0.77993627  0.64567932  0.15143819  1
  H+  H103  1  0.60611905  0.73531160  0.82934599  1
  H+  H104  1  0.16903583  0.57348230  0.66371651  1
  H+  H105  1  0.62588712  0.23152452  0.16990369  1
  H+  H106  1  0.87346984  0.27258654  0.51338762  1
  H+  H107  1  0.65352163  0.89342781  0.15226937  1
  H+  H108  1  0.62802131  0.88022850  0.66509636  1
  H+  H109  1  0.38150780  0.54179636  0.85227285  1
  H+  H110  1  0.34989414  0.40739917  0.83800926  1
  H+  H111  1  0.63154642  0.52903145  -0.01961851  1
  H+  H112  1  0.85475577  0.75891092  0.98154873  1
  H+  H113  1  0.97090635  0.34596583  0.99002458  1
  H+  H114  1  0.34667244  0.70927926  0.17133119  1
  H+  H115  1  0.12362797  0.35886456  0.83031456  1
  H+  H116  1  0.07580140  0.89866029  0.73707531  1
  H+  H117  1  0.15451119  0.80491582  0.60878464  1
  H+  H118  1  0.68356470  0.91347986  -0.02827751  1
  H+  H119  1  0.59890675  -0.03514190  0.82205125  1
  H+  H120  1  0.85301833  0.95906659  0.48850672  1
  H+  H121  1  0.63779933  0.21837228  0.84818717  1
  H+  H122  1  0.35654166  0.84144748  -0.00800758  1
  H+  H123  1  0.10495205  0.22725606  0.81939386  1
  H+  H124  1  0.37790497  0.29456631  0.98931866  1
  H+  H125  1  0.70104574  0.84072448  0.32971976  1
  H+  H126  1  0.20802369  0.61697560  0.83352361  1
  H+  H127  1  0.10232784  0.12709642  1.01210544  1
  H+  H128  1  0.17947275  0.44315729  0.31418488  1
  H+  H129  1  0.63465276  0.54787700  0.83217417  1
  H+  H130  1  0.36712092  0.96463579  0.66830921  1
  H+  H131  1  0.27131158  0.63477890  0.34047457  1
  H+  H132  1  0.60867539  0.34380144  0.33756247  1
  H+  H133  1  0.12849203  0.52660785  0.33176769  1
  H+  H134  1  0.99360961  0.15222558  0.33161307  1
  H+  H135  1  0.73545594  0.36999091  1.02234893  1
  H+  H136  1  0.35084831  0.36697576  0.33479232  1
  H+  H137  1  0.00366506  0.09546383  0.01423856  1
  H+  H138  1  0.71680130  0.87876043  0.82859439  1
  H+  H139  1  0.26489506  0.71871834  0.76676674  1
  H+  H140  1  0.64149462  0.38552850  0.50419811  1
  H+  H141  1  0.47328042  0.60804403  0.50404987  1
  H+  H142  1  0.12975133  0.42330944  0.66606375  1
  H+  H143  1  0.62898481  0.66701904  -0.00625330  1
  H+  H144  1  0.85673701  0.61994339  0.82150645  1
  H+  H145  1  0.50878551  0.59048652  0.67327068  1
  H+  H146  1  0.27211033  0.63515425  0.49492929  1
  H+  H147  1  0.43641500  0.17802277  0.79536886  1
  H+  H148  1  0.59459087  -0.01050692  0.48462739  1
  H+  H149  1  0.47494065  -0.14225325  0.33273708  1
  H+  H150  1  0.66168043  0.35497791  1.06776115  1
  H+  H151  1  0.83136596  0.90246351  0.33478150  1
  H+  H152  1  0.87905593  0.13849791  0.66535293  1
  H+  H153  1  0.25871701  0.65395412  0.65133204  1
  H+  H154  1  0.06769501  0.70634779  0.50532305  1
  H+  H155  1  0.73438647  0.14416758  0.32482893  1
  H+  H156  1  0.44655469  0.84754887  0.99385829  1
  H+  H157  1  0.52674128  0.60318306  0.18758338  1
  H+  H158  1  0.35823004  -0.04486927  0.34742104  1
  H+  H159  1  0.09578172  0.46250223  0.00492582  1
  H+  H160  1  0.11897170  0.89482191  -0.00016669  1
  H+  H161  1  0.11111485  0.71746287  0.15706254  1
  H+  H162  1  0.87759563  0.63046703  0.35497150  1
  H+  H163  1  0.59102534  -0.05354893  1.00840995  1
  H+  H164  1  0.14609364  0.78071653  0.32672958  1
  H+  H165  1  0.06260571  0.45464439  0.66166374  1
  H+  H166  1  0.55244562  0.12974525  0.02130572  1
  H+  H167  1  0.39647683  0.60289865  0.65636682  1
  H+  H168  1  0.80032129  0.11828380  0.52032587  1
  H+  H169  1  0.23968701  0.35414829  0.51480407  1
  H+  H170  1  0.40042608  0.13515012  0.78494165  1
  H+  H171  1  0.42280410  0.14255829  0.50548465  1
  H+  H172  1  0.57553692  0.67208963  0.43645211  1
  H+  H173  1  0.32163604  0.19852130  0.75800915  1
  H+  H174  1  0.86543691  0.82209294  0.80499953  1
  H+  H175  1  0.68903713  0.13001850  0.47680642  1
  H+  H176  1  0.11116249  0.87536151  0.15446285  1
  H+  H177  1  0.11053576  0.72711644  0.83338525  1
  H+  H178  1  0.48494440  0.09601670  0.65835782  1
  H+  H179  1  0.10812150  0.22917973  0.66986618  1
  H+  H180  1  0.60232408  0.72570302  0.49922816  1
  H+  H181  1  0.73937761  0.38189883  0.50667640  1
  H+  H182  1  0.76341364  0.14255109  0.66993846  1
  H+  H183  1  0.61004643  0.39844954  0.17935826  1
  H+  H184  1  0.39353589  0.36056588  0.50000525  1
  H+  H185  1  0.11772338  0.10462431  0.83776991  1
  H+  H186  1  0.65010629  0.30238906  0.65615603  1
  H+  H187  1  0.09873028  0.24004293  0.17605858  1
  H+  H188  1  0.85065200  0.37892133  0.49936640  1
  H+  H189  1  0.62083874  0.41235997  0.67334811  1
  H+  H190  1  0.12362715  0.59867387  0.17633963  1
  H+  H191  1  0.21154528  0.12559266  0.83160696  1
  H+  H192  1  0.79976140  0.80389948  0.34732595  1
  H+  H193  1  0.22447797  0.11009744  0.15676341  1
  H+  H194  1  0.36017921  0.86962756  0.82619052  1
  H+  H195  1  0.52010282  0.88501538  0.66824629  1
  H+  H196  1  0.37931522  0.30978406  0.83149854  1
  H+  H197  1  0.10744808  0.46663509  0.16460605  1
  H+  H198  1  0.46268484  0.18810968  0.21627082  1
  H+  H199  1  0.35701309  0.17033570  -0.03237215  1
  H+  H200  1  0.88401521  0.31340844  0.13570668  1
  H+  H201  1  0.09719386  0.48406510  0.49347877  1
  H+  H202  1  0.25521758  0.34898561  0.68489522  1
  H+  H203  1  0.83327176  0.66068372  0.76398917  1
  H+  H204  1  0.66175337  0.81417352  0.98775751  1
  H+  H205  1  0.72951144  0.05652304  0.98812538  1
  H+  H206  1  0.89108742  0.51657232  0.83361767  1
  H+  H207  1  0.30355434  0.91326095  0.50838532  1
  H+  H208  1  0.98548053  0.63764530  0.63049724  1
  H+  H209  1  0.47664782  0.62260475  0.85324490  1
  H+  H210  1  0.12643302  0.11787927  0.53484996  1
  H+  H211  1  0.38404900  0.50963320  0.01626519  1
  H+  H212  1  0.67316824  0.02869487  0.92727735  1
  H+  H213  1  0.37815045  0.89207240  0.50240298  1
  H+  H214  1  1.04028549  0.86692855  0.83689528  1
  H+  H215  1  0.98609213  0.08472250  0.53579341  1
  H+  H216  1  0.82480175  0.47518909  0.34827006  1
  H+  H217  1  0.21716334  0.84536364  0.17239364  1
  H+  H218  1  0.14020528  0.08965953  0.66786546  1
  H+  H219  1  0.85990165  0.38747479  0.66335770  1
  H+  H220  1  0.66348634  0.69758820  0.17126595  1
  H+  H221  1  0.48484312  0.63969444  0.99908972  1
  H+  H222  1  0.60309647  0.17073814  0.10838638  1
  H+  H223  1  0.38150724  0.60244374  0.50459898  1
  H+  H224  1  0.09567802  0.37001622  0.16412039  1
  H+  H225  1  0.84927649  0.91225495  0.81895811  1
  H+  H226  1  0.59469776  0.77361745  0.18087002  1
  H+  H227  1  0.87663728  0.39081612  0.81539118  1
  H+  H228  1  0.08660618  0.85583084  0.67668933  1
  H+  H229  1  0.84012596  0.42089256  0.75839806  1
  H+  H230  1  0.36662784  0.47099400  0.49168810  1
  H+  H231  1  0.63315719  0.61195893  0.49723371  1
  H+  H232  1  0.59700660  0.87661754  0.82221305  1
  H+  H233  1  0.85477405  0.72808516  0.67678944  1
  H+  H234  1  0.35019297  0.36531865  0.68182384  1
  H+  H235  1  0.07421464  0.16213976  0.76271011  1
  H+  H236  1  0.82071369  0.06491906  0.38908914  1
  H+  H237  1  0.97982733  0.37151542  0.16161334  1
  H+  H238  1  0.86980751  0.48394571  0.66268808  1
  H+  H239  1  0.52458510  0.40087826  0.16792298  1
  H+  H240  1  0.91393983  0.57473284  0.89560416  1
  H+  H241  1  0.84616104  0.66325642  0.41163373  1
  H+  H242  1  1.02805519  0.87326323  0.51145976  1
  H+  H243  1  0.61731374  0.65530666  0.83679160  1
  H+  H244  1  0.22850344  0.84801712  0.83621672  1
  H+  H245  1  0.13420311  0.61759457  0.51123352  1
  H+  H246  1  0.38975107  0.73555272  0.66410805  1
  H+  H247  1  0.81619687  0.08511491  0.36008710  1
  H+  H248  1  0.88055709  0.87650978  0.66674177  1
  H+  H249  1  0.12945430  0.09676181  0.16579991  1
  H+  H250  1  0.48029158  0.85932826  0.50183560  1
  H+  H251  1  0.82066908  0.41043228  0.43925340  1
  H+  H252  1  0.80846540  -0.03562565  0.16074382  1
  H+  H253  1  0.40990424  0.81824325  0.24583231  1
  H+  H254  1  0.92220855  0.74786891  0.85035808  1
  H+  H255  1  0.12785631  -0.01261478  0.32505502  1
  H+  H256  1  0.36783153  0.22279019  0.49213725  1
  H+  H257  1  0.39540487  0.86413264  0.65729710  1
  H+  H258  1  0.14678627  0.86886247  0.31737600  1
  H+  H259  1  0.33570046  0.73331017  0.81454397  1
  H+  H260  1  0.63953297  0.53396713  0.17248168  1
  H+  H261  1  -0.02321727  0.12815443  0.83275322  1
  H+  H262  1  0.54325570  0.52695714  0.76831197  1
  H+  H263  1  0.46554340  0.84778009  0.83929455  1
  H+  H264  1  0.93094989  0.85557582  0.34279479  1
  H+  H265  1  0.59536940  0.16403876  0.78789155  1
  H+  H266  1  -0.03479699  0.86674157  0.66960325  1
  H+  H267  1  0.09522829  0.15027647  0.59129595  1
  H+  H268  1  0.14378416  0.85626534  0.83636797  1
  H+  H269  1  0.62821358  0.22698968  0.02458557  1
  H+  H270  1  0.75569945  0.34868500  0.84581455  1
  H+  H271  1  0.18681649  0.79930166  0.50661038  1
  H+  H272  1  0.86578857  0.72773832  0.50482284  1
  H+  H273  1  0.89867653  0.75750005  0.33111533  1
  H+  H274  1  0.88340389  0.25392555  0.98441875  1
  H+  H275  1  0.86018677  0.63754056  0.51346786  1
  H+  H276  1  0.74128825  0.62024655  0.83644630  1
  H+  H277  1  0.47137503  0.09448614  0.33576426  1
  H+  H278  1  1.01969124  0.63489679  0.15898962  1
  H+  H279  1  0.87950601  0.85403487  0.51283694  1
  H+  H280  1  0.42920212  0.83648075  0.59650001  1
  H+  H281  1  0.48648134  0.39618725  0.65482362  1
  H+  H282  1  0.86887775  0.73608043  0.14914797  1
  H+  H283  1  0.86580801  0.36814732  -0.00435149  1
  H+  H284  1  0.09155923  0.92305171  0.05987693  1
  H+  H285  1  0.28447644  0.40558511  0.32781954  1
  H+  H286  1  0.72870826  0.61541631  0.98559667  1
  H+  H287  1  0.11882133  -0.04145949  0.50537894  1
  H+  H288  1  0.85472622  0.02926138  0.31864250  1
  H+  H289  1  0.81275146  0.43446009  0.12952679  1
  H+  H290  1  0.01066768  0.63076992  0.83288401  1
  H+  H291  1  0.07326860  0.65706208  0.06479747  1
  H+  H292  1  0.35936385  0.44778063  0.08719683  1
  H+  H293  1  0.17611069  0.59921090  0.56786079  1
  H+  H294  1  0.92872827  0.59933036  0.26612975  1
  H+  H295  1  0.89115159  0.63603728  0.17223927  1
  H+  H296  1  0.08858630  0.16856205  0.42749241  1
  H+  H297  1  0.42175233  0.59875112  0.94110619  1
  H+  H298  1  0.87727918  0.85619806  0.98318400  1
  H+  H299  1  0.00497746  0.39594262  0.49389583  1
  H+  H300  1  0.88690697  0.42853061  0.05127005  1
  H+  H301  1  0.18400929  0.08699100  0.25329145  1
  H+  H302  1  0.11650629  -0.03280836  0.15512921  1
  H+  H303  1  0.92547591  0.37520062  0.25528768  1
  H+  H304  1  0.86472222  0.01145065  0.21766494  1
  H+  H305  1  0.16143366  0.08676135  0.93193209  1
  H+  H306  1  0.60860999  0.40284678  1.00012373  1
  H+  H307  1  0.05851066  0.13486565  0.10293388  1
  H+  H308  1  0.33824792  0.90565223  0.72701043  1
  H+  H309  1  0.64530117  0.31918372  0.24918966  1
  H+  H310  1  0.07737694  0.20354864  0.43035906  1
  H+  H311  1  0.67902298  0.09847262  0.24368182  1
  H+  H312  1  0.34561781  0.91133614  0.41188850  1
  H+  H313  1  0.41952212  0.07620602  0.27418061  1
  H+  H314  1  0.90088728  0.33267566  0.57326991  1
  H+  H315  1  0.55420646  0.85215040  0.03217899  1
  H+  H316  1  0.68853694  0.33675964  0.89651629  1
  H+  H317  1  0.15426125  0.81755342  0.22911306  1
  H+  H318  1  0.06923631  0.40405774  0.06388612  1
  H+  H319  1  0.08803777  0.43411887  0.76350368  1
  H+  H320  1  0.38526499  0.52237428  0.33298001  1
  H+  H321  1  0.33684224  0.17408050  0.08431228  1
  H+  H322  1  0.82135189  0.14293298  0.45219482  1
  H+  H323  1  0.14956826  0.30401830  0.22940243  1
  H+  H324  1  0.93378634  -0.00177374  0.94382018  1
  H+  H325  1  0.16464493  0.82303016  0.93354854  1
  H+  H326  1  0.31942181  0.42077270  0.77508964  1
  H+  H327  1  0.91970425  0.82460842  0.22321858  1
  H+  H328  1  0.13442602  0.68183686  0.65202530  1
  H+  H329  1  0.81041553  0.88459161  0.43721810  1
  H+  H330  1  0.25806027  0.87306558  0.01219724  1
  H+  H331  1  0.91040559  0.10039663  0.60965181  1
  H+  H332  1  0.43825399  0.06077072  0.95362823  1
  H+  H333  1  0.41821514  0.57036038  0.59602415  1
  H+  H334  1  0.45421432  0.59137779  0.23549158  1
  H+  H335  1  0.94057048  0.80726161  0.90682308  1
  H+  H336  1  0.33050405  0.65982353  0.43530447  1
  H+  H337  1  0.55814842  0.91427334  0.11322622  1
  H+  H338  1  0.25433570  0.49291574  0.26738132  1
  H+  H339  1  0.56603792  0.45627623  0.75725439  1
  H+  H340  1  0.55553206  0.15050519  0.51669522  1
  H+  H341  1  0.15713628  0.58101276  0.27016281  1
  H+  H342  1  0.14857795  0.30045415  0.99108043  1
  H+  H343  1  0.72425567  0.09951145  0.83602655  1
  H+  H344  1  0.18849886  0.06367606  0.57333514  1
  H+  H345  1  0.67616755  0.36277117  0.57037018  1
  H+  H346  1  0.07002780  0.66035131  0.44448278  1
  H+  H347  1  0.57413801  0.91056284  0.73264492  1
  H+  H348  1  0.15695480  0.57598826  0.93641410  1
  H+  H349  1  0.33799815  0.16193780  0.43353152  1
  H+  H350  1  0.91778883  0.00052672  0.56682984  1
  H+  H351  1  0.40378606  0.08816877  0.86469831  1
  H+  H352  1  0.82726805  0.66068650  0.05866726  1
  H+  H353  1  0.44336065  0.10980896  0.56729409  1
  H+  H354  1  0.40814237  0.32862726  0.22823769  1
  H+  H355  1  0.15664621  0.33730725  0.59417166  1
  H+  H356  1  0.83048631  0.14116838  0.06197352  1
  H+  H357  1  0.91886828  0.32938869  0.89166476  1
  H+  H358  1  0.40155350  0.81548104  0.89885220  1
  H+  H359  1  0.38528604  0.26501964  0.32338192  1
  H+  H360  1  0.67083767  0.84716990  0.89192514  1
  H+  H361  1  0.84274101  0.09544978  0.15840764  1
  H+  H362  1  0.34362737  0.67386339  0.72017093  1
  H+  H363  1  0.82093308  0.93858417  0.72930122  1
  H+  H364  1  0.44798142  0.44887893  0.62593326  1
  H+  H365  1  0.37924634  0.60801999  0.32845590  1
  H+  H366  1  0.41001661  0.35793394  0.93250818  1
  H+  H367  1  0.66115117  0.84959528  0.59988798  1
  H+  H368  1  0.80150120  0.25253155  0.39196289  1
  H+  H369  1  0.42747432  0.34293044  0.56054894  1
  H+  H370  1  0.38328540  0.27973515  0.16357219  1
  H+  H371  1  0.85833776  0.14851078  0.81690254  1
  H+  H372  1  0.57605142  0.41324361  0.39792543  1
  H+  H373  1  0.13505034  -0.00159350  0.66933482  1
  H+  H374  1  0.82091916  0.17555707  0.75967404  1
  H+  H375  1  0.58589404  0.92893849  0.42964707  1
  H+  H376  1  0.31292913  0.65484237  0.11031119  1
  H+  H377  1  0.32404324  0.89849672  0.10689360  1
  H+  H378  1  0.27793024  0.11837850  0.67305805  1
  H+  H379  1  0.90901996  0.83329802  0.57605846  1
  H+  H380  1  0.06405390  0.42090846  0.40666156  1
  H+  H381  1  0.21435693  0.60192703  0.17908039  1
  H+  H382  1  0.40265312  0.50411241  0.16188099  1
  H+  H383  1  0.60155503  0.49357703  0.67076332  1
  O2-  O384  1  0.05840122  0.13181483  0.14942093  1
  O2-  O385  1  0.09142839  0.14568489  0.54669112  1
  O2-  O386  1  0.07109037  0.16382979  0.80751995  1
  O2-  O387  1  0.07319819  0.40720315  0.14727313  1
  O2-  O388  1  0.06115147  0.42829150  0.47252332  1
  O2-  O389  1  0.08319223  0.42535591  0.80812463  1
  O2-  O390  1  0.07829539  0.65569875  0.14240412  1
  O2-  O391  1  0.06214104  0.65290883  0.48996704  1
  O2-  O392  1  0.07541706  0.66270699  0.82041206  1
  O2-  O393  1  0.08332599  0.90777685  0.13862707  1
  O2-  O394  1  0.08791964  0.89576556  0.49800347  1
  O2-  O395  1  0.09329217  0.90808574  0.81190168  1
  O2-  O396  1  0.33400963  0.17384398  0.12929676  1
  O2-  O397  1  0.33968496  0.16153692  0.47896776  1
  O2-  O398  1  0.29890255  0.22350089  0.78769287  1
  O2-  O399  1  0.36086014  0.44545662  0.14390395  1
  O2-  O400  1  0.33764145  0.40843112  0.47998089  1
  O2-  O401  1  0.31742393  0.43305206  0.81868843  1
  O2-  O402  1  0.30898829  0.65048781  0.15526178  1
  O2-  O403  1  0.33279625  0.66161162  0.48069195  1
  O2-  O404  1  0.28919796  0.68810238  0.78802493  1
  O2-  O405  1  0.32684315  0.89833135  0.15261914  1
  O2-  O406  1  0.35776252  0.93074733  0.48711739  1
  O2-  O407  1  0.33077488  0.90119569  0.81032687  1
  O2-  O408  1  0.59948103  0.17058241  0.15511228  1
  O2-  O409  1  0.61745404  0.16014801  0.52125900  1
  O2-  O410  1  0.59313630  0.15912483  0.83209418  1
  O2-  O411  1  0.58762664  0.43322510  0.16090982  1
  O2-  O412  1  0.58969615  0.41929715  0.47467859  1
  O2-  O413  1  0.55138405  0.48421014  0.79137757  1
  O2-  O414  1  0.63320753  0.63811434  0.15480093  1
  O2-  O415  1  0.57620021  0.66715084  0.48258014  1
  O2-  O416  1  0.57581465  0.67211659  0.82384564  1
  O2-  O417  1  0.57290280  0.90889440  0.15555299  1
  O2-  O418  1  0.58382163  0.93114072  0.47526410  1
  O2-  O419  1  0.56419146  0.90472217  0.80636405  1
  O2-  O420  1  0.82778187  0.14152541  0.14588182  1
  O2-  O421  1  0.79848655  0.15540619  0.48873365  1
  O2-  O422  1  0.82143316  0.17296159  0.80568744  1
  O2-  O423  1  0.82473594  0.43210632  0.17249981  1
  O2-  O424  1  0.82086666  0.41038699  0.48412973  1
  O2-  O425  1  0.84330867  0.41975686  0.80401752  1
  O2-  O426  1  0.83913049  0.67357262  0.13430949  1
  O2-  O427  1  0.83858952  0.66791354  0.48795831  1
  O2-  O428  1  0.83027297  0.65508226  0.81017013  1
  O2-  O429  1  0.69755610  0.87306394  0.15018221  1
  O2-  O430  1  0.81513416  0.89676132  0.48158816  1
  O2-  O431  1  0.82038868  0.94324504  0.80517873  1
  O2-  O432  1  0.16860315  0.07441103  0.17745052  1
  O2-  O433  1  0.18189292  0.06859034  0.52906566  1
  O2-  O434  1  0.15656278  0.08278713  0.85024194  1
  O2-  O435  1  0.12160016  0.29982485  0.19051680  1
  O2-  O436  1  0.18063543  0.32360289  0.53256999  1
  O2-  O437  1  0.15119399  0.32435407  0.84053348  1
  O2-  O438  1  0.15221885  0.56862709  0.19491530  1
  O2-  O439  1  0.16664448  0.58847965  0.52314543  1
  O2-  O440  1  0.15175217  0.58257538  0.85510658  1
  O2-  O441  1  0.15513842  0.81578110  0.18249613  1
  O2-  O442  1  0.18368690  0.83771896  0.53633287  1
  O2-  O443  1  0.16784363  0.81976369  0.85182149  1
  O2-  O444  1  0.44280038  0.13309560  0.19588953  1
  O2-  O445  1  0.46927921  0.14224380  0.52953909  1
  O2-  O446  1  0.43417427  0.05795218  0.87609238  1
  O2-  O447  1  0.41339454  0.33720880  0.18313304  1
  O2-  O448  1  0.42480426  0.33139286  0.51623620  1
  O2-  O449  1  0.41197760  0.36376435  0.85525479  1
  O2-  O450  1  0.46840884  0.59464981  0.19185099  1
  O2-  O451  1  0.41195103  0.57155961  0.51773996  1
  O2-  O452  1  0.41815694  0.59789834  0.87187951  1
  O2-  O453  1  0.41230881  0.81677071  0.20010727  1
  O2-  O454  1  0.42302821  0.82770880  0.52170739  1
  O2-  O455  1  0.40433337  0.81727968  0.85324829  1
  O2-  O456  1  0.67683832  0.09547467  0.19531836  1
  O2-  O457  1  0.62580760  0.10711360  0.47365912  1
  O2-  O458  1  0.66682180  0.06156338  0.85541203  1
  O2-  O459  1  0.65438013  0.32728143  0.20386324  1
  O2-  O460  1  0.67518835  0.35844804  0.52430335  1
  O2-  O461  1  0.71244265  0.30623011  0.87497648  1
  O2-  O462  1  0.67837146  0.59794390  0.18356790  1
  O2-  O463  1  0.66029729  0.57648989  0.50501425  1
  O2-  O464  1  0.68108770  0.59815998  0.85602773  1
  O2-  O465  1  0.65591999  0.79679598  0.19047454  1
  O2-  O466  1  0.65541553  0.84284692  0.52914534  1
  O2-  O467  1  0.65923594  0.84261457  0.84722239  1
  O2-  O468  1  0.85917412  0.01914043  0.17369681  1
  O2-  O469  1  0.92186241  0.04650697  0.54089001  1
  O2-  O470  1  0.91500251  0.10227749  0.84801410  1
  O2-  O471  1  0.91464505  0.34590746  0.17169903  1
  O2-  O472  1  0.90325525  0.33317053  0.52598189  1
  O2-  O473  1  0.92065677  0.33504348  0.84645034  1
  O2-  O474  1  0.92041200  0.60691830  0.19293567  1
  O2-  O475  1  0.90466136  0.58415646  0.56049561  1
  O2-  O476  1  0.91838280  0.57720758  0.84998399  1
  O2-  O477  1  0.91773805  0.82825021  0.17873024  1
  O2-  O478  1  0.91335692  0.82980598  0.53080642  1
  O2-  O479  1  0.96990557  0.79074106  0.87544415  1
  O2-  O480  1  0.18660456  0.09445220  0.29858407  1
  O2-  O481  1  0.17126898  0.06017259  0.65568039  1
  O2-  O482  1  0.16811067  0.08923017  0.97691593  1
  O2-  O483  1  0.22332149  0.43923118  0.29006064  1
  O2-  O484  1  0.12843196  0.33416569  0.63678695  1
  O2-  O485  1  0.19015191  0.30404211  0.96119725  1
  O2-  O486  1  0.16195647  0.58553796  0.31612391  1
  O2-  O487  1  0.19564221  0.63000027  0.64305379  1
  O2-  O488  1  0.15263267  0.57207967  0.98137032  1
  O2-  O489  1  0.16480271  0.82960559  0.29895363  1
  O2-  O490  1  0.13501637  0.79186767  0.65240141  1
  O2-  O491  1  0.16284514  0.82558151  0.97859874  1
  O2-  O492  1  0.41250704  0.06930828  0.31856984  1
  O2-  O493  1  0.42531939  0.07363735  0.64565541  1
  O2-  O494  1  0.43777064  0.06203174  0.99927178  1
  O2-  O495  1  0.40933150  0.32490625  0.30682483  1
  O2-  O496  1  0.43287016  0.38940745  0.63440663  1
  O2-  O497  1  0.41250462  0.35603074  0.97793362  1
  O2-  O498  1  0.40976913  0.57773997  0.31231136  1
  O2-  O499  1  0.41853487  0.56563351  0.64124110  1
  O2-  O500  1  0.42408234  0.60202487  0.98821368  1
  O2-  O501  1  0.41371200  0.82211232  0.32141535  1
  O2-  O502  1  0.43110587  0.83755728  0.64232732  1
  O2-  O503  1  0.38866671  0.81403694  0.97480235  1
  O2-  O504  1  0.67737245  0.10010577  0.30794723  1
  O2-  O505  1  0.66545677  0.07597413  0.63961716  1
  O2-  O506  1  0.67874670  0.00799329  0.96846410  1
  O2-  O507  1  0.63782974  0.30973390  0.32563271  1
  O2-  O508  1  0.67923443  0.36235767  0.64349251  1
  O2-  O509  1  0.67212196  0.34473160  1.02588298  1
  O2-  O510  1  0.68322838  0.56077523  0.30796146  1
  O2-  O511  1  0.60647267  0.57891924  0.65342799  1
  O2-  O512  1  0.66945255  0.59273442  0.96578462  1
  O2-  O513  1  0.64733110  0.83054567  0.30965496  1
  O2-  O514  1  0.66566808  0.85361619  0.64658286  1
  O2-  O515  1  0.70002458  0.86846195  0.96593514  1
  O2-  O516  1  0.87795394  -0.00216616  0.29638619  1
  O2-  O517  1  0.91228451  0.10746301  0.65429912  1
  O2-  O518  1  0.90522840  0.01959020  0.97099156  1
  O2-  O519  1  0.92522051  0.39122299  0.29803083  1
  O2-  O520  1  0.89115055  0.32968497  0.64245568  1
  O2-  O521  1  0.91065707  0.31446258  0.97101569  1
  O2-  O522  1  0.93277235  0.58133514  0.30926025  1
  O2-  O523  1  0.92231803  0.59500151  0.62622845  1
  O2-  O524  1  0.91265797  0.57785770  0.97204559  1
  O2-  O525  1  0.91963998  0.81449929  0.31027491  1
  O2-  O526  1  0.90596968  0.84199267  0.65256791  1
  O2-  O527  1  0.86900094  0.80946371  0.95583369  1
  O2-  O528  1  0.05903146  0.13822853  0.03170597  1
  O2-  O529  1  0.16953998  0.23666896  0.30999461  1
  O2-  O530  1  0.08037835  0.16656894  0.67801724  1
  O2-  O531  1  0.06271476  0.40199202  0.01919430  1
  O2-  O532  1  0.06656623  0.41293609  0.35872444  1
  O2-  O533  1  0.11293672  0.46383124  0.68466157  1
  O2-  O534  1  0.07192730  0.65776885  0.01907384  1
  O2-  O535  1  0.09067541  0.67390544  0.36980494  1
  O2-  O536  1  0.08867132  0.69785979  0.65533945  1
  O2-  O537  1  0.09698847  0.93189353  0.01501906  1
  O2-  O538  1  0.10079135  0.92721042  0.33965773  1
  O2-  O539  1  0.06970814  0.89749755  0.69142238  1
  O2-  O540  1  0.32863189  0.17897213  0.00235723  1
  O2-  O541  1  0.34020039  0.16431406  0.35373785  1
  O2-  O542  1  0.33972917  0.15762721  0.68394786  1
  O2-  O543  1  0.35350415  0.44918339  0.03421823  1
  O2-  O544  1  0.31076715  0.38206135  0.35630407  1
  O2-  O545  1  0.29991416  0.34864965  0.70965719  1
  O2-  O546  1  0.31357888  0.65467729  0.02796077  1
  O2-  O547  1  0.33091150  0.65864451  0.35589491  1
  O2-  O548  1  0.35532381  0.67342248  0.67632425  1
  O2-  O549  1  0.31675841  0.89551527  0.03097943  1
  O2-  O550  1  0.33973841  0.89946918  0.36710931  1
  O2-  O551  1  0.34169729  0.90431560  0.68224247  1
  O2-  O552  1  0.61033206  0.16788597  0.03803993  1
  O2-  O553  1  0.57775506  0.14722134  0.36150538  1
  O2-  O554  1  0.61242135  0.11717935  0.63863451  1
  O2-  O555  1  0.58244330  0.43928554  0.00237957  1
  O2-  O556  1  0.57124651  0.40644452  0.35254389  1
  O2-  O557  1  0.58105480  0.43204039  0.68680869  1
  O2-  O558  1  0.60721917  0.70201829  0.01340024  1
  O2-  O559  1  0.57088595  0.67046703  0.36418064  1
  O2-  O560  1  0.56113528  0.59683780  0.69616399  1
  O2-  O561  1  0.54175316  0.89907138  0.03159735  1
  O2-  O562  1  0.58748608  0.92831103  0.35281175  1
  O2-  O563  1  0.58134693  0.91653544  0.68685248  1
  O2-  O564  1  0.83222748  0.13952629  0.01688412  1
  O2-  O565  1  0.82063789  0.23101094  0.35830481  1
  O2-  O566  1  0.82332055  0.17879069  0.68531039  1
  O2-  O567  1  0.84784117  0.40737228  0.01668736  1
  O2-  O568  1  0.80625906  0.41517510  0.35808105  1
  O2-  O569  1  0.83591731  0.42616706  0.68074189  1
  O2-  O570  1  0.82060832  0.65442742  0.01316230  1
  O2-  O571  1  0.84777108  0.66167633  0.36589564  1
  O2-  O572  1  0.83460972  0.66907796  0.69131010  1
  O2-  O573  1  0.86027753  0.94507519  0.01276895  1
  O2-  O574  1  0.79378479  0.85238035  0.36124641  1
  O2-  O575  1  0.82357695  0.93891225  0.68372188  1
