# generated using pymatgen
data_H2O
_symmetry_space_group_name_H-M   'P 1'
_cell_length_a   17.98821542
_cell_length_b   17.99677955
_cell_length_c   22.00024345
_cell_angle_alpha   89.99342125
_cell_angle_beta   89.99220724
_cell_angle_gamma   120.01265816
_symmetry_Int_Tables_number   1
_chemical_formula_structural   H2O
_chemical_formula_sum   'H384 O192'
_cell_volume   6167.16505969
_cell_formula_units_Z   192
loop_
 _symmetry_equiv_pos_site_id
 _symmetry_equiv_pos_as_xyz
  1  'x, y, z'
loop_
 _atom_type_symbol
 _atom_type_oxidation_number
  H+  1.0
  O2-  -2.0
loop_
 _atom_site_type_symbol
 _atom_site_label
 _atom_site_symmetry_multiplicity
 _atom_site_fract_x
 _atom_site_fract_y
 _atom_site_fract_z
 _atom_site_occupancy
  H+  H0  1  0.85730859  0.88421071  0.66035805  1
  H+  H1  1  0.15752521  0.90296315  0.82573625  1
  H+  H2  1  0.38152710  0.27096856  -0.00554107  1
  H+  H3  1  0.98186447  0.36712358  0.51156926  1
  H+  H4  1  0.90366441  0.37217729  0.32556339  1
  H+  H5  1  0.85992023  0.66894924  0.74376909  1
  H+  H6  1  0.63193924  0.76909166  0.50735932  1
  H+  H7  1  0.85596662  0.88389486  -0.00189669  1
  H+  H8  1  0.73484563  0.61505646  0.18052327  1
  H+  H9  1  0.22046194  0.11335697  0.17178271  1
  H+  H10  1  0.38245938  1.02423645  -0.00720323  1
  H+  H11  1  0.23431335  0.60393678  0.18451676  1
  H+  H12  1  0.11236977  0.22923460  0.67030760  1
  H+  H13  1  0.87938988  0.61124931  0.66605991  1
  H+  H14  1  0.46001311  0.35176383  0.18324884  1
  H+  H15  1  0.36185297  0.39413395  0.64770540  1
  H+  H16  1  0.38573907  0.11136555  0.32390654  1
  H+  H17  1  0.74001897  0.87946077  0.65495659  1
  H+  H18  1  0.12712041  0.10365779  0.32833056  1
  H+  H19  1  0.47806550  0.11932659  0.32053886  1
  H+  H20  1  0.13276051  0.35652360  0.17042225  1
  H+  H21  1  0.26592763  0.88316729  0.67128558  1
  H+  H22  1  0.63280826  0.86677881  0.99145488  1
  H+  H23  1  0.27881306  0.86022589  0.83791664  1
  H+  H24  1  0.13080400  0.11743357  0.99071941  1
  H+  H25  1  0.47028792  0.11550046  0.98802412  1
  H+  H26  1  0.02060860  0.13630388  0.66853595  1
  H+  H27  1  0.13157889  0.63585683  0.35359816  1
  H+  H28  1  0.21253974  0.83705488  0.31833323  1
  H+  H29  1  0.73093469  0.36861502  0.66243575  1
  H+  H30  1  0.59927845  0.13996330  0.15111840  1
  H+  H31  1  0.53108458  0.14294768  0.66982785  1
  H+  H32  1  1.02712755  0.81967434  0.87958234  1
  H+  H33  1  0.64885670  0.83597312  0.15890868  1
  H+  H34  1  0.11009992  0.87630533  0.33316970  1
  H+  H35  1  0.14267535  0.61283659  0.49621681  1
  H+  H36  1  0.11165833  0.46397725  0.49246848  1
  H+  H37  1  0.01268985  0.14036855  0.00008757  1
  H+  H38  1  0.10684742  0.22112618  0.50129421  1
  H+  H39  1  0.12268129  0.37506973  1.00247855  1
  H+  H40  1  0.86499964  0.39017967  0.67285424  1
  H+  H41  1  0.36555351  0.65023157  0.17272747  1
  H+  H42  1  0.89244412  0.13656043  0.31867495  1
  H+  H43  1  0.91156219  0.82325148  0.59909329  1
  H+  H44  1  0.34843747  0.47158682  1.00130806  1
  H+  H45  1  0.10681375  0.97141532  0.49228058  1
  H+  H46  1  0.19152987  0.36533030  0.32577130  1
  H+  H47  1  0.36794109  0.39091505  0.15713322  1
  H+  H48  1  0.67751743  0.33370150  0.22961643  1
  H+  H49  1  0.21784874  0.36456961  0.99566440  1
  H+  H50  1  0.29418023  0.42749973  0.43078499  1
  H+  H51  1  0.85713967  0.23643369  0.82826932  1
  H+  H52  1  0.34909681  0.12719488  0.82750616  1
  H+  H53  1  0.12516498  0.75262852  0.32370872  1
  H+  H54  1  0.59179357  0.62791556  0.69295891  1
  H+  H55  1  0.36002705  0.63494692  0.67168292  1
  H+  H56  1  0.63072825  0.61847172  -0.00884435  1
  H+  H57  1  0.53610462  -0.00629224  0.54030382  1
  H+  H58  1  0.62825278  0.02941259  0.99580784  1
  H+  H59  1  0.93355944  0.34782538  0.22518094  1
  H+  H60  1  0.60918904  0.72531781  0.83021711  1
  H+  H61  1  0.78452507  0.63700423  0.69458245  1
  H+  H62  1  0.35425492  0.34611457  0.46818570  1
  H+  H63  1  0.36873331  0.90733095  0.50554016  1
  H+  H64  1  0.31861450  0.89971910  0.73411200  1
  H+  H65  1  0.07767793  0.92497361  0.06412187  1
  H+  H66  1  0.37841926  0.52493613  0.64227857  1
  H+  H67  1  0.86245833  0.22401774  0.67033860  1
  H+  H68  1  0.61426927  0.52309825  0.83680113  1
  H+  H69  1  0.42460246  0.46721032  0.11543943  1
  H+  H70  1  0.14366062  0.31971868  0.23298851  1
  H+  H71  1  0.73564402  0.61264325  0.33892943  1
  H+  H72  1  0.37976861  0.03075265  0.51737991  1
  H+  H73  1  0.88601923  0.85546445  0.50662479  1
  H+  H74  1  0.68838529  0.08690028  0.14068322  1
  H+  H75  1  -0.00018793  0.61059137  0.84437282  1
  H+  H76  1  0.56088779  0.66071366  0.77070571  1
  H+  H77  1  0.54182288  0.88569695  0.82965105  1
  H+  H78  1  0.64555774  0.36320456  0.32377332  1
  H+  H79  1  0.34327559  0.21143438  0.33784104  1
  H+  H80  1  0.47301573  0.88211900  0.16239066  1
  H+  H81  1  0.60984500  0.23682527  1.00199861  1
  H+  H82  1  0.64539914  0.38835979  0.84274814  1
  H+  H83  1  0.78492729  0.88491757  0.15790977  1
  H+  H84  1  0.47700571  0.86565796  0.66901121  1
  H+  H85  1  0.87205156  0.47677183  0.49596181  1
  H+  H86  1  0.36808641  0.52238312  0.84734374  1
  H+  H87  1  0.38566525  0.86363815  0.66749312  1
  H+  H88  1  0.14134432  0.13094238  0.83454402  1
  H+  H89  1  0.46792369  0.61230305  0.33356705  1
  H+  H90  1  0.59895996  0.13135542  0.49316555  1
  H+  H91  1  0.88826011  0.86225178  0.17264855  1
  H+  H92  1  0.64983187  0.62091829  0.18941960  1
  H+  H93  1  0.69677419  0.98040289  0.44748487  1
  H+  H94  1  0.40159564  0.07016927  0.89521359  1
  H+  H95  1  0.72585884  0.85541604  0.32663986  1
  H+  H96  1  1.02602058  0.13774013  0.15362825  1
  H+  H97  1  0.65059357  0.38249849  0.49730853  1
  H+  H98  1  0.07330722  0.16923396  0.06038729  1
  H+  H99  1  0.26698018  0.13588967  0.00272869  1
  H+  H100  1  0.12734269  0.11749877  0.65672497  1
  H+  H101  1  0.87537513  0.51118220  0.66250893  1
  H+  H102  1  0.50941886  0.88709902  -0.00067140  1
  H+  H103  1  0.17277311  0.74511926  0.86241262  1
  H+  H104  1  0.34205085  0.87950552  0.00833376  1
  H+  H105  1  0.07287556  1.00163865  0.81632010  1
  H+  H106  1  0.64201035  0.74790620  0.17041514  1
  H+  H107  1  0.64220407  0.27910133  0.66037627  1
  H+  H108  1  0.21375315  0.10450440  0.50436964  1
  H+  H109  1  0.86579869  0.72824314  0.15898635  1
  H+  H110  1  0.14911759  0.63082704  -0.00818536  1
  H+  H111  1  0.87076059  0.71230457  0.34246872  1
  H+  H112  1  0.35803108  0.86875242  0.17771260  1
  H+  H113  1  0.87711716  0.94518989  0.35129661  1
  H+  H114  1  0.60368351  0.38099907  0.18522256  1
  H+  H115  1  0.89213285  0.90310338  0.80565656  1
  H+  H116  1  -0.00119088  0.87512875  0.83845117  1
  H+  H117  1  0.64295578  0.02553818  0.31505633  1
  H+  H118  1  0.15739218  0.84054940  0.21974799  1
  H+  H119  1  0.32730129  0.58461196  0.85224574  1
  H+  H120  1  0.13307007  0.86045519  0.50528207  1
  H+  H121  1  0.60716990  0.14615558  0.00133687  1
  H+  H122  1  0.62406940  0.48849221  0.34439601  1
  H+  H123  1  0.88302326  0.83640565  0.33047934  1
  H+  H124  1  0.35923196  0.98967033  0.16215159  1
  H+  H125  1  0.09958572  0.46877157  0.67546761  1
  H+  H126  1  0.87140730  0.11172869  -0.01821845  1
  H+  H127  1  0.64075497  0.37254512  0.00004802  1
  H+  H128  1  0.14714472  0.24644922  0.80172839  1
  H+  H129  1  0.10166646  0.37243060  0.50931020  1
  H+  H130  1  0.89382634  0.11821785  0.16615747  1
  H+  H131  1  0.02672521  0.39063617  0.00633540  1
  H+  H132  1  0.89634719  0.37410378  0.99489830  1
  H+  H133  1  0.64314187  0.86366220  0.50030907  1
  H+  H134  1  0.61712455  0.97896295  0.67808555  1
  H+  H135  1  0.14803586  0.59852303  0.20177951  1
  H+  H136  1  0.20423702  0.59479539  0.53691837  1
  H+  H137  1  0.72182282  0.86469832  0.99449750  1
  H+  H138  1  0.11278095  0.22907364  0.15712332  1
  H+  H139  1  0.36170615  0.72472163  0.67600762  1
  H+  H140  1  0.93481906  0.57599175  0.90460302  1
  H+  H141  1  0.38279547  0.40533302  0.82862541  1
  H+  H142  1  0.79926072  0.15916251  0.17930988  1
  H+  H143  1  0.89018375  0.61188510  0.50963857  1
  H+  H144  1  0.47763159  0.93566545  0.88383528  1
  H+  H145  1  0.55922152  0.58926723  0.13015685  1
  H+  H146  1  0.89472583  0.63320327  0.82942038  1
  H+  H147  1  0.52072059  0.38481081  0.82927547  1
  H+  H148  1  0.87272269  0.38690843  0.49721764  1
  H+  H149  1  0.52042009  0.88457978  0.33263841  1
  H+  H150  1  0.09664682  0.68238327  0.77550956  1
  H+  H151  1  0.78346749  0.14863146  0.48220132  1
  H+  H152  1  0.83298042  0.91581601  0.05905607  1
  H+  H153  1  0.86159859  0.97012712  0.49409058  1
  H+  H154  1  0.34452366  0.47332806  0.33467803  1
  H+  H155  1  0.89460217  0.60181616  0.98003726  1
  H+  H156  1  0.45233583  0.33066783  0.30960556  1
  H+  H157  1  0.86163870  -0.02190873  0.66266975  1
  H+  H158  1  0.72186756  0.11679502  0.84235355  1
  H+  H159  1  0.87097089  1.02372421  -0.02017602  1
  H+  H160  1  0.86011970  1.00545288  0.82011376  1
  H+  H161  1  0.71291723  0.24380463  0.82963140  1
  H+  H162  1  0.60928435  0.88307819  0.32756123  1
  H+  H163  1  0.63895791  0.52469660  0.68240743  1
  H+  H164  1  0.38317470  0.53029999  0.18047064  1
  H+  H165  1  0.38103745  0.76895784  0.32844727  1
  H+  H166  1  0.25940432  0.12002601  0.33865618  1
  H+  H167  1  0.15884381  0.57706681  0.72806096  1
  H+  H168  1  0.10734392  0.13151670  0.49581653  1
  H+  H169  1  0.21717522  0.11814046  0.65919010  1
  H+  H170  1  0.89261763  0.28293982  0.99495384  1
  H+  H171  1  0.86924624  0.97867772  0.15676933  1
  H+  H172  1  0.90749512  0.72721976  0.83014589  1
  H+  H173  1  0.87938038  0.48534617  -0.00055780  1
  H+  H174  1  0.37775487  0.61203360  0.33569329  1
  H+  H175  1  0.82643371  0.89324124  0.40876261  1
  H+  H176  1  0.88274614  0.10960468  0.65567953  1
  H+  H177  1  0.38559639  0.26991049  0.84084756  1
  H+  H178  1  0.34887360  0.13877477  0.68129561  1
  H+  H179  1  0.13542084  0.87549152  0.66063221  1
  H+  H180  1  0.82904781  0.89871579  0.75467869  1
  H+  H181  1  0.60919464  0.47739379  0.00537195  1
  H+  H182  1  0.61896400  0.01517688  0.50682870  1
  H+  H183  1  0.10674364  0.98579387  0.15897360  1
  H+  H184  1  0.34503151  0.67882735  0.11013384  1
  H+  H185  1  0.73263314  0.61243103  0.49604517  1
  H+  H186  1  0.97550826  0.85610502  0.50442941  1
  H+  H187  1  0.13106828  0.63384674  0.81703055  1
  H+  H188  1  0.71837895  0.61655470  0.97688753  1
  H+  H189  1  1.01928450  0.89286750  0.15883834  1
  H+  H190  1  0.63792478  0.27860155  0.16912570  1
  H+  H191  1  0.36604567  0.00531913  0.83773769  1
  H+  H192  1  0.13006114  0.87551889  0.16192679  1
  H+  H193  1  0.07092557  0.40246979  0.72939207  1
  H+  H194  1  0.26553509  0.90282644  0.15742939  1
  H+  H195  1  0.35912629  0.75348178  -0.01027158  1
  H+  H196  1  0.22429850  0.86569283  0.51061685  1
  H+  H197  1  0.55659847  0.87563334  0.16503166  1
  H+  H198  1  0.35537506  0.13636129  0.15835642  1
  H+  H199  1  0.60246644  0.46797214  0.19081970  1
  H+  H200  1  0.87031210  0.62313370  0.34961246  1
  H+  H201  1  0.89153933  0.27984206  0.50585875  1
  H+  H202  1  0.96854974  0.36254479  0.66261125  1
  H+  H203  1  0.88850285  0.10798751  0.49750072  1
  H+  H204  1  0.73552847  0.84808690  0.83960518  1
  H+  H205  1  0.40116873  0.24815682  0.51713762  1
  H+  H206  1  0.64403074  0.27380712  0.32500645  1
  H+  H207  1  0.61551518  0.39160234  0.67392453  1
  H+  H208  1  0.12960865  0.02793915  0.99174259  1
  H+  H209  1  0.12818061  0.70590201  0.23473921  1
  H+  H210  1  0.52431074  0.38737923  1.00697369  1
  H+  H211  1  0.88756391  0.77223343  0.66290615  1
  H+  H212  1  0.61003500  0.72306746  0.33677382  1
  H+  H213  1  0.10540108  0.89075927  0.00582285  1
  H+  H214  1  0.59881596  0.62467463  0.83280873  1
  H+  H215  1  0.46646173  0.62608272  0.49391777  1
  H+  H216  1  -0.02335419  0.10691513  0.50206513  1
  H+  H217  1  0.58109763  0.41907858  0.76957171  1
  H+  H218  1  0.34557521  0.85775775  0.35152581  1
  H+  H219  1  0.29816215  0.76857645  0.94504676  1
  H+  H220  1  0.77551114  0.13456202  0.67020783  1
  H+  H221  1  0.21242935  0.86414308  1.00370109  1
  H+  H222  1  0.89320952  0.36859430  0.16482761  1
  H+  H223  1  0.88523930  0.07428433  0.87030629  1
  H+  H224  1  0.33468845  0.38084475  0.33689001  1
  H+  H225  1  0.12335658  0.27406927  0.99571580  1
  H+  H226  1  0.10744706  0.98594493  0.66766318  1
  H+  H227  1  0.57410802  0.17594939  0.09315148  1
  H+  H228  1  0.77184870  0.87959485  0.49944674  1
  H+  H229  1  0.63741941  0.11344368  0.66528770  1
  H+  H230  1  0.71436919  0.25134775  0.79608312  1
  H+  H231  1  0.03190007  0.39338704  0.15454495  1
  H+  H232  1  0.19145757  0.33934116  0.72937865  1
  H+  H233  1  0.02004244  0.89381463  0.66703337  1
  H+  H234  1  0.74790582  0.37137009  0.50974001  1
  H+  H235  1  0.50233074  0.10233512  0.82067624  1
  H+  H236  1  0.90499790  0.62805460  0.18679981  1
  H+  H237  1  0.63882794  0.47738164  0.48705316  1
  H+  H238  1  0.36960044  0.26496127  0.16727853  1
  H+  H239  1  0.11501086  0.27058428  0.33055891  1
  H+  H240  1  0.38495372  0.63547309  0.48033576  1
  H+  H241  1  0.45974759  0.59965423  -0.01396563  1
  H+  H242  1  0.14029704  0.86737083  0.80264358  1
  H+  H243  1  0.32177404  0.41239205  0.06017973  1
  H+  H244  1  0.61837416  0.14083045  0.33035908  1
  H+  H245  1  0.52420404  0.38909006  0.67515924  1
  H+  H246  1  0.50625109  0.62275808  0.16876307  1
  H+  H247  1  0.64121099  0.87993439  0.66085818  1
  H+  H248  1  0.37922426  0.35848991  0.99106775  1
  H+  H249  1  0.79294198  0.40741942  0.82655193  1
  H+  H250  1  0.16300476  0.55254869  -0.01085532  1
  H+  H251  1  0.32771291  0.91647791  0.44390014  1
  H+  H252  1  0.26489250  0.63457386  0.44072186  1
  H+  H253  1  0.26231878  0.13288538  0.82900040  1
  H+  H254  1  0.83385708  0.65882463  -0.07806183  1
  H+  H255  1  0.90486547  0.37576249  0.84008498  1
  H+  H256  1  0.21868340  0.61047040  0.67282801  1
  H+  H257  1  0.12506512  0.47625135  0.16255189  1
  H+  H258  1  0.60556439  0.73244266  0.00222234  1
  H+  H259  1  0.12822967  0.47291601  0.81064163  1
  H+  H260  1  0.11660229  0.74057225  0.68156927  1
  H+  H261  1  0.33100434  0.49225276  0.48674079  1
  H+  H262  1  0.26855307  0.38702479  0.64867618  1
  H+  H263  1  0.20596850  0.35751292  0.51599168  1
  H+  H264  1  0.78228206  0.38295455  0.15423152  1
  H+  H265  1  0.89642944  0.51738819  0.33579992  1
  H+  H266  1  -0.01888142  0.61406125  0.51304524  1
  H+  H267  1  0.13416398  0.11841760  0.16994830  1
  H+  H268  1  0.46942145  0.12166529  0.16900580  1
  H+  H269  1  0.88225003  0.24505549  0.16140627  1
  H+  H270  1  1.00990239  0.62704732  0.99481232  1
  H+  H271  1  0.35926322  0.77669126  0.17868866  1
  H+  H272  1  0.42166282  0.09000565  0.72599574  1
  H+  H273  1  0.11233183  0.65004095  0.68696296  1
  H+  H274  1  0.45271760  0.84754208  0.51232846  1
  H+  H275  1  0.11410368  0.72444749  0.49919467  1
  H+  H276  1  0.78073314  0.15191268  0.32778676  1
  H+  H277  1  0.34310388  0.12392518  0.49570083  1
  H+  H278  1  0.60592267  0.63485048  0.48761940  1
  H+  H279  1  -0.00426192  0.63241731  0.19644675  1
  H+  H280  1  0.86270132  0.72101333  0.49557768  1
  H+  H281  1  0.26734291  0.80046954  0.39248476  1
  H+  H282  1  0.78206227  0.38207217  0.34096553  1
  H+  H283  1  0.34817378  0.30441450  0.45603996  1
  H+  H284  1  0.37524572  0.01226787  0.68187207  1
  H+  H285  1  -0.02809313  0.86661186  -0.00279737  1
  H+  H286  1  0.38501875  0.64468191  1.01610744  1
  H+  H287  1  0.38879467  0.28070632  0.67024756  1
  H+  H288  1  0.93180513  0.83889474  0.93299370  1
  H+  H289  1  0.30618421  0.40773690  0.79521822  1
  H+  H290  1  0.57083568  0.67087233  0.06028889  1
  H+  H291  1  0.90971108  0.33437226  0.60270836  1
  H+  H292  1  0.91461645  0.82542318  0.23144494  1
  H+  H293  1  0.63063771  0.23139505  0.48885351  1
  H+  H294  1  0.87240507  0.24230602  0.33183189  1
  H+  H295  1  0.59376391  0.91385213  0.73532301  1
  H+  H296  1  0.84384856  0.41473109  0.09557701  1
  H+  H297  1  0.41793336  0.32875935  0.90054178  1
  H+  H298  1  0.32880385  0.92253236  0.06903934  1
  H+  H299  1  0.12340462  0.77293669  0.99874228  1
  H+  H300  1  0.39069717  0.07946378  0.57907016  1
  H+  H301  1  0.13379336  0.72869617  0.16806567  1
  H+  H302  1  0.35560368  0.13403814  0.00194822  1
  H+  H303  1  0.68053610  0.34191546  0.56916061  1
  H+  H304  1  0.92225648  0.08982855  0.22559297  1
  H+  H305  1  0.97749568  0.84886877  0.32501774  1
  H+  H306  1  0.78636939  0.39635746  0.00492422  1
  H+  H307  1  0.41074605  0.58671023  0.24256794  1
  H+  H308  1  0.16451529  0.37060416  0.78892961  1
  H+  H309  1  0.55080877  0.90902506  0.06465070  1
  H+  H310  1  0.43143226  0.86286812  0.58042308  1
  H+  H311  1  0.87094946  0.04198407  0.31603021  1
  H+  H312  1  0.65561116  0.30634548  0.84402968  1
  H+  H313  1  0.50519115  0.63002864  0.67958107  1
  H+  H314  1  0.16160171  0.84015145  0.60163104  1
  H+  H315  1  0.04579819  0.94209107  0.75680745  1
  H+  H316  1  0.08095998  0.91142235  0.43242756  1
  H+  H317  1  0.37364007  0.89068605  0.82019680  1
  H+  H318  1  0.15766028  0.08651662  0.89424900  1
  H+  H319  1  0.67888791  0.58776615  0.27838163  1
  H+  H320  1  0.29405149  0.64283920  0.76579028  1
  H+  H321  1  0.60701282  0.92852264  0.41667739  1
  H+  H322  1  0.82963426  0.17357796  0.06515315  1
  H+  H323  1  0.46828939  0.23534095  0.55065798  1
  H+  H324  1  0.92906791  0.58794120  0.28182944  1
  H+  H325  1  0.43358425  0.31845567  0.60769472  1
  H+  H326  1  0.08726396  0.16509248  0.76524565  1
  H+  H327  1  0.67599605  0.60712231  0.63932702  1
  H+  H328  1  0.41650007  0.83981251  0.90131457  1
  H+  H329  1  0.03838028  0.38631346  0.82695741  1
  H+  H330  1  0.08500571  0.66429852  0.44008537  1
  H+  H331  1  0.31814108  0.15334436  0.43317648  1
  H+  H332  1  0.65955143  0.57189590  0.54694035  1
  H+  H333  1  0.40083102  0.83171365  0.27094229  1
  H+  H334  1  0.19273501  0.81193783  0.91698826  1
  H+  H335  1  0.67172154  0.82550225  0.26484963  1
  H+  H336  1  0.53087189  0.41754930  0.36381317  1
  H+  H337  1  0.09069693  0.42295287  0.06625857  1
  H+  H338  1  0.67485834  0.35126660  0.93958001  1
  H+  H339  1  0.61281336  0.63571001  0.34197799  1
  H+  H340  1  0.64062904  0.58114298  0.89770844  1
  H+  H341  1  0.12983149  0.35042760  0.65924812  1
  H+  H342  1  0.03400119  0.62247136  0.34855415  1
  H+  H343  1  0.05052274  0.36156841  0.32409979  1
  H+  H344  1  0.67533108  0.83030964  0.89903684  1
  H+  H345  1  0.31893011  0.16933392  0.73846906  1
  H+  H346  1  0.59388952  0.17134539  0.39163439  1
  H+  H347  1  0.84056977  0.40964001  0.40141674  1
  H+  H348  1  0.66642646  0.84301581  0.59600330  1
  H+  H349  1  0.38395794  0.57322200  0.93439096  1
  H+  H350  1  0.60065026  0.01112513  0.16340580  1
  H+  H351  1  0.07244629  0.65745001  0.05594688  1
  H+  H352  1  0.83714508  0.65891278  0.10542734  1
  H+  H353  1  0.45313226  0.73220776  0.04551794  1
  H+  H354  1  0.15558509  0.07803490  0.26616007  1
  H+  H355  1  0.66198395  0.08395485  0.93472170  1
  H+  H356  1  0.38539441  0.31517651  0.25999446  1
  H+  H357  1  0.02174431  0.13671293  0.34385484  1
  H+  H358  1  0.08111237  0.16505508  0.40341456  1
  H+  H359  1  0.59263285  0.10280114  0.82122199  1
  H+  H360  1  0.64721113  0.01757921  0.84336024  1
  H+  H361  1  0.58092170  0.67065421  0.43031969  1
  H+  H362  1  0.41493116  0.09153997  0.23202369  1
  H+  H363  1  0.88696897  0.49001391  0.82588165  1
  H+  H364  1  0.86035675  0.72589229  -0.02503922  1
  H+  H365  1  0.64599075  0.06893885  0.60608498  1
  H+  H366  1  0.41359658  0.60194693  0.59458440  1
  H+  H367  1  0.58256357  0.15971480  0.73023372  1
  H+  H368  1  0.83765528  0.66002941  0.43607219  1
  H+  H369  1  0.32409169  0.16207377  0.09703436  1
  H+  H370  1  0.82959127  0.16623230  0.77624324  1
  H+  H371  1  0.15591805  0.07720625  0.56508132  1
  H+  H372  1  0.84188989  0.42611726  0.73414540  1
  H+  H373  1  0.15725802  0.31662526  0.58023996  1
  H+  H374  1  0.66785009  0.08324711  0.25568080  1
  H+  H375  1  0.62827192  0.87989097  0.82584653  1
  H+  H376  1  0.90857067  0.57921186  0.59927675  1
  H+  H377  1  0.91186422  0.07888285  0.59562137  1
  H+  H378  1  0.60992540  0.41282017  0.42873029  1
  H+  H379  1  0.93058903  0.34506340  0.90077773  1
  H+  H380  1  0.21587344  0.59311242  0.29904389  1
  H+  H381  1  0.84161393  0.17641175  0.42329782  1
  H+  H382  1  0.76558632  0.14618777  0.00822397  1
  H+  H383  1  0.10901902  0.96558510  0.33377778  1
  O2-  O384  1  0.08571315  0.16913806  0.13773395  1
  O2-  O385  1  0.07740471  0.16246000  0.48090567  1
  O2-  O386  1  0.10650831  0.18351856  0.80771047  1
  O2-  O387  1  0.09257230  0.42076021  0.13957474  1
  O2-  O388  1  0.07226573  0.40154291  0.49056570  1
  O2-  O389  1  0.09358880  0.40909047  0.80436452  1
  O2-  O390  1  0.11321705  0.67806226  0.19474808  1
  O2-  O391  1  0.08273848  0.66302423  0.48570057  1
  O2-  O392  1  0.10161954  0.66940741  0.81980077  1
  O2-  O393  1  0.07822033  0.92599413  0.14134531  1
  O2-  O394  1  0.07805595  0.91003600  0.47760812  1
  O2-  O395  1  0.02342299  0.95017652  0.79644143  1
  O2-  O396  1  0.32258295  0.16411340  0.14256906  1
  O2-  O397  1  0.31415793  0.15425447  0.47851859  1
  O2-  O398  1  0.32389300  0.16283808  0.81421186  1
  O2-  O399  1  0.36887469  0.44128373  0.13555433  1
  O2-  O400  1  0.28811263  0.43331413  0.47473969  1
  O2-  O401  1  0.36636486  0.44476181  0.80994048  1
  O2-  O402  1  0.33370865  0.67697534  0.15474891  1
  O2-  O403  1  0.32538633  0.67217477  0.42632342  1
  O2-  O404  1  0.27231109  0.63163678  0.80858622  1
  O2-  O405  1  0.32802330  0.92853519  0.14625715  1
  O2-  O406  1  0.33131482  0.92841764  0.48828695  1
  O2-  O407  1  0.32722952  0.90292542  0.80994699  1
  O2-  O408  1  0.57324789  0.17469741  0.13889394  1
  O2-  O409  1  0.60377546  0.17726614  0.46599000  1
  O2-  O410  1  0.55593744  0.11937156  0.79760876  1
  O2-  O411  1  0.56559808  0.40536037  0.19345122  1
  O2-  O412  1  0.61796582  0.41605225  0.47443710  1
  O2-  O413  1  0.58194239  0.42207437  0.81489024  1
  O2-  O414  1  0.56425358  0.64163757  0.14742780  1
  O2-  O415  1  0.58080671  0.67065526  0.47604510  1
  O2-  O416  1  0.56961825  0.66385927  0.81787801  1
  O2-  O417  1  0.53451018  0.90812896  0.14388664  1
  O2-  O418  1  0.63642202  0.94313247  0.45781643  1
  O2-  O419  1  0.59938629  0.91144457  0.81032583  1
  O2-  O420  1  0.84673128  0.18062239  0.15050146  1
  O2-  O421  1  0.84247379  0.17108559  0.46869867  1
  O2-  O422  1  0.80781474  0.18470648  0.81048533  1
  O2-  O423  1  0.84257288  0.40721323  0.14067692  1
  O2-  O424  1  0.84026739  0.41631858  0.48119490  1
  O2-  O425  1  0.85030752  0.42950173  0.80791787  1
  O2-  O426  1  0.83475252  0.66484132  0.14931103  1
  O2-  O427  1  0.83213993  0.65926422  0.48195817  1
  O2-  O428  1  0.86758894  0.66807453  0.81579913  1
  O2-  O429  1  0.84367232  0.91809424  0.14150690  1
  O2-  O430  1  0.83095283  0.90753150  0.48180721  1
  O2-  O431  1  0.83273870  0.88995355  0.79890248  1
  O2-  O432  1  0.16010879  0.08494039  0.18769202  1
  O2-  O433  1  0.15256693  0.07249850  0.51942289  1
  O2-  O434  1  0.15951876  0.08717311  0.84911239  1
  O2-  O435  1  0.15367135  0.31969855  0.18851479  1
  O2-  O436  1  0.14918678  0.31519196  0.53419926  1
  O2-  O437  1  0.20127449  0.34728278  0.77489170  1
  O2-  O438  1  0.17945964  0.56686148  0.20631037  1
  O2-  O439  1  0.17932758  0.58535006  0.49638092  1
  O2-  O440  1  0.17798719  0.57909247  0.80090821  1
  O2-  O441  1  0.16345110  0.84697775  0.17509843  1
  O2-  O442  1  0.16265843  0.83084240  0.52292184  1
  O2-  O443  1  0.22065858  0.79290507  0.88662901  1
  O2-  O444  1  0.40982342  0.08962444  0.18557118  1
  O2-  O445  1  0.40315077  0.08896322  0.53578831  1
  O2-  O446  1  0.39857685  0.06741927  0.84972665  1
  O2-  O447  1  0.39549858  0.32387606  0.18611100  1
  O2-  O448  1  0.45345889  0.27971223  0.54259332  1
  O2-  O449  1  0.42132839  0.33026060  0.85516351  1
  O2-  O450  1  0.41427019  0.59013182  0.19661204  1
  O2-  O451  1  0.40666360  0.60610173  0.50675486  1
  O2-  O452  1  0.37031642  0.57240848  0.87021792  1
  O2-  O453  1  0.38767868  0.83720766  0.19439825  1
  O2-  O454  1  0.44415262  0.88727993  0.53738343  1
  O2-  O455  1  0.45174660  0.87797413  0.86683076  1
  O2-  O456  1  0.64518694  0.07235870  0.17231183  1
  O2-  O457  1  0.59578451  0.04197794  0.53456348  1
  O2-  O458  1  0.66260497  0.07488106  0.85982551  1
  O2-  O459  1  0.67332325  0.33821145  0.18484144  1
  O2-  O460  1  0.68458918  0.34332763  0.52304148  1
  O2-  O461  1  0.68220751  0.36504450  0.85920937  1
  O2-  O462  1  0.67792370  0.58868036  0.20194372  1
  O2-  O463  1  0.66738681  0.57674159  0.50306307  1
  O2-  O464  1  0.63783097  0.58327334  0.85220568  1
  O2-  O465  1  0.67417919  0.80901401  0.18319844  1
  O2-  O466  1  0.66439397  0.83000703  0.52302193  1
  O2-  O467  1  0.67529941  0.82485439  0.85390985  1
  O2-  O468  1  0.91903383  0.08292214  0.18060591  1
  O2-  O469  1  0.91359953  0.07413361  0.51414373  1
  O2-  O470  1  0.87457013  0.06500798  0.82654766  1
  O2-  O471  1  0.92909342  0.34113692  0.18037571  1
  O2-  O472  1  0.91717461  0.33776520  0.52380371  1
  O2-  O473  1  0.93301412  0.34389658  0.85552077  1
  O2-  O474  1  0.93585740  0.60590107  0.21078302  1
  O2-  O475  1  0.91953258  0.58223188  0.52758140  1
  O2-  O476  1  0.93764902  0.57922992  0.85645541  1
  O2-  O477  1  0.91543136  0.82808522  0.18600750  1
  O2-  O478  1  0.91494014  0.82341748  0.52037600  1
  O2-  O479  1  0.97695511  0.82383546  0.86820763  1
  O2-  O480  1  0.15391706  0.07097972  0.31143500  1
  O2-  O481  1  0.15829841  0.08589990  0.64164326  1
  O2-  O482  1  0.16238438  0.08840514  0.97651155  1
  O2-  O483  1  0.13097954  0.32761057  0.31287545  1
  O2-  O484  1  0.16382560  0.32163583  0.65514199  1
  O2-  O485  1  0.15480806  0.33719717  0.98394538  1
  O2-  O486  1  0.21002787  0.60497698  0.34227519  1
  O2-  O487  1  0.15599880  0.58026249  0.68182836  1
  O2-  O488  1  0.19426915  0.61511438  0.98742368  1
  O2-  O489  1  0.15393625  0.80857824  0.30037505  1
  O2-  O490  1  0.16601685  0.84487585  0.64687438  1
  O2-  O491  1  0.15430667  0.83504840  0.98490041  1
  O2-  O492  1  0.41910375  0.08802839  0.30378342  1
  O2-  O493  1  0.40806762  0.07760102  0.68284915  1
  O2-  O494  1  0.40948366  0.08220189  0.97345225  1
  O2-  O495  1  0.39247078  0.31595464  0.30584532  1
  O2-  O496  1  0.42690194  0.33643451  0.64957685  1
  O2-  O497  1  0.41315216  0.33123889  0.97883311  1
  O2-  O498  1  0.40825030  0.58373903  0.31734033  1
  O2-  O499  1  0.41196341  0.59101444  0.63862996  1
  O2-  O500  1  0.39686483  0.57310855  0.98172469  1
  O2-  O501  1  0.41240004  0.83044527  0.31535293  1
  O2-  O502  1  0.41856760  0.83658308  0.65077978  1
  O2-  O503  1  0.35533371  0.79774999  0.96461599  1
  O2-  O504  1  0.67524974  0.08602677  0.30031593  1
  O2-  O505  1  0.66191522  0.07768020  0.64998687  1
  O2-  O506  1  0.65962791  0.08892007  0.98053760  1
  O2-  O507  1  0.67862923  0.33581030  0.31144539  1
  O2-  O508  1  0.67195733  0.33930008  0.64413251  1
  O2-  O509  1  0.67156621  0.34226706  0.98431953  1
  O2-  O510  1  0.67472343  0.58658683  0.32391652  1
  O2-  O511  1  0.67297471  0.59001297  0.68152217  1
  O2-  O512  1  0.65429493  0.58382101  0.97350187  1
  O2-  O513  1  0.66688120  0.82956015  0.30945111  1
  O2-  O514  1  0.67421171  0.85153529  0.64169453  1
  O2-  O515  1  0.66096462  0.83440228  0.97815425  1
  O2-  O516  1  0.91679238  0.09912425  0.30505858  1
  O2-  O517  1  0.91012517  0.07559259  0.64077077  1
  O2-  O518  1  0.90318778  0.08402615  0.96590580  1
  O2-  O519  1  0.93407035  0.34270000  0.30718074  1
  O2-  O520  1  0.90631448  0.33378938  0.64807410  1
  O2-  O521  1  0.92835619  0.34351777  0.98126953  1
  O2-  O522  1  0.92842687  0.58044953  0.32772877  1
  O2-  O523  1  0.90206695  0.57410446  0.64560573  1
  O2-  O524  1  0.92838858  0.57404603  0.97127495  1
  O2-  O525  1  0.91638714  0.81338216  0.31020064  1
  O2-  O526  1  0.91027002  0.82996371  0.64416404  1
  O2-  O527  1  0.91426748  0.83675359  0.97640765  1
  O2-  O528  1  0.07335083  0.17228772  0.01471059  1
  O2-  O529  1  0.08199289  0.16436269  0.35763591  1
  O2-  O530  1  0.08064854  0.16367201  0.68291287  1
  O2-  O531  1  0.08908460  0.41828832  0.02002723  1
  O2-  O532  1  0.01828769  0.39109317  0.33690972  1
  O2-  O533  1  0.06574464  0.40585454  0.68404126  1
  O2-  O534  1  0.07509002  0.66910096  0.01261415  1
  O2-  O535  1  0.09458663  0.66165554  0.36245035  1
  O2-  O536  1  0.08626661  0.68398207  0.70195206  1
  O2-  O537  1  0.07556078  0.92292030  0.01862170  1
  O2-  O538  1  0.07983359  0.90519263  0.34991363  1
  O2-  O539  1  0.07832229  0.92597883  0.68532929  1
  O2-  O540  1  0.32706968  0.16490284  0.01907336  1
  O2-  O541  1  0.31954288  0.15239712  0.35441467  1
  O2-  O542  1  0.32099256  0.17212226  0.69263992  1
  O2-  O543  1  0.31753167  0.40943101  0.01519717  1
  O2-  O544  1  0.30547700  0.41297439  0.34730993  1
  O2-  O545  1  0.33215410  0.42724152  0.64368182  1
  O2-  O546  1  0.39146155  0.69741961  0.03873889  1
  O2-  O547  1  0.31922606  0.66295159  0.36035432  1
  O2-  O548  1  0.32955265  0.66416022  0.68937457  1
  O2-  O549  1  0.32449148  0.92030577  0.02351741  1
  O2-  O550  1  0.29669150  0.85743655  0.37389740  1
  O2-  O551  1  0.32568452  0.90820155  0.68878597  1
  O2-  O552  1  0.57530750  0.17500183  0.01561848  1
  O2-  O553  1  0.59026120  0.17225864  0.34594482  1
  O2-  O554  1  0.59071578  0.17343829  0.68502118  1
  O2-  O555  1  0.58431472  0.41849473  0.02185805  1
  O2-  O556  1  0.58867487  0.42627550  0.35896599  1
  O2-  O557  1  0.58595188  0.42137472  0.69058748  1
  O2-  O558  1  0.57339052  0.67070461  0.01570090  1
  O2-  O559  1  0.57896599  0.66372367  0.35371648  1
  O2-  O560  1  0.56055055  0.65821264  0.70289173  1
  O2-  O561  1  0.56451404  0.91245554  0.02044362  1
  O2-  O562  1  0.58323288  0.91697780  0.34303761  1
  O2-  O563  1  0.59016517  0.91629955  0.68954631  1
  O2-  O564  1  0.82728737  0.17441958  0.02033146  1
  O2-  O565  1  0.83960473  0.18075213  0.34584141  1
  O2-  O566  1  0.83673509  0.16247913  0.68210984  1
  O2-  O567  1  0.84732250  0.42342086  0.01783184  1
  O2-  O568  1  0.84261628  0.40969677  0.35605981  1
  O2-  O569  1  0.83628971  0.42343611  0.68792394  1
  O2-  O570  1  0.82739322  0.66283079  -0.03406764  1
  O2-  O571  1  0.83856219  0.65429609  0.36182295  1
  O2-  O572  1  0.84828475  0.66583576  0.69768031  1
  O2-  O573  1  0.82360930  0.91164994  0.01441721  1
  O2-  O574  1  0.82799002  0.89006301  0.36252337  1
  O2-  O575  1  0.82647504  0.91463282  0.67477857  1
