# generated using pymatgen
data_H2O
_symmetry_space_group_name_H-M   'P 1'
_cell_length_a   17.98275315
_cell_length_b   17.98391534
_cell_length_c   22.01088079
_cell_angle_alpha   89.97749284
_cell_angle_beta   90.04676084
_cell_angle_gamma   120.00493679
_symmetry_Int_Tables_number   1
_chemical_formula_structural   H2O
_chemical_formula_sum   'H384 O192'
_cell_volume   6164.34212103
_cell_formula_units_Z   192
loop_
 _symmetry_equiv_pos_site_id
 _symmetry_equiv_pos_as_xyz
  1  'x, y, z'
loop_
 _atom_type_symbol
 _atom_type_oxidation_number
  H+  1.0
  O2-  -2.0
loop_
 _atom_site_type_symbol
 _atom_site_label
 _atom_site_symmetry_multiplicity
 _atom_site_fract_x
 _atom_site_fract_y
 _atom_site_fract_z
 _atom_site_occupancy
  H+  H0  1  0.15020877  0.87668349  0.53796398  1
  H+  H1  1  0.04717508  0.64995855  0.82890790  1
  H+  H2  1  0.62359614  0.62545109  0.50607108  1
  H+  H3  1  0.36950740  0.64214363  0.14802714  1
  H+  H4  1  0.12467379  0.48531435  0.04357485  1
  H+  H5  1  0.39308863  0.03872285  0.68351760  1
  H+  H6  1  0.53113052  0.39026832  0.34953575  1
  H+  H7  1  0.13635385  0.76175129  0.17017354  1
  H+  H8  1  0.13014551  0.27177337  0.30930705  1
  H+  H9  1  0.62360515  0.86618485  0.83941977  1
  H+  H10  1  0.86050417  0.70353154  0.65878041  1
  H+  H11  1  0.22822609  0.61360115  0.51662595  1
  H+  H12  1  0.84911940  0.97213557  0.35098477  1
  H+  H13  1  0.71870285  0.35872547  0.54785086  1
  H+  H14  1  0.39499644  0.26684762  0.98135801  1
  H+  H15  1  -0.02005664  0.12689383  0.64457069  1
  H+  H16  1  0.26787445  0.40964201  0.16533083  1
  H+  H17  1  0.62732398  0.34745314  0.16177847  1
  H+  H18  1  0.85491844  0.72396336  0.35934500  1
  H+  H19  1  0.90058588  0.52408673  0.52021625  1
  H+  H20  1  0.59896686  0.18818493  0.15738479  1
  H+  H21  1  -0.03467551  0.11373331  0.50542631  1
  H+  H22  1  0.37333795  0.13543033  -0.00232869  1
  H+  H23  1  0.06524045  0.63105602  0.37516204  1
  H+  H24  1  0.59942645  0.45845279  0.15253421  1
  H+  H25  1  0.10265014  0.74148023  0.67213463  1
  H+  H26  1  0.11261496  0.98144917  0.01287252  1
  H+  H27  1  0.16238686  0.14176652  0.50224798  1
  H+  H28  1  0.36477120  0.64687055  0.50549614  1
  H+  H29  1  0.00329229  0.60144652  0.69460486  1
  H+  H30  1  0.88928634  0.60218256  0.86665445  1
  H+  H31  1  0.37799933  0.37754658  0.14501745  1
  H+  H32  1  0.61810411  0.47778078  0.33482017  1
  H+  H33  1  0.47543817  0.60470310  0.83914701  1
  H+  H34  1  0.32683156  0.41650112  0.72883303  1
  H+  H35  1  0.87284517  0.48863874  0.83299231  1
  H+  H36  1  0.63832262  0.77441065  0.99199664  1
  H+  H37  1  0.39291174  0.87093495  -0.01102006  1
  H+  H38  1  0.37618557  0.98757987  -0.00131462  1
  H+  H39  1  0.27773728  0.88017429  0.15374120  1
  H+  H40  1  0.46140153  0.36899722  0.12922201  1
  H+  H41  1  0.37656426  0.52782617  0.65855119  1
  H+  H42  1  0.61154812  0.63237729  0.00471313  1
  H+  H43  1  0.96217351  0.15320321  0.14697627  1
  H+  H44  1  0.63094672  0.16388754  -0.01536066  1
  H+  H45  1  0.89475498  0.37943993  0.83452915  1
  H+  H46  1  0.39109506  0.87675506  0.50543649  1
  H+  H47  1  0.89340877  0.50751688  0.01279388  1
  H+  H48  1  0.74968339  0.89234726  1.00209954  1
  H+  H49  1  0.36467462  0.72661379  0.33197418  1
  H+  H50  1  0.87540200  0.11237442  0.32366179  1
  H+  H51  1  0.37853892  0.63196389  0.32077726  1
  H+  H52  1  0.36652173  0.72375465  -0.00651748  1
  H+  H53  1  0.38642962  0.26572677  0.83568449  1
  H+  H54  1  0.36058864  0.39433528  0.34866669  1
  H+  H55  1  0.37664629  0.14738975  0.48086007  1
  H+  H56  1  0.10506979  0.38489114  0.33142559  1
  H+  H57  1  0.45019706  0.10382023  0.03446624  1
  H+  H58  1  0.63505329  0.10896231  0.31107670  1
  H+  H59  1  0.62303940  0.25268078  0.67214582  1
  H+  H60  1  0.51870038  0.88628721  0.83734244  1
  H+  H61  1  0.27136552  0.13578779  0.33246889  1
  H+  H62  1  0.57931144  0.58227065  0.68707589  1
  H+  H63  1  0.12665824  0.88667891  0.16343996  1
  H+  H64  1  0.17518287  0.82696074  0.88296194  1
  H+  H65  1  0.61691679  0.64914913  0.15092106  1
  H+  H66  1  0.63461416  0.86815870  0.18181357  1
  H+  H67  1  0.47756338  0.87159665  0.50954958  1
  H+  H68  1  0.11467209  0.38886309  0.82713824  1
  H+  H69  1  0.09931890  0.86240649  0.68988027  1
  H+  H70  1  0.10553262  0.76544061  0.97794098  1
  H+  H71  1  0.67370470  0.09427931  0.60339432  1
  H+  H72  1  0.38720358  0.28159327  0.35154774  1
  H+  H73  1  0.84979293  0.55000289  0.42001183  1
  H+  H74  1  0.97410334  0.83795078  0.67393246  1
  H+  H75  1  0.10992582  0.85576979  -0.01442078  1
  H+  H76  1  0.66080405  0.38689427  0.00172206  1
  H+  H77  1  0.02160443  0.39516561  0.32765157  1
  H+  H78  1  0.72165061  0.61398094  0.32806634  1
  H+  H79  1  0.90132309  0.35736948  0.25261708  1
  H+  H80  1  0.35612062  0.72997798  0.50357349  1
  H+  H81  1  0.12033481  1.00410109  0.68241687  1
  H+  H82  1  0.27822996  0.63872278  0.14348713  1
  H+  H83  1  0.47974890  0.87486892  1.00499767  1
  H+  H84  1  0.61792273  0.98163763  0.67369312  1
  H+  H85  1  0.75862710  0.90507863  0.15468778  1
  H+  H86  1  0.53364238  0.38911480  -0.00110474  1
  H+  H87  1  0.26345291  0.39119746  0.67121707  1
  H+  H88  1  0.64681875  0.12151088  0.50441314  1
  H+  H89  1  0.14828365  0.62901700  0.82930927  1
  H+  H90  1  0.12277895  0.08400903  0.84534318  1
  H+  H91  1  0.70631702  0.60867121  0.99376380  1
  H+  H92  1  0.64046444  0.37917233  0.82874315  1
  H+  H93  1  0.89149434  0.77206924  0.16252241  1
  H+  H94  1  0.02674754  0.62679947  0.15577038  1
  H+  H95  1  0.86539689  0.63802004  0.51117005  1
  H+  H96  1  0.09824583  0.46931994  0.67518077  1
  H+  H97  1  0.63083180  0.60156542  0.84960579  1
  H+  H98  1  0.06616402  0.86239435  0.89190388  1
  H+  H99  1  0.90704112  0.79990735  0.51743499  1
  H+  H100  1  0.74133033  0.80807952  0.73063760  1
  H+  H101  1  0.74327131  0.38588678  0.82302045  1
  H+  H102  1  0.99219970  1.01134926  0.14627531  1
  H+  H103  1  0.64416434  0.03137946  0.51066007  1
  H+  H104  1  0.85426493  0.77776157  0.17227992  1
  H+  H105  1  0.85222594  0.47986486  0.31484381  1
  H+  H106  1  0.82467929  0.64206890  -0.04837075  1
  H+  H107  1  0.89812004  0.27112991  0.49680392  1
  H+  H108  1  0.52549466  0.64096456  0.00445231  1
  H+  H109  1  0.39957587  0.04449430  0.48903772  1
  H+  H110  1  0.65232843  0.28691167  0.83410611  1
  H+  H111  1  0.97275124  0.85920758  0.99932888  1
  H+  H112  1  0.77587585  0.14093042  0.33298222  1
  H+  H113  1  0.49089869  0.13012543  0.85737336  1
  H+  H114  1  0.54077270  0.15951459  -0.02423616  1
  H+  H115  1  0.61067549  0.88030320  0.34287385  1
  H+  H116  1  0.23119419  0.11417578  0.99451343  1
  H+  H117  1  0.75235793  0.13440865  1.01369323  1
  H+  H118  1  0.11293877  0.12867828  0.66738559  1
  H+  H119  1  0.10917432  0.12840597  0.01261171  1
  H+  H120  1  1.02677321  0.62811402  1.00728606  1
  H+  H121  1  0.71405044  0.86140647  0.52101872  1
  H+  H122  1  0.12078722  0.12464751  0.16922719  1
  H+  H123  1  0.86401083  0.22964027  0.67003764  1
  H+  H124  1  0.14376556  0.51754628  0.31194810  1
  H+  H125  1  0.26383233  0.14168036  0.49441541  1
  H+  H126  1  0.27439817  0.63984944  0.82723342  1
  H+  H127  1  0.58140608  0.67389948  0.44710288  1
  H+  H128  1  0.89455001  0.40064661  0.49342400  1
  H+  H129  1  0.87294076  0.24954151  0.82530731  1
  H+  H130  1  0.14316416  0.37206974  0.49956283  1
  H+  H131  1  0.86749704  0.14248560  0.67113937  1
  H+  H132  1  0.86877130  0.13669846  0.48813879  1
  H+  H133  1  0.21846649  0.59786384  -0.00157451  1
  H+  H134  1  0.36029326  0.37771103  0.05570390  1
  H+  H135  1  0.78274053  0.14421515  0.48561975  1
  H+  H136  1  0.13174635  0.85488219  0.33882956  1
  H+  H137  1  0.23313026  0.36097954  0.83825381  1
  H+  H138  1  0.36304225  0.13177003  0.84448463  1
  H+  H139  1  0.13577894  0.27519974  0.65219524  1
  H+  H140  1  0.87688416  0.86400832  0.37110676  1
  H+  H141  1  0.49345489  0.63156809  0.51226580  1
  H+  H142  1  0.83134231  0.62828866  0.61310269  1
  H+  H143  1  0.12406576  0.10162982  0.31021957  1
  H+  H144  1  0.85568738  0.38714528  0.32037254  1
  H+  H145  1  0.73228410  0.60941220  0.15691176  1
  H+  H146  1  0.39075305  0.51830251  0.99342194  1
  H+  H147  1  0.28199524  0.89656391  0.33970618  1
  H+  H148  1  0.66681615  0.71280283  0.79757398  1
  H+  H149  1  0.61203597  0.88552600  0.50793443  1
  H+  H150  1  0.43521962  0.38991834  0.58549444  1
  H+  H151  1  0.35674206  0.62629066  0.82464171  1
  H+  H152  1  0.26916073  0.12222347  0.84626075  1
  H+  H153  1  0.80212015  0.52264106  0.42200456  1
  H+  H154  1  -0.04035721  0.60005001  0.30717267  1
  H+  H155  1  0.49607383  0.36209253  0.67030564  1
  H+  H156  1  0.42354376  0.34737404  0.40668876  1
  H+  H157  1  0.48300200  0.86610467  0.34097743  1
  H+  H158  1  0.34919621  0.13691842  0.69149438  1
  H+  H159  1  0.61185125  0.49056031  0.00434102  1
  H+  H160  1  0.52123093  0.96507307  0.80398047  1
  H+  H161  1  0.71609688  0.62342661  0.51250209  1
  H+  H162  1  0.08048255  0.65595145  0.74488169  1
  H+  H163  1  0.63716766  0.36410927  0.31873852  1
  H+  H164  1  0.75674237  0.38265272  0.31648280  1
  H+  H165  1  0.48428535  0.62723807  0.16847166  1
  H+  H166  1  0.34130904  0.92201938  0.05341636  1
  H+  H167  1  0.16240709  0.05173608  0.52309281  1
  H+  H168  1  0.78400035  0.38979679  0.02314455  1
  H+  H169  1  0.14273657  0.37967488  0.16506105  1
  H+  H170  1  0.84760105  0.98845523  0.00366400  1
  H+  H171  1  0.89202651  0.59574683  0.99863911  1
  H+  H172  1  0.36432687  0.14112834  0.33396097  1
  H+  H173  1  0.36068472  0.10542154  0.17420064  1
  H+  H174  1  0.37847234  0.98649804  0.83914605  1
  H+  H175  1  0.12082191  0.48414883  0.49213751  1
  H+  H176  1  0.64954358  0.04198231  0.85302935  1
  H+  H177  1  0.11259406  0.97442659  0.33363475  1
  H+  H178  1  0.48002573  0.62294072  0.32303731  1
  H+  H179  1  0.47962435  0.88653891  0.66065038  1
  H+  H180  1  0.36950275  0.89635021  0.34938602  1
  H+  H181  1  0.98179529  0.37525719  0.83880618  1
  H+  H182  1  0.37541337  0.91932790  0.67759371  1
  H+  H183  1  0.82176857  0.99116260  0.77754232  1
  H+  H184  1  0.66015567  0.30059826  0.98285937  1
  H+  H185  1  0.85899846  0.56717278  0.68976362  1
  H+  H186  1  0.71091674  0.33610987  0.16973256  1
  H+  H187  1  0.52592958  0.13227127  0.69867156  1
  H+  H188  1  0.61117056  0.47307614  0.83771593  1
  H+  H189  1  0.60172464  0.32812744  0.66461177  1
  H+  H190  1  0.62786224  0.76875903  0.51738610  1
  H+  H191  1  0.62273768  0.22709837  0.32435582  1
  H+  H192  1  0.14723452  0.98297635  0.15970765  1
  H+  H193  1  0.35756502  0.48005296  0.33342502  1
  H+  H194  1  0.39821117  0.35764763  0.97944798  1
  H+  H195  1  0.89028451  0.14403688  0.02264478  1
  H+  H196  1  0.85429110  0.63899450  0.33473770  1
  H+  H197  1  0.13231450  0.60189918  1.00653906  1
  H+  H198  1  0.89295743  -0.00055990  0.65039575  1
  H+  H199  1  0.37094678  0.40425879  0.48536396  1
  H+  H200  1  -0.11598547  0.06141886  0.26759492  1
  H+  H201  1  0.12586519  -0.00245950  0.85792791  1
  H+  H202  1  0.14462969  0.27436012  0.83810206  1
  H+  H203  1  0.12039416  0.63635622  0.15289481  1
  H+  H204  1  0.73292224  0.11991301  0.66295599  1
  H+  H205  1  0.12030758  0.64411924  0.51779334  1
  H+  H206  1  0.38473193  0.60484154  0.98682041  1
  H+  H207  1  0.10000046  0.70478388  0.32695298  1
  H+  H208  1  0.12819144  0.24308994  0.49575998  1
  H+  H209  1  -0.04737244  0.83842704  0.83696326  1
  H+  H210  1  0.91018752  0.29008829  1.00008142  1
  H+  H211  1  0.63474356  0.77929659  0.17100474  1
  H+  H212  1  0.43376617  0.11406322  0.63099018  1
  H+  H213  1  0.98998762  0.92166276  0.15210347  1
  H+  H214  1  0.36898917  0.88797618  0.15552714  1
  H+  H215  1  0.23352889  0.37454950  0.50446096  1
  H+  H216  1  1.01102707  0.12633409  0.82685564  1
  H+  H217  1  0.81242947  0.40778242  0.48005051  1
  H+  H218  1  0.74326374  0.12647892  0.84801332  1
  H+  H219  1  0.59479146  0.95218818  0.12759116  1
  H+  H220  1  0.11897475  0.59511004  0.66709164  1
  H+  H221  1  0.72059160  0.86001567  0.33494325  1
  H+  H222  1  0.33102964  0.92724066  0.43762175  1
  H+  H223  1  0.28345734  0.36816361  0.00957695  1
  H+  H224  1  0.98946034  0.35991187  0.50123568  1
  H+  H225  1  0.36499031  0.46763330  0.82478742  1
  H+  H226  1  0.16628379  0.07856714  0.25957398  1
  H+  H227  1  0.10937137  0.97391112  0.58940368  1
  H+  H228  1  0.77221386  0.85742234  0.64595110  1
  H+  H229  1  0.38934854  0.76647772  0.15324514  1
  H+  H230  1  0.35620066  0.23510513  0.13234868  1
  H+  H231  1  0.34519797  0.62932509  0.67280604  1
  H+  H232  1  0.86048492  0.94170628  0.14582512  1
  H+  H233  1  0.64143098  1.01939413  0.22023103  1
  H+  H234  1  0.52681733  0.37901980  0.82752851  1
  H+  H235  1  0.86018857  -0.01374203  0.78524996  1
  H+  H236  1  0.28101901  0.90342622  0.50215528  1
  H+  H237  1  0.87984663  0.55820701  0.15044362  1
  H+  H238  1  0.09685808  0.37979635  0.67226342  1
  H+  H239  1  0.21018725  0.59665499  0.66761466  1
  H+  H240  1  0.63598830  0.24304712  0.48175261  1
  H+  H241  1  0.73686341  0.84070707  0.79719126  1
  H+  H242  1  0.49976721  0.38241867  0.48825130  1
  H+  H243  1  0.39048642  0.54006477  0.17249690  1
  H+  H244  1  0.14472909  0.53757916  0.83295960  1
  H+  H245  1  0.53209766  0.14151854  0.32840911  1
  H+  H246  1  0.89681287  0.14980138  0.84391396  1
  H+  H247  1  0.14836352  0.52973024  0.15132886  1
  H+  H248  1  0.62479101  0.49494833  0.49475627  1
  H+  H249  1  0.49056912  0.13447099  0.48265072  1
  H+  H250  1  0.05649753  0.16179188  0.24953916  1
  H+  H251  1  0.73775618  0.68462064  0.19447888  1
  H+  H252  1  0.85800958  0.82046593  0.81776370  1
  H+  H253  1  -0.01850974  0.11157238  -0.00116164  1
  H+  H254  1  0.85874552  0.99724878  0.50207191  1
  H+  H255  1  0.43193934  0.09502731  0.91601253  1
  H+  H256  1  0.41425111  0.75564868  0.84808622  1
  H+  H257  1  0.93396171  0.85367454  0.45865170  1
  H+  H258  1  0.96309069  0.36021582  0.65658077  1
  H+  H259  1  0.14768592  0.76528398  0.82292717  1
  H+  H260  1  0.96617810  0.86394734  0.36128734  1
  H+  H261  1  0.66991107  0.58814183  0.26552653  1
  H+  H262  1  0.86140961  0.90776190  0.50166023  1
  H+  H263  1  0.14282989  0.60466445  0.30673235  1
  H+  H264  1  0.14613449  0.26254593  0.99913689  1
  H+  H265  1  0.49825344  0.59779971  0.68972403  1
  H+  H266  1  0.31754834  0.65674469  0.73319517  1
  H+  H267  1  0.27525444  0.63224049  0.32148265  1
  H+  H268  1  0.16159141  0.57240210  0.57329858  1
  H+  H269  1  0.88074772  0.28488570  0.30631964  1
  H+  H270  1  0.60906555  0.43529688  0.43541016  1
  H+  H271  1  0.62098683  0.12210693  0.18385043  1
  H+  H272  1  0.16756528  0.81048668  0.38084053  1
  H+  H273  1  0.14650467  0.78535182  0.52646442  1
  H+  H274  1  0.03347399  0.64570810  0.52769709  1
  H+  H275  1  0.60284067  0.63274766  0.33546376  1
  H+  H276  1  0.61875293  0.77657465  0.83946313  1
  H+  H277  1  0.60642817  0.72357409  0.33751754  1
  H+  H278  1  0.85997465  0.66490493  0.12537117  1
  H+  H279  1  0.84515510  0.70221819  0.86346066  1
  H+  H280  1  0.66637719  0.38243616  0.50128607  1
  H+  H281  1  0.52893769  0.89227300  0.17604520  1
  H+  H282  1  0.38490801  0.38650105  0.64532264  1
  H+  H283  1  0.36303862  1.01756772  0.17717811  1
  H+  H284  1  0.21860145  0.36053448  0.32578499  1
  H+  H285  1  0.70502179  0.59223972  0.65477137  1
  H+  H286  1  0.39602458  0.03888070  0.32918664  1
  H+  H287  1  0.61395925  0.12762932  0.68803732  1
  H+  H288  1  0.86929370  0.93638900  0.70728027  1
  H+  H289  1  0.09225288  0.17744027  0.44018152  1
  H+  H290  1  0.92737448  0.86730381  0.25984761  1
  H+  H291  1  0.92294391  0.10434686  0.94065759  1
  H+  H292  1  0.16047465  0.07716694  0.94226682  1
  H+  H293  1  0.57766444  0.64048563  0.76940470  1
  H+  H294  1  0.91376189  0.09568167  0.58488071  1
  H+  H295  1  0.42361626  0.32979465  0.89097718  1
  H+  H296  1  0.67778954  0.80775248  0.62225315  1
  H+  H297  1  0.20810232  0.19007570  0.20489087  1
  H+  H298  1  0.54353900  1.01022446  0.07440878  1
  H+  H299  1  0.83451974  0.66397904  0.45214620  1
  H+  H300  1  0.80732328  0.93836964  0.07234361  1
  H+  H301  1  0.89790919  0.84815393  0.65008500  1
  H+  H302  1  0.58067688  0.92546942  0.73227774  1
  H+  H303  1  0.64415822  0.56906512  0.91717543  1
  H+  H304  1  0.17864988  0.58216871  0.21473231  1
  H+  H305  1  0.82762991  0.36427872  0.62801539  1
  H+  H306  1  0.42998743  0.86637129  0.28449595  1
  H+  H307  1  0.45112494  0.27291735  0.23642557  1
  H+  H308  1  0.33501630  0.16819093  0.05105080  1
  H+  H309  1  0.09843116  0.93091297  0.39822793  1
  H+  H310  1  0.20880258  0.09064493  0.67276145  1
  H+  H311  1  0.16372434  0.34069897  0.59674641  1
  H+  H312  1  0.44965906  0.02036450  0.57789146  1
  H+  H313  1  0.02360969  0.06765641  0.78114679  1
  H+  H314  1  0.83761396  0.17317519  0.39128323  1
  H+  H315  1  0.35315502  0.94317633  0.74281585  1
  H+  H316  1  0.64378508  0.57346082  0.59895761  1
  H+  H317  1  0.66736361  0.83331793  0.27123386  1
  H+  H318  1  0.40715496  0.29259886  0.49099307  1
  H+  H319  1  0.15716302  0.81608465  0.62306330  1
  H+  H320  1  0.33150390  0.43448015  0.43341488  1
  H+  H321  1  0.91712417  0.32513351  0.59241285  1
  H+  H322  1  0.66246570  0.83547820  0.93321797  1
  H+  H323  1  0.08657343  0.91872487  0.07009964  1
  H+  H324  1  0.90750023  0.49116580  0.18147680  1
  H+  H325  1  0.90383578  0.57178300  0.24709224  1
  H+  H326  1  0.41839350  0.57246404  0.89854771  1
  H+  H327  1  0.59947090  0.17211030  0.78342840  1
  H+  H328  1  0.90899030  0.83082487  0.94282681  1
  H+  H329  1  0.58380517  0.67447842  0.09060433  1
  H+  H330  1  0.65845622  0.33023983  0.25464026  1
  H+  H331  1  0.84656539  0.47706639  0.66625418  1
  H+  H332  1  0.29505381  0.89579544  0.82740125  1
  H+  H333  1  0.26990826  0.14864338  0.14467523  1
  H+  H334  1  0.16811851  0.35395751  0.22917628  1
  H+  H335  1  0.61147072  0.96947274  0.33964977  1
  H+  H336  1  0.08681665  0.17053728  0.72037067  1
  H+  H337  1  0.17484592  0.82108838  0.22906889  1
  H+  H338  1  0.42052443  0.59506027  0.60370678  1
  H+  H339  1  0.40654325  0.79212722  0.22032609  1
  H+  H340  1  0.81832412  0.92369467  0.41598859  1
  H+  H341  1  0.04190592  0.71471186  0.43374871  1
  H+  H342  1  0.36456809  0.37842303  0.82093936  1
  H+  H343  1  0.87200134  0.38487511  0.01838073  1
  H+  H344  1  0.07913454  0.41207594  0.76729505  1
  H+  H345  1  0.33745329  0.66363173  0.05053773  1
  H+  H346  1  0.07376702  0.89225263  0.75133933  1
  H+  H347  1  0.75584297  0.61162542  0.86848801  1
  H+  H348  1  0.84499941  0.18318755  0.76733886  1
  H+  H349  1  0.73492002  0.35930500  0.63835545  1
  H+  H350  1  0.42352589  0.59789587  0.25829592  1
  H+  H351  1  0.92926242  0.56623763  0.91329971  1
  H+  H352  1  0.04334628  0.92156902  0.53506975  1
  H+  H353  1  0.85286874  0.46248977  0.76411810  1
  H+  H354  1  0.47607431  0.32014472  0.24284020  1
  H+  H355  1  0.81018498  0.61273035  0.06920929  1
  H+  H356  1  0.91787274  0.33927547  0.93798472  1
  H+  H357  1  0.06482164  0.14812878  0.06911259  1
  H+  H358  1  0.86773725  0.71865567  -0.00201726  1
  H+  H359  1  0.11766357  0.86647520  0.83638786  1
  H+  H360  1  0.58219340  0.41437163  0.08619713  1
  H+  H361  1  0.69981402  0.10196962  0.95078581  1
  H+  H362  1  0.00933346  0.12980278  0.30954971  1
  H+  H363  1  0.90824844  0.56021769  0.58694898  1
  H+  H364  1  0.61843852  1.01985217  0.03399395  1
  H+  H365  1  0.09129649  0.42933071  0.42919954  1
  H+  H366  1  0.09084441  0.67447894  0.06157218  1
  H+  H367  1  0.44577209  0.81385772  0.90900607  1
  H+  H368  1  0.63381255  0.16171225  0.84890924  1
  H+  H369  1  0.32512177  0.44635129  0.10487761  1
  H+  H370  1  0.33325213  0.17200989  0.42441086  1
  H+  H371  1  0.18063974  0.32170839  0.93992838  1
  H+  H372  1  0.59008773  0.91724603  0.44573493  1
  H+  H373  1  0.88169558  0.05678123  0.85417104  1
  H+  H374  1  0.41761242  0.85878743  0.60310769  1
  H+  H375  1  0.02092842  0.73246145  0.41324526  1
  H+  H376  1  0.55900175  0.39356383  0.72788629  1
  H+  H377  1  0.60559967  0.18047863  0.42383050  1
  H+  H378  1  0.83318282  0.37446071  0.11171531  1
  H+  H379  1  0.40750298  0.08763088  0.26678881  1
  H+  H380  1  0.39886897  0.54408848  0.51058536  1
  H+  H381  1  0.49764461  0.04602631  0.57951475  1
  H+  H382  1  0.92373701  0.90649021  0.26567122  1
  H+  H383  1  0.30759932  0.15117519  0.74884722  1
  O2-  O384  1  0.04432299  0.11234049  0.13769470  1
  O2-  O385  1  0.10224445  0.17993920  0.48376087  1
  O2-  O386  1  0.05648601  0.12175553  0.80304404  1
  O2-  O387  1  0.10247475  0.43511179  0.12672393  1
  O2-  O388  1  0.09379071  0.42443210  0.47385930  1
  O2-  O389  1  0.08226061  0.41659378  0.81276777  1
  O2-  O390  1  0.08757052  0.66664092  0.14334674  1
  O2-  O391  1  0.09207553  0.67926513  0.51064258  1
  O2-  O392  1  0.10141461  0.67714897  0.80639619  1
  O2-  O393  1  0.10390045  0.92433379  0.14943128  1
  O2-  O394  1  0.10553440  0.95448065  0.54675673  1
  O2-  O395  1  0.07425976  0.88590826  0.85023607  1
  O2-  O396  1  0.32948944  0.17114488  0.13008437  1
  O2-  O397  1  0.33989848  0.17694935  0.47006433  1
  O2-  O398  1  0.32765384  0.15675530  0.82925062  1
  O2-  O399  1  0.33084441  0.44438225  0.14921892  1
  O2-  O400  1  0.33521617  0.43135723  0.47837877  1
  O2-  O401  1  0.33158746  0.40752459  0.80880426  1
  O2-  O402  1  0.33953645  0.66994847  0.12824262  1
  O2-  O403  1  0.32607759  0.66843448  0.49183618  1
  O2-  O404  1  0.33745176  0.66691496  0.81299848  1
  O2-  O405  1  0.33828507  0.91700016  0.14078254  1
  O2-  O406  1  0.33899282  0.93393691  0.48220159  1
  O2-  O407  1  0.35762906  0.93075165  0.81834365  1
  O2-  O408  1  0.58453601  0.12812332  0.15331971  1
  O2-  O409  1  0.60148566  0.18158349  0.46871482  1
  O2-  O410  1  0.60368542  0.18802450  0.82799604  1
  O2-  O411  1  0.57195761  0.40249516  0.13291447  1
  O2-  O412  1  0.60402473  0.43311086  0.48031805  1
  O2-  O413  1  0.58938127  0.41523883  0.81702948  1
  O2-  O414  1  0.58350145  0.67613491  0.13758490  1
  O2-  O415  1  0.58385018  0.67256230  0.49138448  1
  O2-  O416  1  0.60685984  0.67303084  0.81030068  1
  O2-  O417  1  0.59166427  0.93117973  0.17051540  1
  O2-  O418  1  0.58814780  0.92170262  0.49023267  1
  O2-  O419  1  0.56010087  0.94446830  0.81597931  1
  O2-  O420  1  0.88107289  0.17943595  0.10528895  1
  O2-  O421  1  0.84115794  0.17031872  0.46755681  1
  O2-  O422  1  0.84595135  0.18672115  0.81305557  1
  O2-  O423  1  0.81502905  0.34925082  0.15414920  1
  O2-  O424  1  0.87586229  0.44122928  0.47884728  1
  O2-  O425  1  0.84059885  0.43595351  0.80544625  1
  O2-  O426  1  0.81238685  0.60820733  0.11453018  1
  O2-  O427  1  0.83954721  0.67233917  0.49648977  1
  O2-  O428  1  0.81978200  0.64137833  0.87691708  1
  O2-  O429  1  0.81088069  0.94886864  0.13288571  1
  O2-  O430  1  0.82568208  0.93210474  0.48830791  1
  O2-  O431  1  0.76490822  0.81527920  0.77291059  1
  O2-  O432  1  0.17790748  0.13127955  0.18956522  1
  O2-  O433  1  0.19896635  0.11633969  0.51643733  1
  O2-  O434  1  0.15550492  0.06086100  0.86610531  1
  O2-  O435  1  0.17673482  0.35584811  0.18465434  1
  O2-  O436  1  0.17153565  0.34073109  0.51706089  1
  O2-  O437  1  0.17253838  0.33217677  0.85489249  1
  O2-  O438  1  0.17942872  0.59019501  0.17002878  1
  O2-  O439  1  0.16483504  0.57848984  0.52781062  1
  O2-  O440  1  0.17924565  0.59796731  0.84537344  1
  O2-  O441  1  0.17071376  0.82373941  0.18508487  1
  O2-  O442  1  0.18434219  0.84755478  0.53786400  1
  O2-  O443  1  0.18056503  0.83164792  0.83824160  1
  O2-  O444  1  0.36314300  0.06349621  0.20205776  1
  O2-  O445  1  0.42836761  0.10829653  0.49272552  1
  O2-  O446  1  0.43023573  0.09606485  0.87068714  1
  O2-  O447  1  0.39821743  0.34280824  0.12276403  1
  O2-  O448  1  0.43484633  0.35535850  0.48491771  1
  O2-  O449  1  0.42056761  0.32863510  0.84522012  1
  O2-  O450  1  0.42541815  0.60194835  0.18714323  1
  O2-  O451  1  0.42911157  0.60259713  0.52748930  1
  O2-  O452  1  0.41603076  0.56998683  0.85292686  1
  O2-  O453  1  0.41734981  0.81948143  0.18059420  1
  O2-  O454  1  0.41591557  0.84229471  0.52160814  1
  O2-  O455  1  0.46568623  0.80235123  0.86986779  1
  O2-  O456  1  0.67602294  0.07977246  0.23612367  1
  O2-  O457  1  0.67679639  0.09323643  0.52288376  1
  O2-  O458  1  0.68823396  0.09925061  0.87107792  1
  O2-  O459  1  0.65145596  0.31636058  0.18423801  1
  O2-  O460  1  0.69816381  0.35052508  0.50543291  1
  O2-  O461  1  0.68136571  0.35262357  0.83925296  1
  O2-  O462  1  0.69747382  0.62451406  0.18475918  1
  O2-  O463  1  0.65388564  0.58771854  0.51926155  1
  O2-  O464  1  0.65097592  0.56506625  0.86962142  1
  O2-  O465  1  0.66513611  0.83587692  0.19233011  1
  O2-  O466  1  0.65414738  0.82935487  0.53576427  1
  O2-  O467  1  0.65570680  0.83780455  0.85113194  1
  O2-  O468  1  0.99334475  0.13662984  0.17648835  1
  O2-  O469  1  0.90632184  0.08957176  0.51979871  1
  O2-  O470  1  0.92416930  0.11644902  0.86319512  1
  O2-  O471  1  0.88930952  0.40470611  0.19202208  1
  O2-  O472  1  0.92904634  0.32967863  0.51617128  1
  O2-  O473  1  0.91979545  0.34592190  0.85210102  1
  O2-  O474  1  0.92168611  0.55647965  0.17832300  1
  O2-  O475  1  0.91598391  0.57856116  0.54452553  1
  O2-  O476  1  0.92568483  0.57493060  0.86875227  1
  O2-  O477  1  0.95394159  0.94794342  0.15446712  1
  O2-  O478  1  0.93876545  0.86019505  0.50366982  1
  O2-  O479  1  0.89181977  0.81129800  0.84927523  1
  O2-  O480  1  0.15826212  0.07225588  0.30465996  1
  O2-  O481  1  0.14728671  0.05719817  0.65709459  1
  O2-  O482  1  0.16700155  0.08370876  0.98735378  1
  O2-  O483  1  0.15952553  0.33566987  0.30875227  1
  O2-  O484  1  0.15962652  0.33698479  0.64192461  1
  O2-  O485  1  0.18993781  0.31998328  0.98394778  1
  O2-  O486  1  0.17802569  0.57834092  0.29563661  1
  O2-  O487  1  0.14885474  0.56467737  0.65045125  1
  O2-  O488  1  0.15561281  0.56201099  1.00359737  1
  O2-  O489  1  0.16150185  0.81997601  0.33776352  1
  O2-  O490  1  0.12832526  0.80421357  0.66259403  1
  O2-  O491  1  0.11404282  0.81699417  0.95543192  1
  O2-  O492  1  0.42378717  0.09755358  0.31174047  1
  O2-  O493  1  0.42838069  0.10681136  0.67483014  1
  O2-  O494  1  0.42829797  0.09650851  0.99307614  1
  O2-  O495  1  0.41970372  0.34411006  0.36118033  1
  O2-  O496  1  0.41737135  0.36204460  0.62491916  1
  O2-  O497  1  0.42931351  0.32812785  0.96580404  1
  O2-  O498  1  0.41824256  0.59540916  0.30491856  1
  O2-  O499  1  0.41255000  0.59017208  0.64909041  1
  O2-  O500  1  0.41891322  0.57649250  0.97548765  1
  O2-  O501  1  0.42116910  0.84024367  0.32467544  1
  O2-  O502  1  0.42031809  0.86952713  0.64732782  1
  O2-  O503  1  0.42610011  0.83911169  0.98261782  1
  O2-  O504  1  0.66299035  0.07278670  0.30242789  1
  O2-  O505  1  0.67199205  0.09103750  0.64871417  1
  O2-  O506  1  0.69439140  0.10489674  0.99565940  1
  O2-  O507  1  0.66714684  0.33455433  0.30087945  1
  O2-  O508  1  0.63834599  0.30471845  0.64760902  1
  O2-  O509  1  0.69829768  0.36355199  0.99004392  1
  O2-  O510  1  0.66208150  0.58273036  0.31006610  1
  O2-  O511  1  0.64391868  0.56394525  0.64352269  1
  O2-  O512  1  0.64511702  0.57830115  0.98347949  1
  O2-  O513  1  0.66143036  0.82975611  0.31658459  1
  O2-  O514  1  0.71535457  0.80693533  0.65457317  1
  O2-  O515  1  0.66559413  0.83566762  0.97819405  1
  O2-  O516  1  0.89806471  0.07304207  0.31073051  1
  O2-  O517  1  0.91827813  0.09570420  0.63371315  1
  O2-  O518  1  0.91957044  0.08934510  0.98454460  1
  O2-  O519  1  0.90873901  0.34716501  0.29737650  1
  O2-  O520  1  0.90538806  0.32556543  0.63697127  1
  O2-  O521  1  0.92342059  0.34548710  0.98252477  1
  O2-  O522  1  0.89950325  0.57552367  0.29320350  1
  O2-  O523  1  0.88086778  0.52665304  0.69529084  1
  O2-  O524  1  0.92424459  0.56515168  0.99117855  1
  O2-  O525  1  0.90875392  0.83225063  0.37994160  1
  O2-  O526  1  0.91998393  0.80792244  0.64999945  1
  O2-  O527  1  0.91209370  0.82114585  0.98634993  1
  O2-  O528  1  0.07530754  0.15692989  0.02373651  1
  O2-  O529  1  0.06931057  0.16103688  0.29322353  1
  O2-  O530  1  0.09033849  0.16914458  0.67586148  1
  O2-  O531  1  0.10794571  0.42688020  0.06568838  1
  O2-  O532  1  0.08103706  0.42236500  0.34384987  1
  O2-  O533  1  0.06522747  0.40698167  0.68986340  1
  O2-  O534  1  0.08891159  0.66918200  0.01666411  1
  O2-  O535  1  0.07049624  0.64128941  0.33131318  1
  O2-  O536  1  0.06571313  0.64110265  0.69692649  1
  O2-  O537  1  0.07887251  0.91963287  0.02550045  1
  O2-  O538  1  0.08735688  0.91692121  0.35510348  1
  O2-  O539  1  0.07417696  0.89872235  0.70738724  1
  O2-  O540  1  0.33685523  0.16656697  0.00586567  1
  O2-  O541  1  0.33019810  0.16791714  0.34963701  1
  O2-  O542  1  0.30293516  0.14858174  0.70394927  1
  O2-  O543  1  0.34626933  0.40623386  0.02270870  1
  O2-  O544  1  0.32499321  0.42277236  0.35240895  1
  O2-  O545  1  0.32487934  0.42234795  0.68392870  1
  O2-  O546  1  0.33660301  0.66201367  0.00525205  1
  O2-  O547  1  0.33707925  0.66312839  0.33678286  1
  O2-  O548  1  0.30537355  0.64782443  0.68893100  1
  O2-  O549  1  0.34703638  0.92438248  0.00886437  1
  O2-  O550  1  0.34004659  0.92981096  0.35729239  1
  O2-  O551  1  0.34874031  0.95071726  0.69801202  1
  O2-  O552  1  0.60354779  0.19466185  -0.03271754  1
  O2-  O553  1  0.59421208  0.16676746  0.33952636  1
  O2-  O554  1  0.58764964  0.15624804  0.71150537  1
  O2-  O555  1  0.58982565  0.42654133  0.01905439  1
  O2-  O556  1  0.59501889  0.41887016  0.35220073  1
  O2-  O557  1  0.53538420  0.35076960  0.69545982  1
  O2-  O558  1  0.58559729  0.67108478  0.01992750  1
  O2-  O559  1  0.57046874  0.66148975  0.34870502  1
  O2-  O560  1  0.53899334  0.58882458  0.71524992  1
  O2-  O561  1  0.56859255  0.97658309  0.05885344  1
  O2-  O562  1  0.58090421  0.91146851  0.35837291  1
  O2-  O563  1  0.58409286  0.92128866  0.68791734  1
  O2-  O564  1  0.86764962  0.18020573  0.04348114  1
  O2-  O565  1  0.83697000  0.17395363  0.34519872  1
  O2-  O566  1  0.83823489  0.17164007  0.69043967  1
  O2-  O567  1  0.84359613  0.41203567  0.04213903  1
  O2-  O568  1  0.82160876  0.41778529  0.33106461  1
  O2-  O569  1  0.79631367  0.39593180  0.62159715  1
  O2-  O570  1  0.83459268  0.65320164  -0.00302965  1
  O2-  O571  1  0.82131175  0.65991260  0.35799729  1
  O2-  O572  1  0.82670296  0.63862778  0.65600988  1
  O2-  O573  1  0.81053256  0.93073608  0.02287559  1
  O2-  O574  1  0.81892489  0.91431873  0.37003710  1
  O2-  O575  1  0.87871942  0.93921290  0.66355745  1
