# generated using pymatgen
data_H2O
_symmetry_space_group_name_H-M   'P 1'
_cell_length_a   17.99695584
_cell_length_b   17.99519328
_cell_length_c   22.01188331
_cell_angle_alpha   89.99733661
_cell_angle_beta   90.01462312
_cell_angle_gamma   119.99928608
_symmetry_Int_Tables_number   1
_chemical_formula_structural   H2O
_chemical_formula_sum   'H384 O192'
_cell_volume   6173.71402281
_cell_formula_units_Z   192
loop_
 _symmetry_equiv_pos_site_id
 _symmetry_equiv_pos_as_xyz
  1  'x, y, z'
loop_
 _atom_type_symbol
 _atom_type_oxidation_number
  H+  1.0
  O2-  -2.0
loop_
 _atom_site_type_symbol
 _atom_site_label
 _atom_site_symmetry_multiplicity
 _atom_site_fract_x
 _atom_site_fract_y
 _atom_site_fract_z
 _atom_site_occupancy
  H+  H0  1  0.74965550  0.87317819  0.32294916  1
  H+  H1  1  0.35727410  0.62797580  0.16064645  1
  H+  H2  1  0.63025698  -0.01188222  0.81794521  1
  H+  H3  1  0.97859615  0.10906338  0.84697618  1
  H+  H4  1  0.12337673  0.12205443  0.49863297  1
  H+  H5  1  0.86207782  0.82849704  0.51434108  1
  H+  H6  1  0.79680680  0.15864374  0.00711922  1
  H+  H7  1  0.76859816  0.39162562  0.16702960  1
  H+  H8  1  0.02282359  0.13989419  0.01568783  1
  H+  H9  1  0.89539065  0.12138716  1.00173096  1
  H+  H10  1  0.54928145  0.99264867  0.03370859  1
  H+  H11  1  0.37728530  0.76226643  0.18035151  1
  H+  H12  1  0.37025625  0.73018314  0.33761087  1
  H+  H13  1  0.58694949  0.17841672  0.39824582  1
  H+  H14  1  0.64509911  0.77847280  0.83923423  1
  H+  H15  1  0.47399580  0.85514166  0.66584731  1
  H+  H16  1  0.37645963  0.51456420  -0.00477941  1
  H+  H17  1  0.22725432  0.12273415  0.18356864  1
  H+  H18  1  0.58790067  0.62195789  0.13166766  1
  H+  H19  1  0.46970522  0.61272915  0.16836500  1
  H+  H20  1  0.88729636  0.26182274  0.33614245  1
  H+  H21  1  0.17885150  0.08292881  0.56238669  1
  H+  H22  1  0.11536075  0.47724970  0.16346015  1
  H+  H23  1  0.35007446  0.62258686  0.00534568  1
  H+  H24  1  0.46152525  0.57339784  0.82168478  1
  H+  H25  1  0.39707112  0.52961995  0.32741513  1
  H+  H26  1  0.24188201  0.12731056  0.50493789  1
  H+  H27  1  0.87449345  0.10814179  0.17789900  1
  H+  H28  1  0.99407236  0.35110570  0.18567233  1
  H+  H29  1  0.59770419  0.44006370  0.09497856  1
  H+  H30  1  0.13618845  0.61534315  0.82703892  1
  H+  H31  1  0.38560887  0.77908737  0.51028468  1
  H+  H32  1  0.21309210  0.59845041  1.00205279  1
  H+  H33  1  0.54352507  0.12771195  0.66574673  1
  H+  H34  1  0.89034845  0.02883243  1.00120582  1
  H+  H35  1  0.62377243  0.89711273  0.82242058  1
  H+  H36  1  0.60283849  0.60248851  0.67884941  1
  H+  H37  1  0.25973990  0.88301249  0.00940716  1
  H+  H38  1  0.50644671  0.58105773  0.82451552  1
  H+  H39  1  0.36239188  -0.02331723  0.49938786  1
  H+  H40  1  0.89019507  0.79218712  0.84612135  1
  H+  H41  1  0.72616450  0.09650565  0.65783027  1
  H+  H42  1  0.27149508  0.38490848  0.16288662  1
  H+  H43  1  0.22870280  0.11445989  0.84472306  1
  H+  H44  1  0.68898425  0.05102094  0.98157719  1
  H+  H45  1  0.38661924  0.11247494  0.17615371  1
  H+  H46  1  0.89406523  0.26212057  0.84568896  1
  H+  H47  1  0.13759320  0.50920106  0.66226478  1
  H+  H48  1  0.86989153  0.12599615  0.83333826  1
  H+  H49  1  0.34477208  0.70945344  0.00971105  1
  H+  H50  1  0.68326354  0.58302067  0.28244821  1
  H+  H51  1  0.62152390  0.47834514  0.16147229  1
  H+  H52  1  0.22769146  0.86666743  0.84363208  1
  H+  H53  1  0.13186855  0.77547601  0.66579796  1
  H+  H54  1  0.74206499  0.12979226  0.49767404  1
  H+  H55  1  0.61398711  0.88961496  0.35693699  1
  H+  H56  1  0.86465645  0.47009313  0.01731644  1
  H+  H57  1  0.10522525  0.13598043  0.17104114  1
  H+  H58  1  0.77942261  0.63628158  0.35353907  1
  H+  H59  1  0.13442377  0.52602629  0.82465493  1
  H+  H60  1  0.71494553  0.85096241  0.51007492  1
  H+  H61  1  0.64607519  0.60866391  0.85123283  1
  H+  H62  1  0.87089517  0.72189897  0.35516557  1
  H+  H63  1  0.35352459  0.84162485  0.00014351  1
  H+  H64  1  0.85334811  0.98626434  0.49547825  1
  H+  H65  1  0.11610394  0.72128252  0.33947218  1
  H+  H66  1  0.56787435  0.93590555  -0.01208834  1
  H+  H67  1  0.84326206  0.43119169  0.81108050  1
  H+  H68  1  0.90451338  0.11474226  0.28364825  1
  H+  H69  1  0.89474765  0.60792573  0.17172021  1
  H+  H70  1  0.62545438  0.83802342  0.66339652  1
  H+  H71  1  0.60949176  0.14113426  0.33860301  1
  H+  H72  1  0.63853029  1.02526687  0.17671443  1
  H+  H73  1  0.12351438  0.09273341  0.65299714  1
  H+  H74  1  0.98339928  0.37024296  0.99717820  1
  H+  H75  1  0.09695760  0.11940049  0.34745930  1
  H+  H76  1  0.72623231  0.36656485  0.32959176  1
  H+  H77  1  0.97932104  0.35340403  0.49950836  1
  H+  H78  1  0.18018977  0.59968804  0.25383296  1
  H+  H79  1  0.22908317  0.37808557  0.32956939  1
  H+  H80  1  0.19372017  0.07152691  0.98177434  1
  H+  H81  1  0.11396239  0.45373287  0.49632842  1
  H+  H82  1  0.22309613  0.86626969  0.51274010  1
  H+  H83  1  0.77781087  0.88634794  0.00741678  1
  H+  H84  1  0.44268736  0.84873331  0.00704381  1
  H+  H85  1  0.87734520  0.85424939  0.00159089  1
  H+  H86  1  0.35390887  0.14448374  0.33721039  1
  H+  H87  1  0.64491326  0.10713561  0.65519284  1
  H+  H88  1  0.76123997  0.86045475  0.67837093  1
  H+  H89  1  0.14596723  0.27948329  0.66090376  1
  H+  H90  1  0.02484550  0.14846728  0.35429050  1
  H+  H91  1  0.14804671  0.62715888  0.32148247  1
  H+  H92  1  0.88931292  0.35467253  0.49941940  1
  H+  H93  1  0.40210010  0.03058405  0.83158895  1
  H+  H94  1  1.01065254  0.62772480  1.00246275  1
  H+  H95  1  0.13190505  0.84631070  0.33577771  1
  H+  H96  1  0.63197678  0.16129013  0.49194743  1
  H+  H97  1  0.62816720  1.02881549  0.33499303  1
  H+  H98  1  0.35424901  -0.03348221  1.00202205  1
  H+  H99  1  0.40112931  0.28497127  0.50133687  1
  H+  H100  1  0.91317041  0.32772397  0.28194974  1
  H+  H101  1  0.36964531  0.22775849  0.83688489  1
  H+  H102  1  0.87629093  0.50007782  0.16519584  1
  H+  H103  1  0.03262354  0.88988585  0.83312310  1
  H+  H104  1  0.36808887  0.23779868  0.17757557  1
  H+  H105  1  0.36323646  0.38317205  0.67380884  1
  H+  H106  1  0.36167787  0.97111193  0.16447594  1
  H+  H107  1  0.35830868  0.87399164  0.34756122  1
  H+  H108  1  0.89800117  0.65988854  0.84284564  1
  H+  H109  1  0.10938711  0.38940254  0.34401757  1
  H+  H110  1  0.38044082  0.85180327  0.18191220  1
  H+  H111  1  0.96758879  0.27435572  0.23017664  1
  H+  H112  1  0.65305542  0.55593726  0.94423602  1
  H+  H113  1  0.88855833  0.60343706  0.34200058  1
  H+  H114  1  0.86475824  0.38223090  0.01185846  1
  H+  H115  1  0.22691872  0.35833561  0.84240892  1
  H+  H116  1  1.00464491  0.86497450  1.01763999  1
  H+  H117  1  0.27699888  0.38918562  0.49403788  1
  H+  H118  1  0.89950107  0.56365576  0.60604601  1
  H+  H119  1  0.63440489  0.35988349  0.17263075  1
  H+  H120  1  0.13740887  0.27268255  1.00020971  1
  H+  H121  1  0.22766730  0.84520086  0.16527041  1
  H+  H122  1  0.39562803  0.61084379  0.65479181  1
  H+  H123  1  0.30799280  0.63364340  0.49592951  1
  H+  H124  1  0.48123927  0.37531590  0.16535469  1
  H+  H125  1  0.11171107  0.38931151  0.82450458  1
  H+  H126  1  0.85679528  0.73753820  0.51344719  1
  H+  H127  1  0.27299602  0.38287031  0.01135497  1
  H+  H128  1  0.36777447  0.38914080  0.49296999  1
  H+  H129  1  0.85929225  0.95611167  0.82640593  1
  H+  H130  1  0.54848532  0.43891667  0.99777037  1
  H+  H131  1  0.39314724  0.85872883  0.84670600  1
  H+  H132  1  0.86889718  0.58734890  0.66853454  1
  H+  H133  1  0.11888879  0.14236658  0.83416670  1
  H+  H134  1  0.96145081  0.61090667  0.51233649  1
  H+  H135  1  0.61276030  0.38983809  0.82346148  1
  H+  H136  1  0.52475331  0.39075946  0.82486919  1
  H+  H137  1  0.29149536  0.19564453  0.02648325  1
  H+  H138  1  0.32984884  0.57632653  0.84104860  1
  H+  H139  1  0.27360935  0.88073102  0.67195781  1
  H+  H140  1  0.02384080  0.11765186  0.50104281  1
  H+  H141  1  0.10201291  0.73814986  0.49777968  1
  H+  H142  1  0.71034658  0.71950574  0.79181519  1
  H+  H143  1  0.62485204  0.89042742  0.15698990  1
  H+  H144  1  0.89649627  0.26948465  0.64731333  1
  H+  H145  1  0.77957379  0.38848663  0.49619751  1
  H+  H146  1  0.50322378  0.14238605  0.50375442  1
  H+  H147  1  0.12297929  0.85104247  0.99833820  1
  H+  H148  1  0.10579079  0.96494038  0.34314163  1
  H+  H149  1  0.10688423  0.13329517  0.01472756  1
  H+  H150  1  0.86574475  0.72050609  0.16616942  1
  H+  H151  1  0.34141358  0.22249280  0.33860808  1
  H+  H152  1  0.13702963  0.06547872  0.92770831  1
  H+  H153  1  0.69934314  0.56401214  0.49482330  1
  H+  H154  1  0.64435294  0.38194686  0.65825053  1
  H+  H155  1  0.65327159  0.11284020  0.99627514  1
  H+  H156  1  0.86582727  0.22057152  0.16805560  1
  H+  H157  1  1.04172437  0.89478681  0.17204996  1
  H+  H158  1  0.88562296  0.86803697  0.16637794  1
  H+  H159  1  0.61562093  0.22853083  0.66723704  1
  H+  H160  1  0.23015767  0.61307652  0.16775618  1
  H+  H161  1  0.65088721  0.38784440  0.50549921  1
  H+  H162  1  0.86257543  0.60512357  -0.00172758  1
  H+  H163  1  0.09479363  0.64797038  0.50123867  1
  H+  H164  1  0.13187555  0.86394765  0.66767395  1
  H+  H165  1  0.91865782  0.51455009  0.85936960  1
  H+  H166  1  0.28127939  0.62490222  0.67072594  1
  H+  H167  1  0.82446703  0.89247288  0.76964650  1
  H+  H168  1  0.37667074  0.15168488  0.48402528  1
  H+  H169  1  0.90151964  0.11581857  0.50237142  1
  H+  H170  1  0.11319948  0.22798358  0.83848724  1
  H+  H171  1  0.60950360  0.71184712  0.99045437  1
  H+  H172  1  0.37121762  0.14050494  0.82866116  1
  H+  H173  1  0.98439673  0.85609046  0.33462348  1
  H+  H174  1  0.12423773  0.59864185  -0.00000949  1
  H+  H175  1  0.13834921  0.61138263  0.16793852  1
  H+  H176  1  0.47961167  0.86117008  0.33460736  1
  H+  H177  1  0.62450321  0.39543857  0.34527221  1
  H+  H178  1  0.26853208  0.63675122  0.81373711  1
  H+  H179  1  0.48469091  0.62007783  0.32428662  1
  H+  H180  1  1.03014059  0.66634271  0.82250063  1
  H+  H181  1  0.53438252  0.38948981  0.34189624  1
  H+  H182  1  0.48712436  0.38111147  0.65850115  1
  H+  H183  1  0.89945068  0.13627172  0.66099724  1
  H+  H184  1  0.39090365  0.37413331  0.17327606  1
  H+  H185  1  0.63603305  0.27916408  0.32855142  1
  H+  H186  1  0.40693332  0.15481622  0.65508706  1
  H+  H187  1  0.32588858  0.39168225  0.76478186  1
  H+  H188  1  0.63425140  0.75451449  0.50802721  1
  H+  H189  1  0.62510817  0.24728838  0.49042371  1
  H+  H190  1  0.72455764  0.36991053  0.99239794  1
  H+  H191  1  0.49521227  0.11803331  0.83185083  1
  H+  H192  1  0.48055556  0.60299046  0.50711499  1
  H+  H193  1  0.62232944  0.73648541  0.33657641  1
  H+  H194  1  0.61138876  0.13156664  0.16719818  1
  H+  H195  1  0.14378042  1.02991287  0.17627485  1
  H+  H196  1  0.61007139  0.96071592  0.66372512  1
  H+  H197  1  -0.03965848  0.83306222  0.66603309  1
  H+  H198  1  0.81270085  0.64982013  0.76814005  1
  H+  H199  1  0.09964781  0.71644233  0.00462856  1
  H+  H200  1  0.48683821  0.37790608  0.50548403  1
  H+  H201  1  0.13992147  0.36453723  0.17349740  1
  H+  H202  1  0.51891327  0.88135196  0.50352043  1
  H+  H203  1  0.92204883  0.33716059  0.93709067  1
  H+  H204  1  0.13709541  0.36353516  0.65803489  1
  H+  H205  1  0.84279693  0.71337667  0.01568607  1
  H+  H206  1  0.74484991  0.60549865  0.18605177  1
  H+  H207  1  0.35842567  0.87014271  0.67787310  1
  H+  H208  1  0.57511286  0.12476838  0.07619646  1
  H+  H209  1  0.24814329  0.63248108  0.31836609  1
  H+  H210  1  0.35980001  0.47633490  0.16297018  1
  H+  H211  1  0.76283832  0.62534775  0.83316495  1
  H+  H212  1  0.11043281  0.38398656  1.01411346  1
  H+  H213  1  0.86850690  0.87692596  0.34427602  1
  H+  H214  1  0.36697523  0.39092449  0.34376838  1
  H+  H215  1  -0.01668826  0.60133696  0.16477104  1
  H+  H216  1  0.38942324  0.51168454  0.51013500  1
  H+  H217  1  0.36174447  0.71806525  0.82384126  1
  H+  H218  1  0.62501561  0.64866807  0.33865531  1
  H+  H219  1  0.84005751  0.60994576  0.50433494  1
  H+  H220  1  0.98649263  0.13662367  0.66216678  1
  H+  H221  1  0.71371034  0.34942835  0.83393712  1
  H+  H222  1  0.93199021  0.83699574  0.12333198  1
  H+  H223  1  0.65082525  0.12710015  0.83133389  1
  H+  H224  1  0.11133175  0.71450748  0.15420413  1
  H+  H225  1  0.08534859  0.66580685  0.62204394  1
  H+  H226  1  0.20849524  0.10288822  0.33079127  1
  H+  H227  1  0.34132173  0.65790302  0.72948755  1
  H+  H228  1  0.61099593  0.22015868  0.15923413  1
  H+  H229  1  0.42706679  0.57766211  0.58331756  1
  H+  H230  1  0.17951001  0.59851204  0.50412737  1
  H+  H231  1  0.87660907  0.21897546  0.48140547  1
  H+  H232  1  0.64237854  0.52913163  0.34148396  1
  H+  H233  1  0.42987235  0.12026435  0.26428776  1
  H+  H234  1  0.42537199  0.11924641  0.97813070  1
  H+  H235  1  0.36095024  0.88737121  0.50692355  1
  H+  H236  1  0.72344568  0.11654100  0.17781605  1
  H+  H237  1  0.63660741  0.76552093  0.16220023  1
  H+  H238  1  0.61347605  0.22996336  0.82244596  1
  H+  H239  1  0.78360572  0.13484843  0.83015311  1
  H+  H240  1  0.47406543  0.10934744  0.17320463  1
  H+  H241  1  0.38689443  0.76318417  0.66483407  1
  H+  H242  1  0.85790875  0.36802216  0.65902099  1
  H+  H243  1  0.65426672  0.39765658  0.98542345  1
  H+  H244  1  0.33809642  0.24659488  0.68331835  1
  H+  H245  1  0.88547902  0.24356491  1.01176491  1
  H+  H246  1  0.87799037  0.33995933  0.83780422  1
  H+  H247  1  0.77340949  0.96412555  0.45624745  1
  H+  H248  1  0.92756520  0.52945951  0.82655508  1
  H+  H249  1  0.34044505  0.44695040  0.82607498  1
  H+  H250  1  0.74956328  0.59527906  0.68178179  1
  H+  H251  1  0.48302239  0.60240746  0.65908373  1
  H+  H252  1  0.63171918  0.51309346  0.84909174  1
  H+  H253  1  0.08044746  0.14746554  0.43438974  1
  H+  H254  1  0.28749188  0.97431467  0.79061292  1
  H+  H255  1  0.18831155  0.20082489  0.70354668  1
  H+  H256  1  0.42442982  0.31246751  0.00151608  1
  H+  H257  1  0.96470665  0.11165443  0.18460259  1
  H+  H258  1  0.85993820  0.46998045  0.34587501  1
  H+  H259  1  0.14471086  0.35643557  0.50169434  1
  H+  H260  1  0.13970380  0.59861740  0.66030042  1
  H+  H261  1  0.08814139  -0.04435772  1.00967128  1
  H+  H262  1  0.13577500  0.27340999  0.17817771  1
  H+  H263  1  0.77616797  0.88727240  0.15991339  1
  H+  H264  1  0.60115883  0.61169077  0.48121462  1
  H+  H265  1  0.63857788  0.84240074  0.99042829  1
  H+  H266  1  0.10145984  0.96335338  0.67290617  1
  H+  H267  1  0.14163426  0.77649191  0.83958499  1
  H+  H268  1  0.85251521  0.37599768  0.34727856  1
  H+  H269  1  0.32647770  0.90232383  0.40549368  1
  H+  H270  1  0.73345684  0.86348319  0.84137380  1
  H+  H271  1  0.09672547  0.87566466  0.49514746  1
  H+  H272  1  0.41386191  -0.00088498  0.65081334  1
  H+  H273  1  0.34500222  0.14938520  0.02633111  1
  H+  H274  1  0.44888000  0.15504811  0.55553904  1
  H+  H275  1  1.00107188  0.85742661  0.49220769  1
  H+  H276  1  0.01889414  0.38084217  0.82519258  1
  H+  H277  1  0.52314496  0.09499161  0.01158516  1
  H+  H278  1  0.59885962  0.86637223  0.50184035  1
  H+  H279  1  0.66296682  0.61350403  0.19816710  1
  H+  H280  1  0.49104508  0.15689194  0.32338119  1
  H+  H281  1  0.97367528  0.59882616  0.33225116  1
  H+  H282  1  0.38749561  0.35641708  0.83992530  1
  H+  H283  1  0.38234163  0.12270871  0.67965795  1
  H+  H284  1  0.40210578  0.38664751  0.99717865  1
  H+  H285  1  0.88255345  0.51326933  0.50965940  1
  H+  H286  1  0.86184167  0.98065974  0.16694445  1
  H+  H287  1  0.21319941  0.10569393  0.66254368  1
  H+  H288  1  0.83488910  0.41457613  0.43525858  1
  H+  H289  1  0.18035547  0.33933612  0.56306519  1
  H+  H290  1  0.07748194  0.91090361  0.73542571  1
  H+  H291  1  0.66195163  0.33756212  0.89633960  1
  H+  H292  1  0.41862887  0.82823184  0.27380063  1
  H+  H293  1  0.43750180  0.32994864  0.26038405  1
  H+  H294  1  0.08103630  0.41466356  0.10494537  1
  H+  H295  1  0.34204323  0.67656903  0.43158170  1
  H+  H296  1  0.82789522  0.41252509  0.10618776  1
  H+  H297  1  0.95581651  0.77113079  0.87468165  1
  H+  H298  1  0.42929479  0.34455471  0.90104894  1
  H+  H299  1  0.61826674  0.66846493  0.76286591  1
  H+  H300  1  0.17207357  0.34618858  0.27027859  1
  H+  H301  1  0.66367845  0.33476958  0.23465987  1
  H+  H302  1  0.39495578  0.81462869  0.90810764  1
  H+  H303  1  0.02104127  0.38131072  0.66529025  1
  H+  H304  1  0.35427401  0.54623885  0.90295415  1
  H+  H305  1  0.69229925  0.90499874  0.28948626  1
  H+  H306  1  0.43767287  0.07407958  0.92179318  1
  H+  H307  1  0.65605604  0.80799525  0.60531477  1
  H+  H308  1  0.83904384  0.68945000  0.67599033  1
  H+  H309  1  0.67356598  0.82785826  0.92714637  1
  H+  H310  1  0.08598269  0.65303498  0.39449583  1
  H+  H311  1  0.61036807  0.69836127  0.67233923  1
  H+  H312  1  0.75501013  0.62093426  0.01934890  1
  H+  H313  1  0.92046598  0.08072688  0.90639953  1
  H+  H314  1  0.82061568  0.64636370  0.44345103  1
  H+  H315  1  0.10595743  0.17963806  0.74140419  1
  H+  H316  1  0.07278499  0.90303676  0.40277976  1
  H+  H317  1  0.85634588  0.45541350  0.67055632  1
  H+  H318  1  0.14115744  0.84803347  0.16854132  1
  H+  H319  1  0.58129398  0.66128248  0.42940612  1
  H+  H320  1  0.34235649  0.42399739  0.40343043  1
  H+  H321  1  0.01659310  0.38086960  0.35061867  1
  H+  H322  1  0.22511006  0.43236388  0.87190372  1
  H+  H323  1  0.58829819  0.91388675  0.72800632  1
  H+  H324  1  0.18221113  0.56547754  0.57071112  1
  H+  H325  1  0.07909429  0.40276775  0.43263215  1
  H+  H326  1  0.07408377  0.40689785  0.72910929  1
  H+  H327  1  0.56517163  0.66633948  0.08137411  1
  H+  H328  1  0.30862985  0.18846751  0.74295243  1
  H+  H329  1  0.84797255  0.53477848  0.94871241  1
  H+  H330  1  0.57925682  0.91455599  0.41488110  1
  H+  H331  1  0.65620907  0.08295301  0.27346385  1
  H+  H332  1  0.07588219  0.16543894  0.11209051  1
  H+  H333  1  0.58345427  0.92024449  0.10513648  1
  H+  H334  1  0.80038219  0.21166878  0.70505297  1
  H+  H335  1  0.83812818  0.16724514  0.74557470  1
  H+  H336  1  0.16298068  0.83747653  0.57173165  1
  H+  H337  1  0.32807599  0.65584918  0.09936973  1
  H+  H338  1  0.68197374  0.10231471  0.89254497  1
  H+  H339  1  0.92057909  0.81908489  0.27747104  1
  H+  H340  1  0.00511360  0.61752796  0.66383172  1
  H+  H341  1  0.42795865  0.34174879  0.59995131  1
  H+  H342  1  0.22093098  0.84581563  0.33704529  1
  H+  H343  1  0.83458423  0.92005977  0.06875939  1
  H+  H344  1  0.91995508  0.32516066  0.58536167  1
  H+  H345  1  0.60093599  0.45307117  0.73147683  1
  H+  H346  1  0.15122731  0.07453123  0.27136982  1
  H+  H347  1  0.45017721  0.05509184  0.59039498  1
  H+  H348  1  0.59856856  0.44525772  0.43375418  1
  H+  H349  1  0.32565523  0.92397573  0.75754925  1
  H+  H350  1  0.81210888  0.37255316  0.75353515  1
  H+  H351  1  0.10872368  0.47340481  0.01394805  1
  H+  H352  1  0.89978945  0.80061984  0.60771546  1
  H+  H353  1  0.93906387  0.64399339  0.90322655  1
  H+  H354  1  0.46178529  0.60322624  0.98101144  1
  H+  H355  1  0.07626330  0.65036824  0.09679267  1
  H+  H356  1  0.91042380  0.81860369  0.94616578  1
  H+  H357  1  0.68435192  0.10226730  0.55778843  1
  H+  H358  1  0.83546996  0.91567206  0.39710619  1
  H+  H359  1  0.92543281  0.09080493  0.56717462  1
  H+  H360  1  0.83002823  0.65703495  0.10925770  1
  H+  H361  1  0.15893370  0.82757505  0.93831773  1
  H+  H362  1  0.33486722  0.91485410  0.10380945  1
  H+  H363  1  0.12032346  0.89024843  0.83012873  1
  H+  H364  1  0.85793133  0.15811754  0.42238325  1
  H+  H365  1  0.45338930  0.26280838  0.29687877  1
  H+  H366  1  0.72215441  0.36271453  0.65580562  1
  H+  H367  1  0.67149043  0.81964697  0.22452439  1
  H+  H368  1  0.33313824  0.41639239  0.07099936  1
  H+  H369  1  0.08121560  0.67551400  0.76097839  1
  H+  H370  1  0.59367033  0.17367576  0.76047912  1
  H+  H371  1  0.33457109  0.17575882  0.42864542  1
  H+  H372  1  0.83534605  0.17136753  0.10427567  1
  H+  H373  1  0.17014548  0.33781018  0.94235460  1
  H+  H374  1  0.13928608  0.02548969  0.83605228  1
  H+  H375  1  0.33673752  0.18288631  0.11923958  1
  H+  H376  1  0.66832272  0.34830921  0.56501227  1
  H+  H377  1  0.27287220  0.38161001  0.67438210  1
  H+  H378  1  0.36514693  0.63745911  0.33521628  1
  H+  H379  1  0.41998338  0.58478228  0.23292621  1
  H+  H380  1  0.59501095  0.61653166  0.00030870  1
  H+  H381  1  0.41034347  0.83043584  0.57426737  1
  H+  H382  1  0.08833234  0.91612297  0.10861413  1
  H+  H383  1  0.84756329  0.85748438  0.67946937  1
  O2-  O384  1  0.07353772  0.16541903  0.15727594  1
  O2-  O385  1  0.08374041  0.14581846  0.48299007  1
  O2-  O386  1  0.08632139  0.17108008  0.81983242  1
  O2-  O387  1  0.08523106  0.41570912  0.15063300  1
  O2-  O388  1  0.07754335  0.39551075  0.47958253  1
  O2-  O389  1  0.07652565  0.41142440  0.80527946  1
  O2-  O390  1  0.07775905  0.65040038  0.14214206  1
  O2-  O391  1  0.06678834  0.67664546  0.48292208  1
  O2-  O392  1  0.08659289  0.67877340  0.80522276  1
  O2-  O393  1  0.09910267  0.92375095  0.15329417  1
  O2-  O394  1  0.05888053  0.89340557  0.47511101  1
  O2-  O395  1  0.09100519  0.92130438  0.81430436  1
  O2-  O396  1  0.33536071  0.17640379  0.16370123  1
  O2-  O397  1  0.34530253  0.18230034  0.47374575  1
  O2-  O398  1  0.33544884  0.16731731  0.82100919  1
  O2-  O399  1  0.33250290  0.41607185  0.14716889  1
  O2-  O400  1  0.33979598  0.42148126  0.47790157  1
  O2-  O401  1  0.32497063  0.38839034  0.81176514  1
  O2-  O402  1  0.32751320  0.65834362  0.14511709  1
  O2-  O403  1  0.35272661  0.68543513  0.47581455  1
  O2-  O404  1  0.33145661  0.66076177  0.80351271  1
  O2-  O405  1  0.33456408  0.91123562  0.14874990  1
  O2-  O406  1  0.32785519  0.91529292  0.49085196  1
  O2-  O407  1  0.31580289  0.94146547  0.80000308  1
  O2-  O408  1  0.57947526  0.15869162  0.14736233  1
  O2-  O409  1  0.59497272  0.18604508  0.47716518  1
  O2-  O410  1  0.59142380  0.17037297  0.80625790  1
  O2-  O411  1  0.58752974  0.42403555  0.13847753  1
  O2-  O412  1  0.59977750  0.44566343  0.48006212  1
  O2-  O413  1  0.58580817  0.42450757  0.81079323  1
  O2-  O414  1  0.56957947  0.66427051  0.12715882  1
  O2-  O415  1  0.57924759  0.65180017  0.47423675  1
  O2-  O416  1  0.64968851  0.68908605  0.80287380  1
  O2-  O417  1  0.60275130  0.92933749  0.14748341  1
  O2-  O418  1  0.57732021  0.90361358  0.48630288  1
  O2-  O419  1  0.59998033  0.92920106  0.80149614  1
  O2-  O420  1  0.82728753  0.16333073  0.14917148  1
  O2-  O421  1  0.85129992  0.15791045  0.46848012  1
  O2-  O422  1  0.84547784  0.16193044  0.81703380  1
  O2-  O423  1  0.82950445  0.42209889  0.15118582  1
  O2-  O424  1  0.83995267  0.41553192  0.48124294  1
  O2-  O425  1  0.80968819  0.37052907  0.79954426  1
  O2-  O426  1  0.83847154  0.65876602  0.15451365  1
  O2-  O427  1  0.80606001  0.63601800  0.48821474  1
  O2-  O428  1  0.81772145  0.66548432  0.81250714  1
  O2-  O429  1  0.83785624  0.92203881  0.14750380  1
  O2-  O430  1  0.80492939  0.93727446  0.47239704  1
  O2-  O431  1  0.82645424  0.89477417  0.81579987  1
  O2-  O432  1  0.16470027  0.08857210  0.19316683  1
  O2-  O433  1  0.18096472  0.09244207  0.51799250  1
  O2-  O434  1  0.16578629  0.08460436  0.85432115  1
  O2-  O435  1  0.17159323  0.33562958  0.18856919  1
  O2-  O436  1  0.18612521  0.34014141  0.51821677  1
  O2-  O437  1  0.18476868  0.36885570  0.86569484  1
  O2-  O438  1  0.17015259  0.58391093  0.18612729  1
  O2-  O439  1  0.19070601  0.55848585  0.52634860  1
  O2-  O440  1  0.16997180  0.58726055  0.83560006  1
  O2-  O441  1  0.16441259  0.80897659  0.17105245  1
  O2-  O442  1  0.16167468  0.83485257  0.52654422  1
  O2-  O443  1  0.16811774  0.83413392  0.85975392  1
  O2-  O444  1  0.41426870  0.07949406  0.18975517  1
  O2-  O445  1  0.44242153  0.11611418  0.52244459  1
  O2-  O446  1  0.43585016  0.08803129  0.85107233  1
  O2-  O447  1  0.42460229  0.34588116  0.18627813  1
  O2-  O448  1  0.42699696  0.34340530  0.52015484  1
  O2-  O449  1  0.42395285  0.33259642  0.85675117  1
  O2-  O450  1  0.41243830  0.57968172  0.18749836  1
  O2-  O451  1  0.42337684  0.57232302  0.52788030  1
  O2-  O452  1  0.32242651  0.52489040  0.86396952  1
  O2-  O453  1  0.40505092  0.81887296  0.20064740  1
  O2-  O454  1  0.41126514  0.83774277  0.52921634  1
  O2-  O455  1  0.40237967  0.81402496  0.86339467  1
  O2-  O456  1  0.66281899  0.08567696  0.19236749  1
  O2-  O457  1  0.68950629  0.12433702  0.51599096  1
  O2-  O458  1  0.68197537  0.09809197  0.84762086  1
  O2-  O459  1  0.66640374  0.33282816  0.18900943  1
  O2-  O460  1  0.67427797  0.35126443  0.51962141  1
  O2-  O461  1  0.65557839  0.33016636  0.85089303  1
  O2-  O462  1  0.68435613  0.57370429  0.20319027  1
  O2-  O463  1  0.63480768  0.53550445  0.49902343  1
  O2-  O464  1  0.66325523  0.56991415  0.87162758  1
  O2-  O465  1  0.67177907  0.82392703  0.17952254  1
  O2-  O466  1  0.65757615  0.81178739  0.52763260  1
  O2-  O467  1  0.67163472  0.83662304  0.85752169  1
  O2-  O468  1  0.90356772  0.07932732  0.19795348  1
  O2-  O469  1  0.92618953  0.08176211  0.52236002  1
  O2-  O470  1  0.91819798  0.07574129  0.86114870  1
  O2-  O471  1  0.94341510  0.30487970  0.20865796  1
  O2-  O472  1  0.91715771  0.32188048  0.51399800  1
  O2-  O473  1  0.91739317  0.32376419  0.85780814  1
  O2-  O474  1  0.92070509  0.57113027  0.17983904  1
  O2-  O475  1  0.90357013  0.57141805  0.52936358  1
  O2-  O476  1  0.95391685  0.67583820  0.86452814  1
  O2-  O477  1  0.91699269  0.83400584  0.16629676  1
  O2-  O478  1  0.89190906  0.79885228  0.52798887  1
  O2-  O479  1  0.94114201  0.81804232  0.87262953  1
  O2-  O480  1  0.14781540  0.06919270  0.31659707  1
  O2-  O481  1  0.15768620  0.06543340  0.64246024  1
  O2-  O482  1  0.13534166  0.05867953  0.97341088  1
  O2-  O483  1  0.16961056  0.35111839  0.31486369  1
  O2-  O484  1  0.17112093  0.33754671  0.64255077  1
  O2-  O485  1  0.16944015  0.33421171  0.98762438  1
  O2-  O486  1  0.18579188  0.60549639  0.30085680  1
  O2-  O487  1  0.17179395  0.57046193  0.64685497  1
  O2-  O488  1  0.15185295  0.56480399  0.98932550  1
  O2-  O489  1  0.15925370  0.81262437  0.32360806  1
  O2-  O490  1  0.16482934  0.83561618  0.65221468  1
  O2-  O491  1  0.15576886  0.82336422  0.98365996  1
  O2-  O492  1  0.44028017  0.15448391  0.30217584  1
  O2-  O493  1  0.46628910  0.04453219  0.63076459  1
  O2-  O494  1  0.43358791  0.07115847  0.96832031  1
  O2-  O495  1  0.44360867  0.31233756  0.30249120  1
  O2-  O496  1  0.42733990  0.34203642  0.64526483  1
  O2-  O497  1  0.44358890  0.36827688  0.98199583  1
  O2-  O498  1  0.42418869  0.58867258  0.30954551  1
  O2-  O499  1  0.42626199  0.58150412  0.63755181  1
  O2-  O500  1  0.39879130  0.57143725  0.97450498  1
  O2-  O501  1  0.41927613  0.82700322  0.31989286  1
  O2-  O502  1  0.41184490  0.82489670  0.65302423  1
  O2-  O503  1  0.38599695  0.81221692  0.98774599  1
  O2-  O504  1  0.65228685  0.08718488  0.31814957  1
  O2-  O505  1  0.66928622  0.07244644  0.63865602  1
  O2-  O506  1  0.69823443  0.10784937  0.97166100  1
  O2-  O507  1  0.66585474  0.34035112  0.31320346  1
  O2-  O508  1  0.66199332  0.34154068  0.64202566  1
  O2-  O509  1  0.67004394  0.35521621  0.97182952  1
  O2-  O510  1  0.67578109  0.59001161  0.32632979  1
  O2-  O511  1  0.64842048  0.54366525  0.66725468  1
  O2-  O512  1  0.64967551  0.55821001  0.99105732  1
  O2-  O513  1  0.68949716  0.85218640  0.30357258  1
  O2-  O514  1  0.65341433  0.80444908  0.65066005  1
  O2-  O515  1  0.67334716  0.81958608  0.97388180  1
  O2-  O516  1  0.93021649  0.14658284  0.32178593  1
  O2-  O517  1  0.93021842  0.10974685  0.64303593  1
  O2-  O518  1  0.92373249  0.08904009  0.98615286  1
  O2-  O519  1  0.90564484  0.32423884  0.32655184  1
  O2-  O520  1  0.92091269  0.32857562  0.63203262  1
  O2-  O521  1  0.92168820  0.34018304  0.98240008  1
  O2-  O522  1  0.91121569  0.56809639  0.32435465  1
  O2-  O523  1  0.90341744  0.56146909  0.65157215  1
  O2-  O524  1  0.89152158  0.57710922  0.97591407  1
  O2-  O525  1  0.92051930  0.82193429  0.32165598  1
  O2-  O526  1  0.89975776  0.79746747  0.65291130  1
  O2-  O527  1  0.90144680  0.81590953  0.99134500  1
  O2-  O528  1  0.08379760  0.16876557  0.03105669  1
  O2-  O529  1  0.07777269  0.15374623  0.37155795  1
  O2-  O530  1  0.12717906  0.18575974  0.69881994  1
  O2-  O531  1  0.07713540  0.41069575  0.02922845  1
  O2-  O532  1  0.07689336  0.41401713  0.36475014  1
  O2-  O533  1  0.07978372  0.41023414  0.68359976  1
  O2-  O534  1  0.06901117  0.65547341  0.01902704  1
  O2-  O535  1  0.08929298  0.65544414  0.34996175  1
  O2-  O536  1  0.07076807  0.65322783  0.66498138  1
  O2-  O537  1  0.06659389  0.89926862  0.03000542  1
  O2-  O538  1  0.07716423  0.90380366  0.35671569  1
  O2-  O539  1  0.07288168  0.90405730  0.69035239  1
  O2-  O540  1  0.34706270  0.20268630  0.03790402  1
  O2-  O541  1  0.31382473  0.16317779  0.35446467  1
  O2-  O542  1  0.28778010  0.19890289  0.70399550  1
  O2-  O543  1  0.33443771  0.41510119  0.02525069  1
  O2-  O544  1  0.34470832  0.42758317  0.35735257  1
  O2-  O545  1  0.32805547  0.40225517  0.69631276  1
  O2-  O546  1  0.31870625  0.64913857  0.02493162  1
  O2-  O547  1  0.33314217  0.66650409  0.34880014  1
  O2-  O548  1  0.34251193  0.65660172  0.68340938  1
  O2-  O549  1  0.32101006  0.91067221  0.02293586  1
  O2-  O550  1  0.32289707  0.89916597  0.36082388  1
  O2-  O551  1  0.33275835  0.90727285  0.68902123  1
  O2-  O552  1  0.57014369  0.09565094  0.03590080  1
  O2-  O553  1  0.58433248  0.17808542  0.35300536  1
  O2-  O554  1  0.59944234  0.17171923  0.68494784  1
  O2-  O555  1  0.61057817  0.46844760  0.01195252  1
  O2-  O556  1  0.59258439  0.42510966  0.36023909  1
  O2-  O557  1  0.60199533  0.45174076  0.68603427  1
  O2-  O558  1  0.56927926  0.65357009  0.00734990  1
  O2-  O559  1  0.59105383  0.67665841  0.35085127  1
  O2-  O560  1  0.57764140  0.64005684  0.69148364  1
  O2-  O561  1  0.54520291  0.93505299  0.02822714  1
  O2-  O562  1  0.58213773  0.91830262  0.36839405  1
  O2-  O563  1  0.57973371  0.90285406  0.68267374  1
  O2-  O564  1  0.85401619  0.18224366  0.02666182  1
  O2-  O565  1  0.86458297  0.16237278  0.34764890  1
  O2-  O566  1  0.82750714  0.17653664  0.70117714  1
  O2-  O567  1  0.83194828  0.40929932  0.02931204  1
  O2-  O568  1  0.82376860  0.40855937  0.36109849  1
  O2-  O569  1  0.82480627  0.39218556  0.67955976  1
  O2-  O570  1  0.81646520  0.65329430  0.03236175  1
  O2-  O571  1  0.83858485  0.66164815  0.37068783  1
  O2-  O572  1  0.81336798  0.63069000  0.69401385  1
  O2-  O573  1  0.83759143  0.91859296  0.02326918  1
  O2-  O574  1  0.83728677  0.90844964  0.35275390  1
  O2-  O575  1  0.82006569  0.88904578  0.69578446  1
