# generated using pymatgen
data_H2O
_symmetry_space_group_name_H-M   'P 1'
_cell_length_a   17.99132634
_cell_length_b   17.99653755
_cell_length_c   22.01329120
_cell_angle_alpha   90.00234649
_cell_angle_beta   90.00159200
_cell_angle_gamma   119.99317922
_symmetry_Int_Tables_number   1
_chemical_formula_structural   H2O
_chemical_formula_sum   'H384 O192'
_cell_volume   6173.01870243
_cell_formula_units_Z   192
loop_
 _symmetry_equiv_pos_site_id
 _symmetry_equiv_pos_as_xyz
  1  'x, y, z'
loop_
 _atom_type_symbol
 _atom_type_oxidation_number
  H+  1.0
  O2-  -2.0
loop_
 _atom_site_type_symbol
 _atom_site_label
 _atom_site_symmetry_multiplicity
 _atom_site_fract_x
 _atom_site_fract_y
 _atom_site_fract_z
 _atom_site_occupancy
  H+  H0  1  0.86869581  0.23214462  0.49069131  1
  H+  H1  1  0.08915577  0.93407519  0.72754077  1
  H+  H2  1  0.37620762  0.22677336  0.33773449  1
  H+  H3  1  0.84201737  0.16779544  0.72793381  1
  H+  H4  1  0.86259478  0.63867081  0.15856416  1
  H+  H5  1  0.52512379  0.60703639  0.35036830  1
  H+  H6  1  0.13965680  0.03482659  0.65560687  1
  H+  H7  1  0.00224204  0.35925178  0.65380457  1
  H+  H8  1  0.39441027  0.12941568  0.64833615  1
  H+  H9  1  0.47452573  0.87093746  0.83637927  1
  H+  H10  1  0.86100100  -0.01904508  0.63703116  1
  H+  H11  1  0.46193544  0.09581165  0.31595772  1
  H+  H12  1  0.62245699  0.73477512  0.82749583  1
  H+  H13  1  0.77786801  0.39443525  0.83444135  1
  H+  H14  1  0.87660717  0.65093055  0.83318784  1
  H+  H15  1  0.83285166  0.66444362  0.05910800  1
  H+  H16  1  0.91695090  0.29577238  0.84158419  1
  H+  H17  1  0.48528767  0.13365529  0.65161158  1
  H+  H18  1  0.14515082  0.52399605  0.04138892  1
  H+  H19  1  0.22179583  0.10906601  0.16673563  1
  H+  H20  1  0.01848481  0.64043422  0.16600770  1
  H+  H21  1  0.35771620  0.47555703  0.16712093  1
  H+  H22  1  0.02993931  0.12996195  0.48740934  1
  H+  H23  1  0.88317566  0.62033044  0.50686797  1
  H+  H24  1  0.22286341  0.13227176  0.83122829  1
  H+  H25  1  0.64139632  0.37222769  0.66204584  1
  H+  H26  1  0.08414451  0.41042047  0.32662618  1
  H+  H27  1  0.64881564  0.82829453  0.23872170  1
  H+  H28  1  0.10995461  0.12814837  0.15518764  1
  H+  H29  1  0.63598760  0.35382635  0.36081475  1
  H+  H30  1  -0.02424164  0.37071735  0.50162698  1
  H+  H31  1  0.48167865  0.86720201  0.66424470  1
  H+  H32  1  0.14257879  0.55516656  0.18163621  1
  H+  H33  1  0.62134564  0.48411684  0.67767168  1
  H+  H34  1  0.86027449  0.11506700  0.82712235  1
  H+  H35  1  0.12853534  0.77943134  0.66168422  1
  H+  H36  1  0.11937253  0.42764573  0.47052902  1
  H+  H37  1  0.14413748  0.24455813  0.51015105  1
  H+  H38  1  0.27172183  0.89142335  0.15829280  1
  H+  H39  1  0.02675180  0.63060268  0.82816596  1
  H+  H40  1  0.38610682  0.90511897  0.49218581  1
  H+  H41  1  0.52792584  0.38501813  0.33895699  1
  H+  H42  1  0.89392673  0.53770919  0.51462818  1
  H+  H43  1  0.13480999  0.35080530  0.15311867  1
  H+  H44  1  0.64767959  0.62286205  0.66348362  1
  H+  H45  1  0.36534335  0.88714455  0.00536208  1
  H+  H46  1  0.89210478  0.27078225  0.02713723  1
  H+  H47  1  0.39036398  0.60672810  0.66301261  1
  H+  H48  1  0.62170898  0.35440615  0.15849584  1
  H+  H49  1  0.77849398  0.12213557  0.16238485  1
  H+  H50  1  0.65991660  0.13821966  0.50550790  1
  H+  H51  1  0.78099536  0.14188946  0.49254788  1
  H+  H52  1  -0.00929166  0.39703288  0.33023859  1
  H+  H53  1  0.37821315  0.47240116  0.68122346  1
  H+  H54  1  0.88117767  0.77664511  0.32795930  1
  H+  H55  1  0.88835714  0.61445381  0.99395843  1
  H+  H56  1  0.64009543  0.78250644  0.66166197  1
  H+  H57  1  0.26862878  0.65141564  0.15391871  1
  H+  H58  1  0.62285118  0.24140224  0.67203957  1
  H+  H59  1  0.64251065  0.59825103  -0.01944805  1
  H+  H60  1  0.73116279  0.61180360  0.16564109  1
  H+  H61  1  0.72839093  0.86998137  0.64554753  1
  H+  H62  1  0.21330081  0.36027314  -0.00860946  1
  H+  H63  1  0.74277924  0.87421028  0.98823127  1
  H+  H64  1  0.61082867  0.46783208  0.14715331  1
  H+  H65  1  0.87680334  0.74068928  0.83323376  1
  H+  H66  1  0.27191349  0.36054867  0.49106125  1
  H+  H67  1  0.71192325  0.35973517  0.16620019  1
  H+  H68  1  0.11491158  0.08959009  0.31905011  1
  H+  H69  1  0.12250947  0.54422562  0.32336825  1
  H+  H70  1  0.48945658  0.13939154  0.50068396  1
  H+  H71  1  0.43202282  0.10285622  0.56134779  1
  H+  H72  1  0.53986982  0.63481364  0.12605989  1
  H+  H73  1  0.67286129  0.06992489  0.26899310  1
  H+  H74  1  0.35215341  0.63492211  0.49495829  1
  H+  H75  1  0.26109416  0.61157701  0.67782343  1
  H+  H76  1  0.89667481  0.86961548  0.84028597  1
  H+  H77  1  0.13392837  0.78037829  0.17444150  1
  H+  H78  1  0.60505712  0.72925166  0.50515622  1
  H+  H79  1  0.16194283  0.07904473  0.56255232  1
  H+  H80  1  0.38592320  0.77393995  0.51576012  1
  H+  H81  1  0.36834069  0.47392160  0.82436390  1
  H+  H82  1  0.02300286  0.64210064  0.67627641  1
  H+  H83  1  0.88147550  0.11030781  0.65119422  1
  H+  H84  1  0.48042038  0.36350638  0.16098464  1
  H+  H85  1  0.73197610  0.61932385  0.50508888  1
  H+  H86  1  -0.01986708  0.11327313  0.17451356  1
  H+  H87  1  0.73312057  0.37667440  0.66359374  1
  H+  H88  1  0.89229136  0.32738037  0.26521657  1
  H+  H89  1  0.59295239  0.42435287  0.73740429  1
  H+  H90  1  0.87462575  0.27326987  0.32743222  1
  H+  H91  1  0.39571044  0.62433349  0.24494843  1
  H+  H92  1  0.97994888  0.11484672  0.99319412  1
  H+  H93  1  0.73604669  0.62030536  0.83844210  1
  H+  H94  1  0.72712550  0.00949488  0.21477141  1
  H+  H95  1  0.11216437  0.13746440  0.00910121  1
  H+  H96  1  0.36117109  0.22155555  0.00315758  1
  H+  H97  1  0.12095486  0.86817894  0.50954420  1
  H+  H98  1  0.13713774  0.76953690  1.00368796  1
  H+  H99  1  0.21553288  0.59790953  1.00052381  1
  H+  H100  1  1.00692259  0.88230069  0.99916393  1
  H+  H101  1  0.11232382  0.65470788  0.33423000  1
  H+  H102  1  0.50601456  0.62012355  0.19296117  1
  H+  H103  1  0.22602450  0.63181793  0.50849367  1
  H+  H104  1  0.32984042  0.16531481  0.72389384  1
  H+  H105  1  0.61057390  0.15365785  0.82460188  1
  H+  H106  1  0.12156016  0.92171834  0.82102723  1
  H+  H107  1  0.86816916  0.89032793  0.14983064  1
  H+  H108  1  0.64348938  0.25555898  0.49867357  1
  H+  H109  1  0.77774736  0.06411920  0.78760463  1
  H+  H110  1  0.27240644  0.38680912  0.15726888  1
  H+  H111  1  0.89502776  0.11918401  0.49408420  1
  H+  H112  1  0.64282157  0.60627617  0.30982831  1
  H+  H113  1  0.72477794  0.12226558  0.84095177  1
  H+  H114  1  -0.02859936  0.11292075  0.32856432  1
  H+  H115  1  0.11341279  0.64318273  0.67463031  1
  H+  H116  1  0.39232039  0.36488192  0.16758258  1
  H+  H117  1  0.63530155  0.87207279  0.33610409  1
  H+  H118  1  1.02318832  0.90053064  0.82590584  1
  H+  H119  1  0.33153360  0.91882059  0.09828399  1
  H+  H120  1  0.13051330  0.05280172  0.83556567  1
  H+  H121  1  0.84410008  0.43106333  0.44299529  1
  H+  H122  1  0.23783211  0.62500640  0.83369352  1
  H+  H123  1  0.88318874  0.52568994  0.17515194  1
  H+  H124  1  0.87010863  0.13202322  0.00923929  1
  H+  H125  1  0.13634356  0.24730626  0.68796503  1
  H+  H126  1  0.62997332  0.48961132  0.49544528  1
  H+  H127  1  0.23874772  0.37254970  0.83163887  1
  H+  H128  1  0.87502229  0.75468484  0.48459276  1
  H+  H129  1  0.87597552  0.88936757  -0.00890081  1
  H+  H130  1  0.14795859  0.52394856  0.82579011  1
  H+  H131  1  0.77972527  0.64349117  0.68034658  1
  H+  H132  1  0.38205429  0.35390902  0.98880683  1
  H+  H133  1  0.27685486  0.54649704  0.71458167  1
  H+  H134  1  0.38816273  0.35379221  0.32190433  1
  H+  H135  1  0.38934039  0.78507811  0.16144665  1
  H+  H136  1  0.50751026  0.96918202  0.45971063  1
  H+  H137  1  0.11382943  0.21915794  0.15671761  1
  H+  H138  1  0.77888695  0.12736168  0.00880712  1
  H+  H139  1  0.35539281  0.46908973  0.00256262  1
  H+  H140  1  0.35652092  0.13694881  0.82055554  1
  H+  H141  1  0.64633406  0.99225913  0.17653392  1
  H+  H142  1  0.62694941  0.86483830  0.51164078  1
  H+  H143  1  0.88719693  0.36745801  0.50926733  1
  H+  H144  1  0.14726231  0.39885679  0.66403983  1
  H+  H145  1  0.35828136  0.97994939  0.82816008  1
  H+  H146  1  0.73589900  0.12592605  0.66176050  1
  H+  H147  1  0.22100281  0.86441475  0.33208846  1
  H+  H148  1  0.38153432  0.11105781  0.98928792  1
  H+  H149  1  0.12408810  0.21002126  0.80963505  1
  H+  H150  1  0.86179284  0.98177951  0.33756700  1
  H+  H151  1  0.10285444  0.97070372  0.49373525  1
  H+  H152  1  0.43858139  0.35281675  0.57856891  1
  H+  H153  1  0.86948389  0.39813113  0.83020726  1
  H+  H154  1  0.40318016  0.00212607  0.48525515  1
  H+  H155  1  0.36028757  0.13226223  0.33584022  1
  H+  H156  1  0.38297373  0.86708458  0.83866720  1
  H+  H157  1  0.14168687  0.32868967  0.52547366  1
  H+  H158  1  0.40416709  0.57673985  0.43372455  1
  H+  H159  1  0.23212037  0.34230789  0.31785928  1
  H+  H160  1  0.86549591  0.26218752  0.17091333  1
  H+  H161  1  0.86084050  0.39672682  0.34343529  1
  H+  H162  1  0.68076696  0.70426783  0.37372411  1
  H+  H163  1  0.47652376  0.36403401  0.83829694  1
  H+  H164  1  0.78503083  0.40024997  0.50300031  1
  H+  H165  1  0.14109457  0.52893622  0.65417166  1
  H+  H166  1  0.63912603  0.28509850  0.84174553  1
  H+  H167  1  0.12893052  0.86706383  0.33071841  1
  H+  H168  1  0.34864944  0.44852355  0.34167350  1
  H+  H169  1  0.47087750  0.11684469  0.83431130  1
  H+  H170  1  0.11155635  0.21014239  0.33454767  1
  H+  H171  1  0.38643083  0.36202698  0.83619787  1
  H+  H172  1  0.72800366  0.87660758  0.32894561  1
  H+  H173  1  0.88023895  0.23274707  0.67026507  1
  H+  H174  1  0.83425495  0.17260473  0.39792636  1
  H+  H175  1  0.78215606  0.89242266  0.82828608  1
  H+  H176  1  0.88843179  0.52493205  0.99562601  1
  H+  H177  1  0.60911403  0.14278592  0.15141679  1
  H+  H178  1  0.63762733  0.50391005  0.99053375  1
  H+  H179  1  0.61825882  0.39422172  0.83146103  1
  H+  H180  1  0.98295346  0.11738337  0.83728970  1
  H+  H181  1  0.97265468  0.86023981  0.17045797  1
  H+  H182  1  0.63889204  0.00632613  0.99411908  1
  H+  H183  1  0.35724497  0.45195337  0.47977098  1
  H+  H184  1  0.06885368  0.44462653  0.18606452  1
  H+  H185  1  0.63465379  0.04083980  0.50694582  1
  H+  H186  1  0.52371721  0.14766095  0.99586472  1
  H+  H187  1  0.64023344  0.28448717  -0.00876104  1
  H+  H188  1  0.53856856  0.64911355  0.67481697  1
  H+  H189  1  0.35981730  0.13646976  0.15844826  1
  H+  H190  1  -0.02950575  0.86354191  0.32742951  1
  H+  H191  1  0.12656758  0.75909686  0.84306833  1
  H+  H192  1  0.60793434  0.23193748  0.15392715  1
  H+  H193  1  0.38323252  0.02441605  0.16534248  1
  H+  H194  1  0.59788189  0.87110528  0.15986315  1
  H+  H195  1  0.11212133  0.65977398  0.50336137  1
  H+  H196  1  0.27209067  0.63730698  0.35035843  1
  H+  H197  1  0.85884058  0.38619310  1.02216626  1
  H+  H198  1  0.03198083  0.35923011  0.07745111  1
  H+  H199  1  0.02802560  0.89613522  0.67036612  1
  H+  H200  1  0.42955960  0.56738420  0.27268521  1
  H+  H201  1  0.36328914  0.73455485  0.82584994  1
  H+  H202  1  0.50027617  0.37775809  0.52202250  1
  H+  H203  1  0.67471346  0.09561590  0.60383969  1
  H+  H204  1  0.89289809  0.62628263  0.66780255  1
  H+  H205  1  0.13125798  0.01975441  0.16239129  1
  H+  H206  1  0.10380212  0.62705409  0.01868495  1
  H+  H207  1  0.35663419  0.72577539  -0.00816930  1
  H+  H208  1  0.66549691  0.10220975  0.89935043  1
  H+  H209  1  0.77473750  0.62721266  -0.00054916  1
  H+  H210  1  0.94850640  0.35463778  0.17392654  1
  H+  H211  1  0.76559567  0.88775645  0.49106422  1
  H+  H212  1  0.65688680  0.83748303  0.57207138  1
  H+  H213  1  0.26208164  0.37853763  0.67136598  1
  H+  H214  1  0.10716845  0.88830046  0.15440862  1
  H+  H215  1  0.41409148  0.58182417  1.05758478  1
  H+  H216  1  0.77907671  0.63880143  0.33485592  1
  H+  H217  1  0.21890923  0.09870285  0.50052764  1
  H+  H218  1  0.26897646  0.87553665  0.67389610  1
  H+  H219  1  0.48478318  0.50812559  0.33957459  1
  H+  H220  1  0.36339774  0.22868003  0.81984397  1
  H+  H221  1  0.07677553  0.67000904  0.10507086  1
  H+  H222  1  0.63498549  0.26746949  0.34347933  1
  H+  H223  1  0.64274709  0.62121773  0.51239262  1
  H+  H224  1  0.38620744  0.02459452  0.98864206  1
  H+  H225  1  0.89252762  0.78755485  0.98273303  1
  H+  H226  1  0.13201891  0.55017018  0.50399511  1
  H+  H227  1  0.27534895  0.88515538  0.00788465  1
  H+  H228  1  0.09946579  0.88190972  0.00689905  1
  H+  H229  1  0.61716652  0.76088348  0.18478551  1
  H+  H230  1  0.86066812  0.89124234  0.33700428  1
  H+  H231  1  0.60827856  -0.01019409  0.82965197  1
  H+  H232  1  0.89189343  1.02267884  -0.01139621  1
  H+  H233  1  0.13917309  0.40234886  0.81930046  1
  H+  H234  1  0.89377447  0.11793172  0.17292634  1
  H+  H235  1  0.11593724  0.75510342  0.33061395  1
  H+  H236  1  0.08861448  0.46428814  -0.04264215  1
  H+  H237  1  0.38643964  0.85093006  0.66531685  1
  H+  H238  1  0.53561658  0.64330046  0.00482390  1
  H+  H239  1  0.11798407  0.76966557  0.51214138  1
  H+  H240  1  0.88796404  0.62388093  0.32931985  1
  H+  H241  1  0.13737250  0.61506454  0.82979559  1
  H+  H242  1  0.89360544  0.53118196  0.84296544  1
  H+  H243  1  0.46925864  0.85692512  0.33652395  1
  H+  H244  1  0.61239692  -0.02023795  0.34234875  1
  H+  H245  1  0.39029290  0.36680639  0.67397365  1
  H+  H246  1  0.01877915  0.65351563  0.50515825  1
  H+  H247  1  0.21858007  0.10882325  0.00723707  1
  H+  H248  1  0.38927175  0.87273594  0.16674262  1
  H+  H249  1  0.77116153  0.38935364  0.00748993  1
  H+  H250  1  0.51725232  0.88784026  0.15613471  1
  H+  H251  1  0.47233830  0.11449256  0.16671800  1
  H+  H252  1  0.62069634  0.15122514  0.67400175  1
  H+  H253  1  0.62276026  -0.00972999  0.67632886  1
  H+  H254  1  0.22865023  0.12255988  0.65251740  1
  H+  H255  1  0.01679253  0.65023577  0.33268510  1
  H+  H256  1  0.26869152  0.89211074  0.83353661  1
  H+  H257  1  0.65512248  0.37910656  0.51030556  1
  H+  H258  1  0.72676104  0.11591512  0.32858822  1
  H+  H259  1  0.12011488  0.15284062  0.68232717  1
  H+  H260  1  0.91260578  0.83249316  0.22991629  1
  H+  H261  1  0.47419361  0.85638268  -0.00907281  1
  H+  H262  1  0.63826894  0.87256993  0.83951361  1
  H+  H263  1  -0.02194113  0.37055468  0.88627821  1
  H+  H264  1  0.41748049  0.83575380  0.92985212  1
  H+  H265  1  0.87352644  0.84196743  0.48883302  1
  H+  H266  1  0.36484274  0.23230773  0.66983249  1
  H+  H267  1  0.10176705  0.96671608  0.33347489  1
  H+  H268  1  0.86092303  0.48828043  0.67697815  1
  H+  H269  1  0.35186648  0.12983305  0.49005984  1
  H+  H270  1  0.82485910  0.91648990  0.43140835  1
  H+  H271  1  0.48063930  0.36594652  0.67323214  1
  H+  H272  1  0.14611513  0.34212589  0.32601153  1
  H+  H273  1  0.65364650  0.78420973  0.98395600  1
  H+  H274  1  0.88879057  0.02716951  0.49676998  1
  H+  H275  1  0.01830148  0.63345911  0.01169132  1
  H+  H276  1  0.86129998  0.72701585  0.15764997  1
  H+  H277  1  0.78511130  0.57490392  0.45444265  1
  H+  H278  1  0.63756442  0.60362173  0.17356545  1
  H+  H279  1  0.86285512  0.14265676  0.33758047  1
  H+  H280  1  0.60413406  0.12326565  0.32968461  1
  H+  H281  1  0.36149264  0.22614346  0.15857318  1
  H+  H282  1  0.83657799  0.90523292  0.58986266  1
  H+  H283  1  0.48338747  0.61491551  0.83431916  1
  H+  H284  1  0.12648826  1.02140061  0.00950145  1
  H+  H285  1  0.35022521  0.63996338  0.14896941  1
  H+  H286  1  0.84667647  0.38655336  0.16073613  1
  H+  H287  1  0.04700263  0.45923363  0.16318209  1
  H+  H288  1  0.67738108  0.59148191  0.60513382  1
  H+  H289  1  0.11149000  0.42819036  0.72043809  1
  H+  H290  1  0.61326787  0.87969891  0.00706022  1
  H+  H291  1  0.67494743  0.58008817  0.89616772  1
  H+  H292  1  0.61746290  0.48265812  0.82793455  1
  H+  H293  1  0.47305280  0.60941787  0.48515834  1
  H+  H294  1  0.33827475  0.92085587  0.39514153  1
  H+  H295  1  0.19708513  0.33180063  0.61172742  1
  H+  H296  1  0.39017014  0.62108091  1.00365626  1
  H+  H297  1  0.50633798  0.89971122  0.49869877  1
  H+  H298  1  0.58672059  0.93196171  0.76981772  1
  H+  H299  1  0.33918285  0.41423940  0.76237483  1
  H+  H300  1  0.32602807  0.66952099  0.43869120  1
  H+  H301  1  0.16152421  0.33066138  0.22037235  1
  H+  H302  1  0.77413868  0.39433606  0.35848310  1
  H+  H303  1  0.32643338  0.41232497  0.06126444  1
  H+  H304  1  0.07746307  0.16948098  0.06330463  1
  H+  H305  1  0.67210950  0.34316151  0.90305588  1
  H+  H306  1  0.57936159  0.17475091  0.05546511  1
  H+  H307  1  0.39538461  0.61410290  0.83894174  1
  H+  H308  1  0.92957973  0.84583861  0.90324073  1
  H+  H309  1  0.42800239  0.33732913  0.26095075  1
  H+  H310  1  0.87091888  0.97898587  0.83054379  1
  H+  H311  1  0.58224679  0.18281782  0.76465667  1
  H+  H312  1  0.57810891  0.90530843  0.06655243  1
  H+  H313  1  0.91542935  0.08696576  0.26738854  1
  H+  H314  1  0.08356362  0.15623412  0.39705152  1
  H+  H315  1  0.41164380  0.08435452  0.89389802  1
  H+  H316  1  0.88906136  0.53458835  0.33228892  1
  H+  H317  1  0.65077717  0.23450729  0.43271243  1
  H+  H318  1  0.92679988  0.09253572  0.90039172  1
  H+  H319  1  0.67582611  0.57360027  0.25533239  1
  H+  H320  1  0.59478953  0.68246909  0.44282030  1
  H+  H321  1  0.96623163  0.35652583  0.99731642  1
  H+  H322  1  0.15265796  0.83932578  0.57483699  1
  H+  H323  1  0.32040561  0.15512189  0.43040511  1
  H+  H324  1  0.67891820  0.34802028  0.57359187  1
  H+  H325  1  0.93358477  0.33055635  0.60042454  1
  H+  H326  1  0.08919711  0.81498537  0.86778788  1
  H+  H327  1  0.89570544  0.78138302  0.67111357  1
  H+  H328  1  0.16558998  0.82419271  0.94308313  1
  H+  H329  1  0.87231180  0.97999657  0.15046072  1
  H+  H330  1  0.07876798  0.91232589  0.39740356  1
  H+  H331  1  0.14601511  0.06295544  0.25877479  1
  H+  H332  1  0.58351244  0.41572557  0.08187820  1
  H+  H333  1  0.37801226  0.85104769  0.33478261  1
  H+  H334  1  0.33083397  0.66211691  0.77162766  1
  H+  H335  1  0.63656098  0.75493750  0.34618214  1
  H+  H336  1  0.35028240  -0.03383209  0.33127100  1
  H+  H337  1  0.82559959  0.42498809  0.10195005  1
  H+  H338  1  0.11546266  0.12041137  0.48959928  1
  H+  H339  1  0.59832676  0.67944938  0.73410064  1
  H+  H340  1  0.42598924  0.58581466  0.60349109  1
  H+  H341  1  0.83930994  0.67422165  0.74058331  1
  H+  H342  1  0.13957258  0.64130960  0.17550003  1
  H+  H343  1  0.06781649  0.44606284  0.42130377  1
  H+  H344  1  0.83351614  0.16112323  0.10037907  1
  H+  H345  1  0.08811987  0.37635121  -0.04779912  1
  H+  H346  1  0.17264540  0.61245111  0.27053865  1
  H+  H347  1  0.32562634  0.67205811  0.05285369  1
  H+  H348  1  0.12557190  0.26845679  0.99194775  1
  H+  H349  1  0.62560080  0.64655557  0.82720614  1
  H+  H350  1  0.83017799  0.66335886  0.40001874  1
  H+  H351  1  0.41276644  0.32603810  0.92985795  1
  H+  H352  1  0.57398330  0.92608252  0.40299234  1
  H+  H353  1  0.59850847  0.42747740  0.43634243  1
  H+  H354  1  0.84532222  0.92059050  0.05219239  1
  H+  H355  1  0.55937806  0.13809526  0.38640012  1
  H+  H356  1  0.33473912  0.16555693  0.06438839  1
  H+  H357  1  0.05054396  0.40525313  0.81150542  1
  H+  H358  1  0.53695876  0.39095225  -0.00036489  1
  H+  H359  1  0.91742356  0.09112544  0.59007518  1
  H+  H360  1  0.31748110  0.38575455  0.39953843  1
  H+  H361  1  0.17199141  0.33948075  0.88779491  1
  H+  H362  1  0.82994053  0.42870818  0.73549965  1
  H+  H363  1  0.92813431  0.58991250  0.90253046  1
  H+  H364  1  0.67238356  0.84548285  0.89770561  1
  H+  H365  1  0.91424254  0.58657779  0.23465563  1
  H+  H366  1  0.61966138  0.47065914  0.33571610  1
  H+  H367  1  0.06969255  0.91063888  0.09423272  1
  H+  H368  1  0.32321542  0.90075691  0.73474651  1
  H+  H369  1  0.92007382  0.59820960  0.60619883  1
  H+  H370  1  0.89409277  0.86754205  0.65573469  1
  H+  H371  1  0.36301748  0.72086670  0.35169548  1
  H+  H372  1  0.16556182  0.84262678  0.23171907  1
  H+  H373  1  0.08466322  0.66471998  0.76613525  1
  H+  H374  1  0.41930955  0.83108325  0.57799391  1
  H+  H375  1  0.16924112  0.59862343  0.60087424  1
  H+  H376  1  0.13268795  0.87225051  0.66198710  1
  H+  H377  1  0.64269852  0.37681762  0.99415832  1
  H+  H378  1  0.11442138  0.36219603  0.05195305  1
  H+  H379  1  0.70651263  0.02908055  0.94411722  1
  H+  H380  1  0.62057231  0.67596288  0.04415259  1
  H+  H381  1  0.62156786  0.90036133  0.67736909  1
  H+  H382  1  0.40268522  0.07177271  0.25765538  1
  H+  H383  1  0.01373267  0.87752613  0.48637229  1
  O2-  O384  1  0.07822476  0.15904011  0.14272620  1
  O2-  O385  1  0.09092268  0.15736097  0.47334428  1
  O2-  O386  1  0.07874808  0.15009349  0.80259328  1
  O2-  O387  1  0.09358429  0.38202274  0.08662907  1
  O2-  O388  1  0.07824997  0.44745364  0.46605730  1
  O2-  O389  1  0.11278084  0.43764715  0.80134525  1
  O2-  O390  1  0.07963951  0.67371849  0.15085641  1
  O2-  O391  1  0.08006770  0.68920873  0.49065675  1
  O2-  O392  1  0.08801085  0.66052732  0.81213074  1
  O2-  O393  1  0.07337124  0.91501993  0.14057397  1
  O2-  O394  1  0.07689296  0.91044527  0.47655008  1
  O2-  O395  1  0.08163325  0.93886484  0.80574928  1
  O2-  O396  1  0.32848124  0.16590278  0.14343379  1
  O2-  O397  1  0.31056399  0.14658776  0.47519223  1
  O2-  O398  1  0.32951603  0.16897146  0.80347136  1
  O2-  O399  1  0.33406983  0.42211896  0.14389286  1
  O2-  O400  1  0.32014029  0.39460469  0.46258149  1
  O2-  O401  1  0.33525489  0.41293643  0.81072220  1
  O2-  O402  1  0.32488452  0.67220243  0.13211325  1
  O2-  O403  1  0.32522865  0.66980326  0.48512463  1
  O2-  O404  1  0.33014918  0.67126627  0.81625560  1
  O2-  O405  1  0.33240890  0.92102106  0.14385151  1
  O2-  O406  1  0.39615048  0.95050693  0.46235928  1
  O2-  O407  1  0.32717185  0.91668731  0.81764700  1
  O2-  O408  1  0.57551155  0.16872470  0.13860625  1
  O2-  O409  1  0.62569306  0.20381261  0.47093890  1
  O2-  O410  1  0.57843457  0.18202383  0.81036945  1
  O2-  O411  1  0.57566801  0.40962841  0.13018624  1
  O2-  O412  1  0.60993579  0.43012458  0.48068103  1
  O2-  O413  1  0.58565326  0.42121628  0.81454567  1
  O2-  O414  1  0.55945530  0.64227660  0.16799092  1
  O2-  O415  1  0.58078039  0.67084012  0.48659226  1
  O2-  O416  1  0.59445256  0.67530178  0.81066778  1
  O2-  O417  1  0.57930275  0.91104697  0.14189516  1
  O2-  O418  1  0.54866375  0.95010157  0.47239005  1
  O2-  O419  1  0.58222536  0.92950624  0.81558757  1
  O2-  O420  1  0.83549827  0.16650050  0.14622602  1
  O2-  O421  1  0.83973997  0.17214041  0.47396981  1
  O2-  O422  1  0.81219934  0.12098350  0.80553479  1
  O2-  O423  1  0.82466562  0.42480619  0.14779158  1
  O2-  O424  1  0.84647010  0.43017578  0.48824019  1
  O2-  O425  1  0.83856327  0.42836227  0.81875851  1
  O2-  O426  1  0.83070844  0.66622919  0.14191798  1
  O2-  O427  1  0.81535291  0.63562376  0.46554920  1
  O2-  O428  1  0.84473149  0.67908411  0.81823767  1
  O2-  O429  1  0.84594997  0.92424238  0.12922886  1
  O2-  O430  1  0.82591368  0.91531852  0.47691082  1
  O2-  O431  1  0.84280923  0.91912480  0.81556438  1
  O2-  O432  1  0.16029750  0.07926912  0.17978069  1
  O2-  O433  1  0.15695528  0.06994410  0.51714181  1
  O2-  O434  1  0.16706308  0.11064029  0.85286561  1
  O2-  O435  1  0.16859746  0.32977724  0.17565053  1
  O2-  O436  1  0.17804139  0.30344732  0.53026615  1
  O2-  O437  1  0.17543358  0.34711217  0.84354188  1
  O2-  O438  1  0.17667322  0.61651982  0.19136065  1
  O2-  O439  1  0.16511823  0.60695148  0.52373259  1
  O2-  O440  1  0.17237454  0.58658555  0.84395716  1
  O2-  O441  1  0.16671066  0.84197181  0.18663945  1
  O2-  O442  1  0.15087333  0.83690809  0.52786926  1
  O2-  O443  1  0.14356367  0.81591747  0.86289052  1
  O2-  O444  1  0.41175492  0.08449470  0.18176818  1
  O2-  O445  1  0.43134907  0.09849599  0.51437596  1
  O2-  O446  1  0.40999329  0.08229059  0.84826428  1
  O2-  O447  1  0.42226766  0.33484182  0.18208056  1
  O2-  O448  1  0.44451563  0.36932756  0.53509924  1
  O2-  O449  1  0.41569437  0.33055514  0.85209277  1
  O2-  O450  1  0.41214070  0.58215256  0.23327937  1
  O2-  O451  1  0.40943280  0.57474997  0.47782850  1
  O2-  O452  1  0.42338535  0.58087661  0.84926711  1
  O2-  O453  1  0.42233285  0.84366466  0.17756242  1
  O2-  O454  1  0.41759560  0.83363029  0.53141099  1
  O2-  O455  1  0.41407059  0.83636157  0.85155856  1
  O2-  O456  1  0.69668091  0.03891561  0.20157062  1
  O2-  O457  1  0.67856409  0.09851127  0.52233191  1
  O2-  O458  1  0.66523318  0.10450030  0.85449126  1
  O2-  O459  1  0.65031334  0.32391910  0.17664623  1
  O2-  O460  1  0.68466045  0.34867883  0.52757561  1
  O2-  O461  1  0.67416786  0.34527577  0.85701517  1
  O2-  O462  1  0.67129754  0.57557537  0.18306322  1
  O2-  O463  1  0.67396274  0.59223450  0.52670802  1
  O2-  O464  1  0.67432455  0.58858994  0.85075844  1
  O2-  O465  1  0.64130114  0.82204768  0.19403989  1
  O2-  O466  1  0.65693307  0.83536375  0.52531901  1
  O2-  O467  1  0.66824533  0.84146883  0.85233166  1
  O2-  O468  1  0.91986662  0.08549887  0.19088631  1
  O2-  O469  1  0.92506258  0.08845535  0.50852438  1
  O2-  O470  1  0.92337474  0.09143657  0.85496718  1
  O2-  O471  1  0.88922764  0.32225334  0.18827845  1
  O2-  O472  1  0.91748078  0.33433670  0.51817915  1
  O2-  O473  1  0.94787707  0.35801272  0.84625282  1
  O2-  O474  1  0.91648898  0.58711179  0.18931547  1
  O2-  O475  1  0.91913213  0.59857411  0.52809731  1
  O2-  O476  1  0.93044871  0.59222795  0.85695001  1
  O2-  O477  1  0.91147619  0.82794038  0.18483174  1
  O2-  O478  1  0.90828594  0.81478020  0.49719985  1
  O2-  O479  1  0.93069160  0.84254766  0.85497732  1
  O2-  O480  1  0.13751578  0.05325426  0.30327991  1
  O2-  O481  1  0.16721976  0.09411528  0.63852178  1
  O2-  O482  1  0.15570774  0.08468368  1.00448125  1
  O2-  O483  1  0.17115685  0.31650612  0.30028284  1
  O2-  O484  1  0.19660269  0.34939918  0.65399684  1
  O2-  O485  1  0.15124025  0.33157854  0.98037920  1
  O2-  O486  1  0.16316427  0.60598720  0.31540076  1
  O2-  O487  1  0.16855247  0.59245757  0.64615083  1
  O2-  O488  1  0.15199955  0.55883247  1.00531875  1
  O2-  O489  1  0.16009285  0.83546957  0.31465232  1
  O2-  O490  1  0.15898246  0.83823936  0.64409752  1
  O2-  O491  1  0.16868508  0.82949844  0.98792660  1
  O2-  O492  1  0.40083531  0.06594158  0.30307221  1
  O2-  O493  1  0.42907486  0.10533149  0.63066178  1
  O2-  O494  1  0.41300334  0.08328009  0.97104113  1
  O2-  O495  1  0.43117597  0.33899812  0.30636951  1
  O2-  O496  1  0.42073522  0.33486500  0.65802798  1
  O2-  O497  1  0.41303104  0.32451618  0.97544997  1
  O2-  O498  1  0.47067693  0.55399292  0.33935078  1
  O2-  O499  1  0.43429652  0.59337407  0.64717243  1
  O2-  O500  1  0.42369534  0.59137092  1.01401468  1
  O2-  O501  1  0.40791311  0.81824729  0.32754665  1
  O2-  O502  1  0.42328925  0.82853066  0.64850763  1
  O2-  O503  1  0.41394316  0.82979213  0.97522049  1
  O2-  O504  1  0.66662670  0.08180930  0.31252108  1
  O2-  O505  1  0.67382097  0.09491842  0.64904752  1
  O2-  O506  1  0.68397436  0.05688628  0.97040806  1
  O2-  O507  1  0.66913583  0.32303035  0.36441598  1
  O2-  O508  1  0.67255401  0.34315178  0.64585086  1
  O2-  O509  1  0.67538963  0.34627192  0.97824433  1
  O2-  O510  1  0.67363621  0.57551014  0.30159963  1
  O2-  O511  1  0.67693026  0.59067290  0.65060859  1
  O2-  O512  1  0.67390849  0.56831838  0.97046420  1
  O2-  O513  1  0.66504336  0.84179348  0.31852111  1
  O2-  O514  1  0.66354566  0.84126491  0.64327321  1
  O2-  O515  1  0.67957572  0.84628217  0.97535496  1
  O2-  O516  1  0.91086862  0.08671178  0.31305169  1
  O2-  O517  1  0.90647343  0.07667025  0.63372565  1
  O2-  O518  1  0.91903651  0.08582673  0.97784323  1
  O2-  O519  1  0.89935935  0.33332706  0.31051064  1
  O2-  O520  1  0.94003054  0.32614802  0.64461380  1
  O2-  O521  1  0.92715673  0.33433816  1.03291308  1
  O2-  O522  1  0.91937461  0.59365651  0.31413887  1
  O2-  O523  1  0.92350711  0.59645003  0.65150944  1
  O2-  O524  1  0.92193325  0.58542018  0.98061622  1
  O2-  O525  1  0.90994460  0.83703684  0.31223415  1
  O2-  O526  1  0.93043076  0.84071453  0.65532534  1
  O2-  O527  1  0.92494379  0.84779802  0.96981523  1
  O2-  O528  1  0.08099095  0.17162026  0.01805612  1
  O2-  O529  1  0.07391211  0.15247816  0.35178242  1
  O2-  O530  1  0.09591126  0.18668974  0.70019194  1
  O2-  O531  1  0.05264199  0.40367765  -0.05562977  1
  O2-  O532  1  0.05355480  0.43719400  0.34407527  1
  O2-  O533  1  0.11293862  0.42864201  0.67538589  1
  O2-  O534  1  0.07818855  0.66280884  0.02980847  1
  O2-  O535  1  0.08004787  0.68569541  0.34536184  1
  O2-  O536  1  0.08399335  0.67277863  0.69236130  1
  O2-  O537  1  0.06804218  0.90998506  0.02183594  1
  O2-  O538  1  0.07521681  0.90594497  0.35219574  1
  O2-  O539  1  0.09128577  0.92905681  0.68253092  1
  O2-  O540  1  0.33231264  0.16128684  0.01910755  1
  O2-  O541  1  0.34006215  0.16890998  0.35460877  1
  O2-  O542  1  0.33150193  0.16853082  0.67862529  1
  O2-  O543  1  0.32116901  0.40904633  0.01631811  1
  O2-  O544  1  0.32041394  0.38723317  0.35062260  1
  O2-  O545  1  0.34344409  0.41388288  0.69654483  1
  O2-  O546  1  0.32599603  0.66488865  0.00797426  1
  O2-  O547  1  0.33043771  0.65916322  0.36651453  1
  O2-  O548  1  0.30626740  0.60668801  0.70213681  1
  O2-  O549  1  0.33675392  0.91845954  0.02123573  1
  O2-  O550  1  0.31962793  0.90828256  0.35170637  1
  O2-  O551  1  0.32537124  0.89030498  0.69102132  1
  O2-  O552  1  0.58379997  0.18017876  0.01073127  1
  O2-  O553  1  0.56762480  0.14830082  0.34265873  1
  O2-  O554  1  0.59003165  0.18119720  0.68828438  1
  O2-  O555  1  0.59537183  0.42258786  0.01654021  1
  O2-  O556  1  0.58680069  0.41542641  0.35759736  1
  O2-  O557  1  0.59254761  0.42336334  0.69184746  1
  O2-  O558  1  0.59951979  0.67184776  0.00287711  1
  O2-  O559  1  0.62414063  0.69647938  0.36486092  1
  O2-  O560  1  0.59954713  0.68145790  0.68832205  1
  O2-  O561  1  0.57735020  0.90490399  0.02072563  1
  O2-  O562  1  0.58313968  0.91994648  0.35881662  1
  O2-  O563  1  0.59291136  0.93116960  0.69416852  1
  O2-  O564  1  0.83752001  0.15983565  0.02665276  1
  O2-  O565  1  0.83188340  0.17290487  0.35214492  1
  O2-  O566  1  0.83962316  0.17085507  0.68326816  1
  O2-  O567  1  0.83112306  0.42166222  0.02615751  1
  O2-  O568  1  0.83822036  0.43167861  0.36216368  1
  O2-  O569  1  0.82644345  0.42778436  0.69068805  1
  O2-  O570  1  0.83567852  0.66191765  0.01419848  1
  O2-  O571  1  0.83722710  0.67339397  0.35258509  1
  O2-  O572  1  0.84045598  0.67372647  0.69509934  1
  O2-  O573  1  0.84224262  0.92007806  0.00663251  1
  O2-  O574  1  0.82964787  0.92101903  0.35265352  1
  O2-  O575  1  0.83084949  0.91428728  0.63287741  1
