# generated using pymatgen
data_H2O
_symmetry_space_group_name_H-M   'P 1'
_cell_length_a   17.99690029
_cell_length_b   17.98643094
_cell_length_c   22.00820037
_cell_angle_alpha   89.99106680
_cell_angle_beta   90.00220480
_cell_angle_gamma   120.01756838
_symmetry_Int_Tables_number   1
_chemical_formula_structural   H2O
_chemical_formula_sum   'H384 O192'
_cell_volume   6168.51963641
_cell_formula_units_Z   192
loop_
 _symmetry_equiv_pos_site_id
 _symmetry_equiv_pos_as_xyz
  1  'x, y, z'
loop_
 _atom_type_symbol
 _atom_type_oxidation_number
  H+  1.0
  O2-  -2.0
loop_
 _atom_site_type_symbol
 _atom_site_label
 _atom_site_symmetry_multiplicity
 _atom_site_fract_x
 _atom_site_fract_y
 _atom_site_fract_z
 _atom_site_occupancy
  H+  H0  1  0.38660493  0.86245155  0.66934339  1
  H+  H1  1  0.13920726  0.53338758  0.83353965  1
  H+  H2  1  0.82759516  0.09638554  0.00362400  1
  H+  H3  1  0.89082539  0.14978703  0.14556841  1
  H+  H4  1  0.45991899  0.86089542  0.51276990  1
  H+  H5  1  0.13157056  1.02275275  -0.00312799  1
  H+  H6  1  0.11627445  0.49608026  0.49755730  1
  H+  H7  1  0.86850060  0.98995481  0.33410002  1
  H+  H8  1  0.78860762  0.39645572  0.17290292  1
  H+  H9  1  0.35969075  0.63638885  0.67893494  1
  H+  H10  1  0.61415106  0.10112183  -0.01643127  1
  H+  H11  1  0.35450165  0.64299152  0.33882816  1
  H+  H12  1  0.64866600  0.12424895  0.31043979  1
  H+  H13  1  0.74224158  0.35763926  0.84002798  1
  H+  H14  1  0.51718974  0.88785369  0.66540318  1
  H+  H15  1  0.87912245  0.26476097  0.32232331  1
  H+  H16  1  0.29845711  0.64608735  0.09608404  1
  H+  H17  1  0.59666180  0.88703989  0.50979740  1
  H+  H18  1  0.63684169  0.61818389  0.50533668  1
  H+  H19  1  0.40540955  0.89447986  0.17310295  1
  H+  H20  1  0.56155773  0.08807279  0.80298655  1
  H+  H21  1  0.74903871  0.86023062  1.00316740  1
  H+  H22  1  0.62465186  0.39196733  0.67430861  1
  H+  H23  1  0.50120597  0.91886058  0.82277970  1
  H+  H24  1  0.36320518  0.66238376  0.83615317  1
  H+  H25  1  0.12772600  0.85051079  0.17331540  1
  H+  H26  1  0.12416244  -0.00346039  0.49276082  1
  H+  H27  1  0.72878695  0.87659715  0.32575437  1
  H+  H28  1  0.22408295  0.10644871  0.18144350  1
  H+  H29  1  0.67197707  0.57847738  0.22477393  1
  H+  H30  1  0.37996606  0.36589070  0.17652391  1
  H+  H31  1  0.90409280  0.90831457  0.84328721  1
  H+  H32  1  0.13015529  0.25702538  0.17386408  1
  H+  H33  1  0.10691082  0.64278617  0.49561762  1
  H+  H34  1  0.32864736  0.67250393  0.43463519  1
  H+  H35  1  0.22449526  0.62326813  0.50530517  1
  H+  H36  1  0.12110466  0.25756826  0.34307651  1
  H+  H37  1  0.11307384  0.14179847  0.16660895  1
  H+  H38  1  0.09727384  0.46048345  0.00652741  1
  H+  H39  1  0.53082861  0.38073649  0.67846005  1
  H+  H40  1  0.32258595  0.91405382  0.42970745  1
  H+  H41  1  0.13660023  0.02268572  0.84098063  1
  H+  H42  1  0.22236598  0.09428825  0.67416511  1
  H+  H43  1  0.91145587  0.83623300  0.23668268  1
  H+  H44  1  0.35279105  0.12845642  0.83812486  1
  H+  H45  1  0.62394222  0.24731764  0.50719965  1
  H+  H46  1  0.88818785  0.58522527  0.84887580  1
  H+  H47  1  0.61275589  0.63884962  0.65884599  1
  H+  H48  1  0.52719099  0.89467970  0.33489753  1
  H+  H49  1  0.61631292  -0.01720893  0.33391257  1
  H+  H50  1  0.38027138  0.53989098  0.50676883  1
  H+  H51  1  0.48971993  0.12441821  0.31707590  1
  H+  H52  1  0.67202957  -0.00943743  0.19025035  1
  H+  H53  1  0.16098248  0.08120724  0.27586065  1
  H+  H54  1  0.61670306  0.48500280  0.49053134  1
  H+  H55  1  0.15140852  0.83203329  0.93222347  1
  H+  H56  1  0.37894038  0.47597766  0.67201180  1
  H+  H57  1  0.64666523  0.11759218  0.65611296  1
  H+  H58  1  0.10853928  0.12164981  0.67539652  1
  H+  H59  1  0.39955617  0.12497927  0.31789795  1
  H+  H60  1  0.22273375  0.11461294  0.84544922  1
  H+  H61  1  0.11660625  0.49148486  0.18334502  1
  H+  H62  1  0.97782714  0.11899487  0.32590945  1
  H+  H63  1  0.36808440  0.14263456  0.16260595  1
  H+  H64  1  0.35281120  0.54853364  0.82312699  1
  H+  H65  1  0.02051261  0.36118857  0.00873203  1
  H+  H66  1  0.45433947  0.59250053  0.82698042  1
  H+  H67  1  0.64988449  0.38090485  0.50286206  1
  H+  H68  1  0.03468731  0.37926673  0.64889627  1
  H+  H69  1  0.36461596  0.22293520  0.83573981  1
  H+  H70  1  0.29024862  0.89633167  0.68982392  1
  H+  H71  1  0.20067820  0.69375408  0.13495497  1
  H+  H72  1  0.48012240  0.61230943  0.99492477  1
  H+  H73  1  0.38311654  0.78251121  0.32715727  1
  H+  H74  1  0.47032333  0.36511139  0.17788804  1
  H+  H75  1  0.64563808  0.12613547  0.50924882  1
  H+  H76  1  0.90057114  0.53167840  0.17558787  1
  H+  H77  1  0.96883940  0.61387144  0.50214163  1
  H+  H78  1  0.35523965  0.73159824  0.49557557  1
  H+  H79  1  0.37479003  0.61611795  0.16435867  1
  H+  H80  1  0.63163594  0.39178122  0.82954289  1
  H+  H81  1  0.36424352  0.21519584  0.68338396  1
  H+  H82  1  0.68820262  -0.00297004  1.01160353  1
  H+  H83  1  0.33237016  0.41522010  0.10787594  1
  H+  H84  1  0.25926445  0.13526149  0.01250251  1
  H+  H85  1  0.90019811  0.38865731  0.97874184  1
  H+  H86  1  0.61177300  0.47306925  0.16474512  1
  H+  H87  1  0.77995699  0.13348158  0.66870025  1
  H+  H88  1  0.16150902  0.40681966  0.51441179  1
  H+  H89  1  0.37915890  0.98380301  0.69788247  1
  H+  H90  1  0.61764410  0.38295082  0.34827443  1
  H+  H91  1  0.89149266  0.81465852  0.58946482  1
  H+  H92  1  0.60073004  0.98976690  0.81790416  1
  H+  H93  1  0.61688557  0.72295406  0.01156119  1
  H+  H94  1  0.09682112  0.12942233  0.49475710  1
  H+  H95  1  0.13414142  0.01880221  0.18098517  1
  H+  H96  1  0.84342253  0.40661049  0.73255846  1
  H+  H97  1  0.12246441  0.47837777  0.34859794  1
  H+  H98  1  0.79946957  0.13467140  0.82526184  1
  H+  H99  1  0.48690305  0.37032965  0.50641605  1
  H+  H100  1  0.48311211  0.11123320  0.17031498  1
  H+  H101  1  0.02218543  0.63623741  0.66777225  1
  H+  H102  1  0.21458176  0.86245916  0.99037380  1
  H+  H103  1  0.35919954  0.22724835  0.16617475  1
  H+  H104  1  0.65172654  0.52957493  0.83702746  1
  H+  H105  1  0.87273667  0.64972129  0.00443955  1
  H+  H106  1  0.50369333  0.35355302  0.02006777  1
  H+  H107  1  0.89021080  0.78163753  -0.01065979  1
  H+  H108  1  0.52843951  0.65077672  0.49759764  1
  H+  H109  1  0.86256748  0.89562554  0.16717120  1
  H+  H110  1  0.35244617  0.97713287  0.00832975  1
  H+  H111  1  0.10802640  0.13601926  1.02144258  1
  H+  H112  1  0.88643685  1.01607972  0.65876530  1
  H+  H113  1  0.36858499  -0.00978049  0.33459495  1
  H+  H114  1  0.63640465  0.05341092  0.17175709  1
  H+  H115  1  0.49162616  0.36040895  0.85022614  1
  H+  H116  1  0.97847075  0.60356750  0.32930545  1
  H+  H117  1  0.36200541  1.01386078  0.85577584  1
  H+  H118  1  0.39420225  0.82652289  0.56747179  1
  H+  H119  1  -0.00047815  0.06030102  0.48789477  1
  H+  H120  1  0.37526785  0.26727993  0.99794498  1
  H+  H121  1  0.14677623  0.73743149  0.15752296  1
  H+  H122  1  0.86786336  0.48028770  0.48735556  1
  H+  H123  1  0.39535710  0.11166490  0.68733569  1
  H+  H124  1  0.23371422  0.36548336  0.81012656  1
  H+  H125  1  0.59276074  0.68483862  0.44044579  1
  H+  H126  1  0.51465276  0.23442516  0.79839826  1
  H+  H127  1  0.67565746  0.11484594  0.83044222  1
  H+  H128  1  0.10833187  0.13560500  0.34484355  1
  H+  H129  1  0.53855948  0.14694980  0.68145880  1
  H+  H130  1  0.34399940  0.87842540  0.48980428  1
  H+  H131  1  0.89294602  0.14513244  0.82285822  1
  H+  H132  1  0.80485759  0.12977478  1.06121945  1
  H+  H133  1  0.27900767  0.38431159  0.02340987  1
  H+  H134  1  0.87781398  0.77992792  0.33372862  1
  H+  H135  1  0.37049843  0.45426536  0.84352548  1
  H+  H136  1  0.13032481  1.00579833  0.67580186  1
  H+  H137  1  0.46746563  0.84601355  1.01168792  1
  H+  H138  1  0.77503307  0.38402856  0.34576729  1
  H+  H139  1  0.60339260  0.24553676  0.01254914  1
  H+  H140  1  0.76155991  0.11493857  0.48375338  1
  H+  H141  1  0.62791051  0.51916607  0.65268231  1
  H+  H142  1  0.68614441  0.34485127  0.11639976  1
  H+  H143  1  0.26678981  0.64120066  0.34493690  1
  H+  H144  1  0.64020501  0.60490239  0.16586779  1
  H+  H145  1  0.87760001  0.70082826  0.81285465  1
  H+  H146  1  0.58726597  0.59362257  0.81325825  1
  H+  H147  1  0.27000742  0.65292815  0.83179449  1
  H+  H148  1  0.10118159  0.72945204  0.48848754  1
  H+  H149  1  0.26690600  0.38168956  0.16531597  1
  H+  H150  1  0.14509719  0.36210921  1.02308894  1
  H+  H151  1  0.66988198  0.33009569  0.39939312  1
  H+  H152  1  0.13022647  0.60408303  -0.00902428  1
  H+  H153  1  0.38110649  0.62810761  0.50581844  1
  H+  H154  1  0.35426944  0.88851166  0.00968441  1
  H+  H155  1  0.63357666  0.77948814  0.66189264  1
  H+  H156  1  0.38166070  0.77138606  0.66361231  1
  H+  H157  1  0.86975981  0.37811554  0.67066235  1
  H+  H158  1  0.38061986  0.37343459  0.83172827  1
  H+  H159  1  0.72835809  0.38136556  1.00203366  1
  H+  H160  1  0.86773883  0.90155584  0.34443269  1
  H+  H161  1  0.12553154  0.58612530  0.18353234  1
  H+  H162  1  0.87947783  0.81330424  0.82883628  1
  H+  H163  1  0.86713412  0.47299374  0.33603253  1
  H+  H164  1  0.97147489  0.35345060  0.17423917  1
  H+  H165  1  0.91944899  0.43234071  -0.03545803  1
  H+  H166  1  0.36691699  0.11189715  1.00478907  1
  H+  H167  1  0.88024094  0.59412865  0.65896788  1
  H+  H168  1  0.87295041  0.85365680  0.68217374  1
  H+  H169  1  0.52362991  0.62605244  0.16121209  1
  H+  H170  1  0.87610638  0.46039711  0.83175048  1
  H+  H171  1  0.49675832  0.11210671  0.54508453  1
  H+  H172  1  0.85721063  0.64728841  0.49536522  1
  H+  H173  1  0.11521441  0.72765356  0.00421314  1
  H+  H174  1  0.11323522  0.64097692  0.82396722  1
  H+  H175  1  0.50679081  0.52952125  0.77435598  1
  H+  H176  1  0.37509938  0.52949660  0.32035017  1
  H+  H177  1  0.73952440  0.36876703  0.65912699  1
  H+  H178  1  0.21280718  0.34376565  0.34073925  1
  H+  H179  1  0.12309497  0.40884865  0.80789587  1
  H+  H180  1  0.51243066  0.22390123  0.83148462  1
  H+  H181  1  0.76530800  0.89044980  0.67971343  1
  H+  H182  1  0.89255031  0.10521022  0.64728202  1
  H+  H183  1  0.75603867  0.65766896  0.34939344  1
  H+  H184  1  0.72476199  0.62987443  0.83038496  1
  H+  H185  1  0.98460694  0.60461274  0.83989787  1
  H+  H186  1  0.37360553  0.24108255  0.32850281  1
  H+  H187  1  0.59986389  0.83006049  0.80713481  1
  H+  H188  1  0.37647308  0.87253429  0.86031134  1
  H+  H189  1  0.47407500  0.61740737  0.65576102  1
  H+  H190  1  -0.04038974  0.85253600  0.68427577  1
  H+  H191  1  0.08283632  0.91461273  0.75234487  1
  H+  H192  1  0.03455581  0.40059635  0.82640620  1
  H+  H193  1  0.64252653  0.78736703  0.51162824  1
  H+  H194  1  0.10922970  0.72655298  0.66664962  1
  H+  H195  1  0.63802554  0.87474119  0.32618259  1
  H+  H196  1  0.38739861  0.79186318  0.85025203  1
  H+  H197  1  0.88927145  0.36698454  0.49624500  1
  H+  H198  1  0.13564959  0.61325590  0.65921219  1
  H+  H199  1  0.37205768  0.20434289  0.50723651  1
  H+  H200  1  0.35512505  0.62355855  1.00585742  1
  H+  H201  1  0.51034039  0.86549968  0.13126894  1
  H+  H202  1  0.61364287  0.85942154  0.83432125  1
  H+  H203  1  0.40481799  0.37700345  0.32778799  1
  H+  H204  1  0.73437525  0.90424600  0.17549597  1
  H+  H205  1  0.14890200  0.82780953  0.58059781  1
  H+  H206  1  0.90645265  0.04179858  0.84551418  1
  H+  H207  1  0.02175150  0.89146888  0.00826641  1
  H+  H208  1  1.00218473  0.12647124  0.83639503  1
  H+  H209  1  0.52833603  0.38324303  0.33634180  1
  H+  H210  1  0.13112263  0.86804877  0.49043408  1
  H+  H211  1  -0.01162838  0.12732151  0.00407719  1
  H+  H212  1  0.61419932  0.63388694  0.00543910  1
  H+  H213  1  0.12462722  0.87388580  0.83819904  1
  H+  H214  1  0.25117617  0.87924696  0.84064237  1
  H+  H215  1  0.12740460  0.59874851  0.33559659  1
  H+  H216  1  0.88113642  0.35430431  0.32145107  1
  H+  H217  1  0.72799970  0.62011927  0.50514303  1
  H+  H218  1  0.12041558  0.46958162  0.64841590  1
  H+  H219  1  0.85002622  0.50045541  0.02657220  1
  H+  H220  1  0.32410337  0.91189415  0.78793433  1
  H+  H221  1  0.29561186  0.30539091  0.47120164  1
  H+  H222  1  0.88381927  0.77950418  0.17544674  1
  H+  H223  1  0.61998356  0.51207665  0.32130033  1
  H+  H224  1  1.01776857  0.88739517  0.16619772  1
  H+  H225  1  0.62356156  0.20660888  0.16434455  1
  H+  H226  1  0.86349477  0.13371820  0.33450150  1
  H+  H227  1  0.78144963  0.64000166  0.15613661  1
  H+  H228  1  0.11807992  0.13914036  0.82077516  1
  H+  H229  1  0.11217590  0.71984013  0.34367681  1
  H+  H230  1  0.37406303  0.52679520  0.16886118  1
  H+  H231  1  0.41759399  0.34027433  0.26295570  1
  H+  H232  1  0.14448046  0.27267960  1.02819075  1
  H+  H233  1  0.19281214  0.89307959  0.63317490  1
  H+  H234  1  0.87206034  0.36990884  0.83119759  1
  H+  H235  1  0.22215907  0.86493745  0.17467609  1
  H+  H236  1  0.27648374  -0.09426141  0.33464608  1
  H+  H237  1  0.75332844  0.60473715  0.67041931  1
  H+  H238  1  0.63037495  0.86764914  0.66500908  1
  H+  H239  1  0.90828999  0.88082334  0.53330424  1
  H+  H240  1  0.59601996  0.97479496  0.50467962  1
  H+  H241  1  0.92056061  -0.00314983  0.55230109  1
  H+  H242  1  0.10772519  0.88708468  1.00955474  1
  H+  H243  1  0.66441082  0.75955139  0.85648179  1
  H+  H244  1  0.80435648  0.04797184  0.46368689  1
  H+  H245  1  0.89659745  0.28174440  0.49349964  1
  H+  H246  1  0.90219282  0.26645677  0.83377698  1
  H+  H247  1  0.63021702  0.66423140  0.35004976  1
  H+  H248  1  0.90114715  0.03837372  0.17549296  1
  H+  H249  1  0.87398847  0.64850379  0.15707099  1
  H+  H250  1  0.03564295  0.90246718  0.83096694  1
  H+  H251  1  0.67614437  0.09041884  0.56453747  1
  H+  H252  1  0.22409867  0.11876668  0.33103618  1
  H+  H253  1  0.87369694  0.23508679  0.99428713  1
  H+  H254  1  0.61139939  0.91628611  0.04601308  1
  H+  H255  1  0.14141342  0.28428077  0.80745881  1
  H+  H256  1  0.85257625  0.73487171  0.50829736  1
  H+  H257  1  0.59965353  0.36782084  1.01621443  1
  H+  H258  1  0.63573918  0.35953049  0.16722948  1
  H+  H259  1  0.14240686  0.36623496  0.60757469  1
  H+  H260  1  0.62780606  0.25177257  0.34496937  1
  H+  H261  1  0.87571911  0.22907733  0.14271634  1
  H+  H262  1  0.98507577  0.62002419  1.00254609  1
  H+  H263  1  0.40226914  0.35860678  0.66538567  1
  H+  H264  1  0.12168646  0.77760480  0.83848620  1
  H+  H265  1  0.63742955  1.02404930  0.65509801  1
  H+  H266  1  0.35100037  0.71042421  1.00669914  1
  H+  H267  1  0.07761543  0.66576379  0.76462101  1
  H+  H268  1  0.24700017  0.60840668  0.15912679  1
  H+  H269  1  0.10874902  0.36776057  0.16514278  1
  H+  H270  1  0.73256803  0.62445338  0.99044943  1
  H+  H271  1  0.45990194  0.12305897  1.00656187  1
  H+  H272  1  0.87513442  0.39034003  0.16959754  1
  H+  H273  1  0.24994818  0.36040941  0.48378633  1
  H+  H274  1  0.74977511  0.92682688  0.48595951  1
  H+  H275  1  0.08783697  0.86838031  0.68764182  1
  H+  H276  1  0.36936490  0.47349433  0.01300043  1
  H+  H277  1  0.87932727  0.98996192  0.00986596  1
  H+  H278  1  0.98808945  0.62099901  0.17283217  1
  H+  H279  1  0.73971943  0.37827545  0.50032967  1
  H+  H280  1  0.77179348  0.13212451  0.33398100  1
  H+  H281  1  0.03041273  0.40017042  0.49659261  1
  H+  H282  1  0.38623129  0.87236976  0.32615761  1
  H+  H283  1  0.76981682  0.88479876  0.84283279  1
  H+  H284  1  0.12122508  0.37966371  0.35377611  1
  H+  H285  1  0.77109302  0.97051650  0.82311902  1
  H+  H286  1  0.02116784  0.12305697  0.66930260  1
  H+  H287  1  0.89058450  0.26702384  0.65351914  1
  H+  H288  1  0.91893198  0.84670873  0.93164295  1
  H+  H289  1  0.12076155  0.27141114  0.91040956  1
  H+  H290  1  0.82691962  0.43964677  0.08494662  1
  H+  H291  1  0.42702257  0.33079171  0.90845333  1
  H+  H292  1  0.16727678  0.59298377  0.56644010  1
  H+  H293  1  0.32006713  0.16601330  0.07302791  1
  H+  H294  1  0.42207561  0.83749871  0.94772487  1
  H+  H295  1  0.64995833  0.27359190  0.84277273  1
  H+  H296  1  0.39390139  0.58491727  0.25929469  1
  H+  H297  1  0.92805908  0.30942408  0.89870214  1
  H+  H298  1  0.84565267  0.16347918  0.72505087  1
  H+  H299  1  0.42815606  0.31956441  0.60929190  1
  H+  H300  1  0.40849020  0.37875925  0.53023548  1
  H+  H301  1  0.08176859  0.15845855  0.75713453  1
  H+  H302  1  0.59666459  0.41844803  0.77129618  1
  H+  H303  1  0.92335383  0.58190851  0.26937993  1
  H+  H304  1  0.70603250  0.80721498  0.91890555  1
  H+  H305  1  0.67113854  0.86956454  0.23208581  1
  H+  H306  1  0.81905165  0.92723026  0.74074202  1
  H+  H307  1  0.35436191  0.18516604  0.38717116  1
  H+  H308  1  0.66171237  0.57901322  0.59197367  1
  H+  H309  1  0.32360410  0.92167909  0.10241445  1
  H+  H310  1  0.44048432  0.86694325  0.22923436  1
  H+  H311  1  0.67319986  0.07571559  0.89295059  1
  H+  H312  1  0.90736779  0.32206829  0.23138542  1
  H+  H313  1  0.56198795  0.17635657  0.46044591  1
  H+  H314  1  0.57634545  0.56021704  0.29141217  1
  H+  H315  1  0.43754444  0.49096477  0.38988860  1
  H+  H316  1  0.43145322  0.07906674  0.63190738  1
  H+  H317  1  0.91027705  0.57781222  0.56104586  1
  H+  H318  1  0.06441348  0.14741825  0.40638432  1
  H+  H319  1  0.67909308  0.07597920  0.26179706  1
  H+  H320  1  0.62730066  0.23647980  0.66825293  1
  H+  H321  1  0.94518409  0.21996491  0.97274356  1
  H+  H322  1  0.07806524  0.40102385  0.10663446  1
  H+  H323  1  0.33137785  0.16067768  0.74509790  1
  H+  H324  1  0.10838114  0.23293928  0.93016301  1
  H+  H325  1  0.08083427  0.16535794  0.08709223  1
  H+  H326  1  0.58390962  0.15732225  0.10541187  1
  H+  H327  1  0.35773333  0.41799952  0.73169091  1
  H+  H328  1  0.34511346  0.41159470  0.40417701  1
  H+  H329  1  0.77135457  0.55416575  0.72045120  1
  H+  H330  1  0.67077634  0.84663836  0.57096884  1
  H+  H331  1  0.58595194  0.42292695  0.43152551  1
  H+  H332  1  0.22509694  0.61452704  0.66113629  1
  H+  H333  1  0.22849157  0.11606047  0.53353772  1
  H+  H334  1  0.97417312  0.85607405  0.32754818  1
  H+  H335  1  0.58742936  0.14544151  0.37493779  1
  H+  H336  1  0.40697441  0.58746156  0.60210371  1
  H+  H337  1  0.39416071  0.07839990  0.91227527  1
  H+  H338  1  0.40110538  0.09058757  0.54273037  1
  H+  H339  1  0.68185591  0.34340417  0.93607641  1
  H+  H340  1  0.89328484  0.51375721  0.65757316  1
  H+  H341  1  0.15939239  0.08303774  0.93719845  1
  H+  H342  1  0.84091702  0.41968571  0.42681111  1
  H+  H343  1  0.61305234  0.16417148  0.75853996  1
  H+  H344  1  0.08132822  0.66322647  0.40376357  1
  H+  H345  1  0.56878739  0.39884077  0.11352339  1
  H+  H346  1  0.11213334  0.96218018  0.42515335  1
  H+  H347  1  0.42374926  0.08901860  0.22887593  1
  H+  H348  1  0.41654087  0.57946621  0.93740933  1
  H+  H349  1  0.67286977  0.59587007  0.93222330  1
  H+  H350  1  0.94160184  0.10237214  0.93687389  1
  H+  H351  1  0.84177260  0.67999200  0.06236138  1
  H+  H352  1  0.55551606  0.09315815  0.92908247  1
  H+  H353  1  0.32216911  0.11363130  0.47367802  1
  H+  H354  1  0.88291001  0.90238428  0.00941489  1
  H+  H355  1  0.62537011  0.74971793  0.34618631  1
  H+  H356  1  0.92717805  0.58196639  0.94335005  1
  H+  H357  1  0.82036916  0.13924744  0.41974026  1
  H+  H358  1  0.68224347  0.34833784  0.59860643  1
  H+  H359  1  0.33076817  0.67183349  0.73683863  1
  H+  H360  1  0.66812573  0.86934706  0.98924685  1
  H+  H361  1  0.58076458  0.65180017  0.10201486  1
  H+  H362  1  0.84322687  0.93017900  0.10608851  1
  H+  H363  1  0.56610857  0.93158358  0.72635457  1
  H+  H364  1  0.21403270  0.85715145  0.49304555  1
  H+  H365  1  0.81599757  0.68400926  0.40806547  1
  H+  H366  1  0.15976452  0.32067096  0.23499281  1
  H+  H367  1  0.91440306  0.32760576  0.59464602  1
  H+  H368  1  0.09621783  0.42360135  0.41628955  1
  H+  H369  1  0.57388042  0.65135177  0.71946734  1
  H+  H370  1  0.59105497  0.85565548  0.13299335  1
  H+  H371  1  0.07696566  0.91600644  0.10671247  1
  H+  H372  1  0.16250665  0.58683737  0.89585929  1
  H+  H373  1  0.53606124  0.24108558  0.05586139  1
  H+  H374  1  0.21393074  0.59536746  0.98908154  1
  H+  H375  1  0.10447519  0.67304343  0.06463180  1
  H+  H376  1  0.15177800  0.56065725  0.27685129  1
  H+  H377  1  0.99536208  0.12764461  0.17456554  1
  H+  H378  1  0.82609009  0.68996156  0.75417950  1
  H+  H379  1  0.81392632  0.95617269  0.42549932  1
  H+  H380  1  0.38643609  0.36174599  0.99937416  1
  H+  H381  1  0.15685176  0.07550905  0.58288484  1
  H+  H382  1  0.92503152  0.09553362  0.26207468  1
  H+  H383  1  0.35859156  0.98520905  0.15957856  1
  O2-  O384  1  0.08535000  0.17336278  0.15113499  1
  O2-  O385  1  0.04580130  0.12220388  0.47315967  1
  O2-  O386  1  0.08705457  0.16775115  0.80393663  1
  O2-  O387  1  0.07721203  0.39868921  0.15189139  1
  O2-  O388  1  0.09176482  0.43399889  0.48328560  1
  O2-  O389  1  0.09077656  0.44055894  0.80796691  1
  O2-  O390  1  0.14123526  0.68221869  0.13842572  1
  O2-  O391  1  0.07211624  0.66620996  0.47727174  1
  O2-  O392  1  0.07579824  0.66467531  0.80999206  1
  O2-  O393  1  0.07855007  0.91394188  0.15193452  1
  O2-  O394  1  0.11237339  0.94597627  0.46727385  1
  O2-  O395  1  0.09457850  0.92552860  0.81600381  1
  O2-  O396  1  0.33128318  0.16731855  0.15022177  1
  O2-  O397  1  0.34091456  0.14172762  0.51307930  1
  O2-  O398  1  0.32796542  0.16374670  0.82005744  1
  O2-  O399  1  0.32917635  0.41688622  0.15333048  1
  O2-  O400  1  0.27784426  0.34248407  0.45160296  1
  O2-  O401  1  0.35581011  0.40844364  0.81396448  1
  O2-  O402  1  0.29837634  0.65683319  0.14037578  1
  O2-  O403  1  0.32690997  0.66975002  0.48044052  1
  O2-  O404  1  0.33191664  0.68839439  0.81744659  1
  O2-  O405  1  0.32586878  0.92329001  0.14757466  1
  O2-  O406  1  0.31115634  0.90525517  0.47394636  1
  O2-  O407  1  0.31576220  0.90978198  0.83262662  1
  O2-  O408  1  0.59002741  0.14733279  0.14882004  1
  O2-  O409  1  0.58943220  0.18311738  0.49979062  1
  O2-  O410  1  0.60852870  0.14820806  0.80267363  1
  O2-  O411  1  0.57436868  0.40933972  0.15861604  1
  O2-  O412  1  0.58670431  0.42280983  0.47727362  1
  O2-  O413  1  0.60098588  0.42261279  0.81666058  1
  O2-  O414  1  0.58258454  0.64584368  0.14686958  1
  O2-  O415  1  0.58985611  0.67853165  0.48643778  1
  O2-  O416  1  0.53616569  0.58846241  0.78971083  1
  O2-  O417  1  0.54784025  0.85383751  0.10417849  1
  O2-  O418  1  0.55940441  0.91198045  0.50151296  1
  O2-  O419  1  0.54614575  0.96163889  0.79484166  1
  O2-  O420  1  0.87151010  0.18108375  0.11821306  1
  O2-  O421  1  0.81536450  0.12025308  0.46503518  1
  O2-  O422  1  0.85659849  0.16795633  0.80499493  1
  O2-  O423  1  0.84953830  0.42879509  0.16013291  1
  O2-  O424  1  0.83893045  0.41868973  0.47333712  1
  O2-  O425  1  0.84289751  0.40128845  0.81480474  1
  O2-  O426  1  0.84211261  0.67681389  0.14196829  1
  O2-  O427  1  0.82443015  0.67640106  0.48528351  1
  O2-  O428  1  0.83025805  0.70718808  0.79774738  1
  O2-  O429  1  0.83838526  0.93105728  0.15109077  1
  O2-  O430  1  0.79212106  0.97566644  0.46030479  1
  O2-  O431  1  0.80587706  0.94289738  0.82115585  1
  O2-  O432  1  0.16465408  0.07847508  0.19763120  1
  O2-  O433  1  0.16621585  0.08932191  0.53835896  1
  O2-  O434  1  0.16124324  0.08363429  0.85820495  1
  O2-  O435  1  0.16345001  0.32347136  0.19042489  1
  O2-  O436  1  0.20996413  0.40156737  0.53247456  1
  O2-  O437  1  0.17267467  0.34789188  0.81089877  1
  O2-  O438  1  0.14653003  0.55054543  0.20290195  1
  O2-  O439  1  0.16356778  0.59324604  0.52067481  1
  O2-  O440  1  0.16867080  0.59500090  0.85078600  1
  O2-  O441  1  0.16125229  0.82250842  0.18492125  1
  O2-  O442  1  0.15144797  0.82934971  0.50727140  1
  O2-  O443  1  0.15194987  0.83562100  0.85664473  1
  O2-  O444  1  0.42251303  0.09049557  0.18318390  1
  O2-  O445  1  0.43920518  0.07267969  0.56169077  1
  O2-  O446  1  0.39334384  0.07587868  0.86717236  1
  O2-  O447  1  0.40888556  0.33373891  0.19196055  1
  O2-  O448  1  0.42712746  0.33674605  0.52423730  1
  O2-  O449  1  0.43041424  0.32965127  0.86264797  1
  O2-  O450  1  0.40628947  0.58853509  0.18112043  1
  O2-  O451  1  0.41287898  0.59838635  0.52211889  1
  O2-  O452  1  0.40169662  0.58202164  0.85000016  1
  O2-  O453  1  0.45444875  0.88857366  0.18701636  1
  O2-  O454  1  0.39591466  0.82679730  0.52229845  1
  O2-  O455  1  0.41649689  0.84982623  0.86942410  1
  O2-  O456  1  0.68113718  0.04967847  0.19427764  1
  O2-  O457  1  0.67241289  0.09104332  0.51893342  1
  O2-  O458  1  0.69651629  0.07908076  0.85149176  1
  O2-  O459  1  0.67279629  0.33335833  0.15958777  1
  O2-  O460  1  0.67983518  0.35030881  0.51819855  1
  O2-  O461  1  0.68163251  0.33409438  0.85535255  1
  O2-  O462  1  0.67587710  0.57830598  0.17985854  1
  O2-  O463  1  0.66469430  0.58420017  0.51783969  1
  O2-  O464  1  0.66660602  0.59001380  0.84653256  1
  O2-  O465  1  0.67715544  0.89267916  0.19001563  1
  O2-  O466  1  0.66703318  0.84781270  0.52575537  1
  O2-  O467  1  0.71964927  0.79623384  0.87560746  1
  O2-  O468  1  0.93181197  0.09876946  0.19016994  1
  O2-  O469  1  0.94034238  -0.02430504  0.51850968  1
  O2-  O470  1  0.94341903  0.10167961  0.85861206  1
  O2-  O471  1  0.90970547  0.32808963  0.18519181  1
  O2-  O472  1  0.92206170  0.33863613  0.51199192  1
  O2-  O473  1  0.92673639  0.32345873  0.85525564  1
  O2-  O474  1  0.92849897  0.59489216  0.18598088  1
  O2-  O475  1  0.90753467  0.58068229  0.51597098  1
  O2-  O476  1  0.92722072  0.56541116  0.86124057  1
  O2-  O477  1  0.91215760  0.83947600  0.19127165  1
  O2-  O478  1  0.88562225  0.81671823  0.54481442  1
  O2-  O479  1  0.91859084  0.86431922  0.85334768  1
  O2-  O480  1  0.16262825  0.08746913  0.32109567  1
  O2-  O481  1  0.16302040  0.06538448  0.65799377  1
  O2-  O482  1  0.16104684  0.08390142  0.98287157  1
  O2-  O483  1  0.15349904  0.32154135  0.32818356  1
  O2-  O484  1  0.16712467  0.33766157  0.58042982  1
  O2-  O485  1  0.18197577  0.33587451  1.02131576  1
  O2-  O486  1  0.15654643  0.56603200  0.32263396  1
  O2-  O487  1  0.16712189  0.58572741  0.64187120  1
  O2-  O488  1  0.15329579  0.56795735  0.97423072  1
  O2-  O489  1  0.14900870  0.84325560  0.32569846  1
  O2-  O490  1  0.15444257  0.83192424  0.62687592  1
  O2-  O491  1  0.15294757  0.82978940  0.97816126  1
  O2-  O492  1  0.42633320  0.09093080  0.30488885  1
  O2-  O493  1  0.43057019  0.08349983  0.67816195  1
  O2-  O494  1  0.40085181  0.08400747  0.99106418  1
  O2-  O495  1  0.42483174  0.33976582  0.30901434  1
  O2-  O496  1  0.42816056  0.32142450  0.65410691  1
  O2-  O497  1  0.41267565  0.32752265  0.98279768  1
  O2-  O498  1  0.38777211  0.58539606  0.30435381  1
  O2-  O499  1  0.41113195  0.58497472  0.64718878  1
  O2-  O500  1  0.41776656  0.57973221  0.98200426  1
  O2-  O501  1  0.41629598  0.84215611  0.31140743  1
  O2-  O502  1  0.41069362  0.83116316  0.64693951  1
  O2-  O503  1  0.41156260  0.82554128  0.99230116  1
  O2-  O504  1  0.67759719  0.08937112  0.30672138  1
  O2-  O505  1  0.67441296  0.08491881  0.64097739  1
  O2-  O506  1  0.59291351  0.07285196  0.94457036  1
  O2-  O507  1  0.66409424  0.32743070  0.35530261  1
  O2-  O508  1  0.67907671  0.34355811  0.64378114  1
  O2-  O509  1  0.67275781  0.34132603  0.98064169  1
  O2-  O510  1  0.63257771  0.56843841  0.30208118  1
  O2-  O511  1  0.65982586  0.57973962  0.63801648  1
  O2-  O512  1  0.67172700  0.59421919  0.97695213  1
  O2-  O513  1  0.66864265  0.84355227  0.31062785  1
  O2-  O514  1  0.66456750  0.84123314  0.65025581  1
  O2-  O515  1  0.69069299  0.82733677  0.98444175  1
  O2-  O516  1  0.91852211  0.09084561  0.30827330  1
  O2-  O517  1  0.92034181  0.07143806  0.63684698  1
  O2-  O518  1  0.93120291  0.10324900  0.98137452  1
  O2-  O519  1  0.90791951  0.32265232  0.30340192  1
  O2-  O520  1  0.91788926  0.32846627  0.63958834  1
  O2-  O521  1  0.92993642  0.26567996  0.97382312  1
  O2-  O522  1  0.91911723  0.57059511  0.31347818  1
  O2-  O523  1  0.91813168  0.57381303  0.64181278  1
  O2-  O524  1  0.92447379  0.59328592  0.98706527  1
  O2-  O525  1  0.91570327  0.83887163  0.31502653  1
  O2-  O526  1  0.89779370  0.81637353  0.67389117  1
  O2-  O527  1  0.92146728  0.84368666  0.97672683  1
  O2-  O528  1  0.07799953  0.16510190  0.03796465  1
  O2-  O529  1  0.07591727  0.16391854  0.36059502  1
  O2-  O530  1  0.07920539  0.15312748  0.68869129  1
  O2-  O531  1  0.07496682  0.40455403  0.02789677  1
  O2-  O532  1  0.09725125  0.41808724  0.36929566  1
  O2-  O533  1  0.09799137  0.40699366  0.64912758  1
  O2-  O534  1  0.08970428  0.66737816  0.02035955  1
  O2-  O535  1  0.08607624  0.66029843  0.35804574  1
  O2-  O536  1  0.08194422  0.66834531  0.68458035  1
  O2-  O537  1  0.08084197  0.91998371  0.02602031  1
  O2-  O538  1  0.10693815  0.87923889  0.34024365  1
  O2-  O539  1  0.07114411  0.90844206  0.70390768  1
  O2-  O540  1  0.32054456  0.16629775  0.02740750  1
  O2-  O541  1  0.34553093  0.17940585  0.34352116  1
  O2-  O542  1  0.33374872  0.15548542  0.69950936  1
  O2-  O543  1  0.34427971  0.41496326  0.03062150  1
  O2-  O544  1  0.38505321  0.44760704  0.37028297  1
  O2-  O545  1  0.36602555  0.41893358  0.68736705  1
  O2-  O546  1  0.31780408  0.64809840  0.01666561  1
  O2-  O547  1  0.32742706  0.67476021  0.35832197  1
  O2-  O548  1  0.32905352  0.66741441  0.69168718  1
  O2-  O549  1  0.31965341  0.91528450  0.02081098  1
  O2-  O550  1  0.33522237  0.92971453  0.35008609  1
  O2-  O551  1  0.34658260  0.91998853  0.70863712  1
  O2-  O552  1  0.55531834  0.20254016  0.03888689  1
  O2-  O553  1  0.58952687  0.17243239  0.33619200  1
  O2-  O554  1  0.60290773  0.17679605  0.68418680  1
  O2-  O555  1  0.55293326  0.35842229  0.04460491  1
  O2-  O556  1  0.58724888  0.41790353  0.35378054  1
  O2-  O557  1  0.59228043  0.41917327  0.69132360  1
  O2-  O558  1  0.58042791  0.66087322  0.02168200  1
  O2-  O559  1  0.60067237  0.69234444  0.36743020  1
  O2-  O560  1  0.58260316  0.66830750  0.67610753  1
  O2-  O561  1  0.64052634  0.93729936  0.00581515  1
  O2-  O562  1  0.58816505  0.92208760  0.34756343  1
  O2-  O563  1  0.57641706  0.92141124  0.68304706  1
  O2-  O564  1  0.78271558  0.10785243  0.01897831  1
  O2-  O565  1  0.83121751  0.16069489  0.35326043  1
  O2-  O566  1  0.84198205  0.16483584  0.67989620  1
  O2-  O567  1  0.80344367  0.44840886  0.04640254  1
  O2-  O568  1  0.83809196  0.41300196  0.35440561  1
  O2-  O569  1  0.84136124  0.41003765  0.68746272  1
  O2-  O570  1  0.84175659  0.68044397  0.01685981  1
  O2-  O571  1  0.81549708  0.68802515  0.36275488  1
  O2-  O572  1  0.80038060  0.60722896  0.69698096  1
  O2-  O573  1  0.85199323  0.93094535  0.02681273  1
  O2-  O574  1  0.83625246  0.93215434  0.35443704  1
  O2-  O575  1  0.82468104  0.91861749  0.69704043  1
