# generated using pymatgen
data_H2O
_symmetry_space_group_name_H-M   'P 1'
_cell_length_a   17.98655376
_cell_length_b   17.99696365
_cell_length_c   22.02603830
_cell_angle_alpha   89.97322630
_cell_angle_beta   90.02759192
_cell_angle_gamma   120.01105895
_symmetry_Int_Tables_number   1
_chemical_formula_structural   H2O
_chemical_formula_sum   'H384 O192'
_cell_volume   6173.98754251
_cell_formula_units_Z   192
loop_
 _symmetry_equiv_pos_site_id
 _symmetry_equiv_pos_as_xyz
  1  'x, y, z'
loop_
 _atom_type_symbol
 _atom_type_oxidation_number
  H+  1.0
  O2-  -2.0
loop_
 _atom_site_type_symbol
 _atom_site_label
 _atom_site_symmetry_multiplicity
 _atom_site_fract_x
 _atom_site_fract_y
 _atom_site_fract_z
 _atom_site_occupancy
  H+  H0  1  0.74035576  0.60375163  0.33422830  1
  H+  H1  1  0.36922609  0.83210480  0.81901278  1
  H+  H2  1  0.88216511  0.25344874  0.50444467  1
  H+  H3  1  0.01210635  0.13394084  0.66105151  1
  H+  H4  1  0.37437005  0.10565272  0.13773758  1
  H+  H5  1  0.63195564  0.09951871  0.50792111  1
  H+  H6  1  0.46311586  0.94521827  0.94439092  1
  H+  H7  1  0.38248235  0.28044304  0.98415433  1
  H+  H8  1  0.10900256  0.89257386  0.49884063  1
  H+  H9  1  0.60797071  0.41043615  0.02233841  1
  H+  H10  1  0.30282029  0.71050069  0.32894680  1
  H+  H11  1  0.76196459  0.12247725  0.49413268  1
  H+  H12  1  0.12356195  0.49422672  0.17299232  1
  H+  H13  1  0.85250979  0.89439254  0.17067620  1
  H+  H14  1  0.81683484  0.85326959  0.03304722  1
  H+  H15  1  0.63650340  0.35875318  0.64324073  1
  H+  H16  1  0.10921942  0.14655724  0.49944483  1
  H+  H17  1  0.63813344  0.54091509  0.99768569  1
  H+  H18  1  0.60222514  0.42293276  0.76311576  1
  H+  H19  1  0.66187368  0.36401383  0.95670917  1
  H+  H20  1  0.62072107  0.70838891  0.67445796  1
  H+  H21  1  0.32684048  0.94473521  0.01604934  1
  H+  H22  1  0.58629696  0.65629312  0.73614112  1
  H+  H23  1  0.86642498  0.63795004  -0.01089792  1
  H+  H24  1  0.73329819  0.38814618  1.00536177  1
  H+  H25  1  0.36182315  0.95935538  0.50334937  1
  H+  H26  1  0.35803858  0.13257319  0.81028266  1
  H+  H27  1  0.13086946  0.40929729  0.31960617  1
  H+  H28  1  0.47342721  0.86534343  0.17591875  1
  H+  H29  1  0.84952460  0.89004949  0.33925753  1
  H+  H30  1  0.20784065  0.09694252  0.50378133  1
  H+  H31  1  0.61127887  0.23753561  0.48940159  1
  H+  H32  1  0.85434796  0.97689405  0.49659753  1
  H+  H33  1  0.82600969  0.41262675  -0.05396751  1
  H+  H34  1  0.36953218  0.48351641  0.83338020  1
  H+  H35  1  0.82059969  0.64262424  0.58870918  1
  H+  H36  1  0.71796554  0.85722719  0.50841940  1
  H+  H37  1  0.86338348  0.38741923  0.00122884  1
  H+  H38  1  0.71378590  0.86215331  0.18046722  1
  H+  H39  1  0.62263443  0.47336017  0.66760865  1
  H+  H40  1  0.89100271  0.76749306  0.18792018  1
  H+  H41  1  0.35658695  -0.03515589  0.14497669  1
  H+  H42  1  0.72531702  0.10917928  0.83877000  1
  H+  H43  1  1.00799561  0.11226944  1.02471842  1
  H+  H44  1  0.86832628  0.73345835  -0.02272005  1
  H+  H45  1  0.55799667  0.75946966  0.63223956  1
  H+  H46  1  0.77210908  0.64193840  0.50396075  1
  H+  H47  1  0.34291831  0.38405030  0.99024323  1
  H+  H48  1  0.11152982  0.13881379  0.81054288  1
  H+  H49  1  0.37189317  -0.00791091  0.67302799  1
  H+  H50  1  0.13120720  0.02215369  0.82397792  1
  H+  H51  1  0.52313084  0.37903053  0.33492930  1
  H+  H52  1  0.61365761  0.53868982  0.59051696  1
  H+  H53  1  0.33008365  0.66020353  0.73156567  1
  H+  H54  1  0.76038045  0.34974911  0.48731622  1
  H+  H55  1  0.13194564  0.84589424  0.97932719  1
  H+  H56  1  0.61347169  0.12870779  0.81478265  1
  H+  H57  1  0.87606215  0.39992872  0.18162272  1
  H+  H58  1  0.12877495  0.40840827  0.17312670  1
  H+  H59  1  0.79037598  0.40060343  0.19404801  1
  H+  H60  1  0.10718865  0.62472465  0.83809091  1
  H+  H61  1  0.24990333  0.13345383  0.13811573  1
  H+  H62  1  0.85303499  0.35830596  0.49601410  1
  H+  H63  1  0.27307546  0.38509803  0.82612284  1
  H+  H64  1  0.84696085  0.97602992  0.66882837  1
  H+  H65  1  0.79405383  0.64187595  0.20722132  1
  H+  H66  1  0.13473946  0.86681423  0.16455842  1
  H+  H67  1  0.70245790  0.05510756  0.33408046  1
  H+  H68  1  0.86067405  0.73389015  0.50592107  1
  H+  H69  1  0.40513566  0.64578710  0.65194216  1
  H+  H70  1  0.36851531  0.38596284  0.82702826  1
  H+  H71  1  0.98936924  0.62712325  0.65650414  1
  H+  H72  1  0.10161672  0.19075306  1.01644152  1
  H+  H73  1  0.85771048  0.10538261  0.17906605  1
  H+  H74  1  0.34761168  0.62508940  0.48120410  1
  H+  H75  1  0.63093331  0.51720277  0.83872225  1
  H+  H76  1  0.95292059  0.84880441  0.65777695  1
  H+  H77  1  0.97007279  0.11407446  0.50797678  1
  H+  H78  1  0.10030892  0.45525295  0.50261652  1
  H+  H79  1  0.75022613  0.37148626  0.85998864  1
  H+  H80  1  0.39428634  0.10353028  0.51275405  1
  H+  H81  1  0.64193189  0.11799056  0.65977773  1
  H+  H82  1  0.36128116  0.22320873  0.82130133  1
  H+  H83  1  0.16492814  0.31627225  0.88493174  1
  H+  H84  1  0.10536845  0.47615629  0.83135292  1
  H+  H85  1  0.34995836  0.61911482  0.83012853  1
  H+  H86  1  0.35597123  0.71051548  0.83013822  1
  H+  H87  1  0.02199494  0.88568098  0.81243535  1
  H+  H88  1  0.90803001  0.63359547  0.50552613  1
  H+  H89  1  0.12859611  0.64052344  0.32951456  1
  H+  H90  1  0.62116372  0.98902855  0.00909581  1
  H+  H91  1  0.29294223  0.34981561  0.65059486  1
  H+  H92  1  0.88684178  0.64676729  0.21070750  1
  H+  H93  1  0.61081313  0.97712492  0.16374041  1
  H+  H94  1  0.13890312  0.01379528  0.34348609  1
  H+  H95  1  0.83492429  0.16522997  0.77204965  1
  H+  H96  1  0.62878884  0.60581777  0.50130920  1
  H+  H97  1  0.88077617  0.35312237  0.86042437  1
  H+  H98  1  0.34216952  0.21327079  0.15690803  1
  H+  H99  1  0.50546546  0.12399534  0.35750658  1
  H+  H100  1  0.13449293  0.29466701  0.17387846  1
  H+  H101  1  0.61700384  0.63008885  0.34324062  1
  H+  H102  1  0.10488211  0.71381036  0.00565254  1
  H+  H103  1  0.88543025  0.86320826  0.82348526  1
  H+  H104  1  0.02544561  0.14220061  0.81585019  1
  H+  H105  1  0.88855267  0.61864463  0.34767439  1
  H+  H106  1  0.11808756  0.84837917  0.32652227  1
  H+  H107  1  0.13743877  0.50357914  0.32040141  1
  H+  H108  1  0.77203063  0.63142801  0.84862843  1
  H+  H109  1  0.33964259  0.13514929  1.00217712  1
  H+  H110  1  0.10952850  0.88351193  0.81607472  1
  H+  H111  1  0.06808150  0.89702516  0.72225289  1
  H+  H112  1  0.04652696  0.19115883  0.10519254  1
  H+  H113  1  0.47440719  0.86920314  0.66290477  1
  H+  H114  1  0.84866960  -0.01636207  0.17105685  1
  H+  H115  1  0.38766758  0.88049167  0.98614554  1
  H+  H116  1  0.35616653  0.40653419  0.11899548  1
  H+  H117  1  0.12564005  0.60078446  0.49591540  1
  H+  H118  1  0.78348056  0.13677079  1.00638091  1
  H+  H119  1  0.60456094  0.72121925  0.49011961  1
  H+  H120  1  0.07937679  0.42325240  0.72984177  1
  H+  H121  1  0.88674489  0.02172732  0.34855621  1
  H+  H122  1  0.88761673  0.10549333  -0.00244607  1
  H+  H123  1  0.85596929  0.11544148  0.34236249  1
  H+  H124  1  0.21840442  0.61037229  0.84449988  1
  H+  H125  1  0.36215670  0.38480369  0.35322718  1
  H+  H126  1  0.13946514  0.72507212  0.49159244  1
  H+  H127  1  0.64290464  0.61549853  0.18347096  1
  H+  H128  1  0.61751927  0.22993157  0.65957448  1
  H+  H129  1  0.60431522  0.22322479  0.17844371  1
  H+  H130  1  0.64472137  0.22020499  0.34786884  1
  H+  H131  1  0.66851108  0.58440471  0.24558950  1
  H+  H132  1  0.20675636  0.83050568  0.82095207  1
  H+  H133  1  0.89654814  0.35075205  0.65119211  1
  H+  H134  1  0.18830886  0.60916710  0.23824921  1
  H+  H135  1  1.03152403  0.63968087  0.16674065  1
  H+  H136  1  0.12944286  0.66209279  0.66328369  1
  H+  H137  1  0.65735322  0.13045393  -0.00773237  1
  H+  H138  1  0.24575254  0.77740022  0.75096358  1
  H+  H139  1  0.65906826  0.32177688  0.39260031  1
  H+  H140  1  0.62316505  0.85824546  0.17749707  1
  H+  H141  1  0.21487677  0.83590600  0.98595928  1
  H+  H142  1  0.41716320  0.07383697  0.98153771  1
  H+  H143  1  0.38859576  0.60913474  0.32840368  1
  H+  H144  1  0.91333558  0.87775052  0.96974056  1
  H+  H145  1  0.36730457  0.64365781  0.15945776  1
  H+  H146  1  0.11733862  0.14169496  0.35537162  1
  H+  H147  1  0.36917582  0.27422163  0.66260313  1
  H+  H148  1  0.23184409  0.36409840  0.33117236  1
  H+  H149  1  0.84053448  0.46305482  0.85721664  1
  H+  H150  1  0.37438828  0.13738956  0.35064470  1
  H+  H151  1  0.38639210  0.86997012  0.65710001  1
  H+  H152  1  0.63388395  0.51965668  0.49757982  1
  H+  H153  1  0.00516739  0.24126334  0.13671771  1
  H+  H154  1  0.98730668  0.37272290  0.18286017  1
  H+  H155  1  0.27226211  0.13683837  0.66702277  1
  H+  H156  1  0.37775646  0.85711430  0.33282352  1
  H+  H157  1  0.60736363  0.63150041  0.82892596  1
  H+  H158  1  0.39004109  0.61203362  0.98809981  1
  H+  H159  1  0.39158590  0.12232556  0.66113281  1
  H+  H160  1  0.88707174  0.87296882  0.50447790  1
  H+  H161  1  0.46857769  0.37285712  -0.00981566  1
  H+  H162  1  0.51427709  0.63209320  0.48665484  1
  H+  H163  1  0.47164073  0.09910132  0.80348470  1
  H+  H164  1  0.52712189  0.63581846  0.16025295  1
  H+  H165  1  0.10124840  0.71749774  0.83008834  1
  H+  H166  1  0.67230070  0.08948541  0.93170196  1
  H+  H167  1  0.86330131  0.50150057  0.66270556  1
  H+  H168  1  0.47163998  0.60420114  0.83655002  1
  H+  H169  1  0.86177814  0.22178595  0.83363693  1
  H+  H170  1  0.14957018  0.62873605  0.17752387  1
  H+  H171  1  0.38243220  1.01452613  0.81687219  1
  H+  H172  1  0.10317371  0.37258548  0.52526720  1
  H+  H173  1  0.38358174  0.34975663  0.19360615  1
  H+  H174  1  0.97468947  0.34318244  0.51006013  1
  H+  H175  1  0.13251666  0.74784807  0.64766759  1
  H+  H176  1  0.70473919  0.46684430  0.69247051  1
  H+  H177  1  0.55667289  0.16662232  0.01591229  1
  H+  H178  1  0.63955344  1.02744241  0.66415803  1
  H+  H179  1  0.86848733  0.85905920  0.65742668  1
  H+  H180  1  0.86629944  0.21995531  0.67503461  1
  H+  H181  1  0.24977282  0.37741964  0.51145812  1
  H+  H182  1  0.62907815  0.35335257  0.22177833  1
  H+  H183  1  0.97442769  0.36129355  1.01072775  1
  H+  H184  1  0.10243691  0.72652073  0.32307991  1
  H+  H185  1  0.88125691  0.11014032  0.66063929  1
  H+  H186  1  0.10016777  0.51448987  0.65197220  1
  H+  H187  1  0.36090700  0.87089690  0.50100561  1
  H+  H188  1  0.92154760  0.31250341  0.34791590  1
  H+  H189  1  0.83585032  0.70505902  0.64023047  1
  H+  H190  1  0.11595971  0.96644224  -0.01281730  1
  H+  H191  1  0.10011523  0.97459116  0.13102673  1
  H+  H192  1  0.74814315  0.37250656  0.35405121  1
  H+  H193  1  0.75616760  0.88886827  0.67184294  1
  H+  H194  1  1.00680683  0.55758380  0.63033569  1
  H+  H195  1  0.88761912  0.11193618  0.84193002  1
  H+  H196  1  0.43867296  0.37540166  0.64981803  1
  H+  H197  1  0.60447087  0.37674339  0.82417742  1
  H+  H198  1  0.37599626  0.75667111  0.50875132  1
  H+  H199  1  0.58557630  -0.05891677  0.33986781  1
  H+  H200  1  0.20900011  0.59299125  0.50452342  1
  H+  H201  1  0.60347962  0.37865848  0.47990260  1
  H+  H202  1  0.96861565  0.60276593  0.25251769  1
  H+  H203  1  0.47138576  0.35258945  0.18159787  1
  H+  H204  1  0.86174481  0.97650285  0.82505224  1
  H+  H205  1  0.48473323  0.84639813  0.33312532  1
  H+  H206  1  0.02842697  0.89855774  0.34502201  1
  H+  H207  1  0.21660143  0.60271731  -0.00294707  1
  H+  H208  1  0.63785679  0.25811355  0.01836917  1
  H+  H209  1  0.36012983  0.72770932  0.67750304  1
  H+  H210  1  0.52968907  0.90558385  0.00512857  1
  H+  H211  1  0.62486248  0.07179706  0.33270532  1
  H+  H212  1  0.09662041  0.91555701  0.65406375  1
  H+  H213  1  0.35237351  0.71499617  0.00595540  1
  H+  H214  1  1.02249170  0.89432045  0.49439768  1
  H+  H215  1  0.27083551  0.39800251  0.14990276  1
  H+  H216  1  0.48320928  0.10113417  0.51601804  1
  H+  H217  1  0.62018564  0.40770655  0.14469599  1
  H+  H218  1  0.87812212  0.10933111  0.50427111  1
  H+  H219  1  0.88317678  0.60893201  0.85164340  1
  H+  H220  1  0.46852864  0.11392808  0.14148687  1
  H+  H221  1  0.27883132  0.12776327  0.34531049  1
  H+  H222  1  0.38710709  -0.02326364  0.36005412  1
  H+  H223  1  0.14150697  0.27749192  0.81990079  1
  H+  H224  1  0.36189122  0.47300427  0.34923920  1
  H+  H225  1  0.72190546  0.36294447  0.63328333  1
  H+  H226  1  0.38610407  0.77458053  0.17148195  1
  H+  H227  1  0.97252638  0.36044228  0.84771585  1
  H+  H228  1  0.35754577  0.87762454  0.16234876  1
  H+  H229  1  0.22128197  0.86259275  0.17240058  1
  H+  H230  1  0.47811416  0.36591697  0.82904489  1
  H+  H231  1  0.64614377  0.52145157  0.33068347  1
  H+  H232  1  0.12970987  0.23753016  0.63476174  1
  H+  H233  1  0.58829783  0.56519738  0.65229390  1
  H+  H234  1  0.23898791  0.18747049  0.53059766  1
  H+  H235  1  0.60256452  0.88560133  0.66910463  1
  H+  H236  1  0.35413687  0.20393513  0.49751869  1
  H+  H237  1  0.48317256  0.62193035  -0.01215759  1
  H+  H238  1  0.61425370  0.73680865  1.00763107  1
  H+  H239  1  0.88615547  0.81092348  0.12728788  1
  H+  H240  1  0.39504317  0.06819563  1.05415457  1
  H+  H241  1  0.82103660  0.43824841  0.71802025  1
  H+  H242  1  0.72255326  0.11436718  0.16837008  1
  H+  H243  1  0.62998318  0.87074020  -0.00742274  1
  H+  H244  1  0.62618380  0.75662904  0.32813975  1
  H+  H245  1  0.51820003  0.87470261  0.50272154  1
  H+  H246  1  0.61698627  0.24827376  0.83133849  1
  H+  H247  1  0.38612255  0.53290380  0.16767435  1
  H+  H248  1  0.02065287  0.88104106  0.14278510  1
  H+  H249  1  0.58039223  0.65897985  0.39963323  1
  H+  H250  1  0.60752790  -0.03526824  0.50453516  1
  H+  H251  1  0.87133925  0.22587523  0.01043294  1
  H+  H252  1  0.61553968  0.38104614  0.33868891  1
  H+  H253  1  0.11522770  0.73074963  0.15865258  1
  H+  H254  1  0.38552487  0.26816401  0.34014543  1
  H+  H255  1  1.00796641  0.62010440  0.83555208  1
  H+  H256  1  0.32982114  0.32768700  0.51030983  1
  H+  H257  1  0.58180612  0.84555215  0.33560171  1
  H+  H258  1  0.86426177  0.23582480  0.16298060  1
  H+  H259  1  0.08742390  0.17871117  0.41033714  1
  H+  H260  1  0.86114432  0.71978171  0.84039870  1
  H+  H261  1  0.63566475  1.01966169  0.83943492  1
  H+  H262  1  0.07703511  0.42014115  1.08045587  1
  H+  H263  1  0.08240170  0.91242055  0.40756761  1
  H+  H264  1  0.99315071  0.86247403  0.97637555  1
  H+  H265  1  0.90762404  0.53739516  0.19883258  1
  H+  H266  1  0.10199625  0.46614073  0.01630449  1
  H+  H267  1  0.72424459  0.86087354  0.83872133  1
  H+  H268  1  0.81999453  0.17885087  0.32489300  1
  H+  H269  1  0.63136962  0.10800754  0.17350689  1
  H+  H270  1  0.64447853  0.63250131  -0.00695550  1
  H+  H271  1  0.21148751  0.10268028  0.97912255  1
  H+  H272  1  0.86575338  0.66917979  0.30173661  1
  H+  H273  1  0.87839883  1.01272581  -0.00204321  1
  H+  H274  1  0.92137425  0.08038188  0.89792657  1
  H+  H275  1  0.76964267  0.64201262  -0.01403585  1
  H+  H276  1  0.37411024  0.51835250  0.50805553  1
  H+  H277  1  0.10942448  0.38998572  0.82581701  1
  H+  H278  1  0.14071734  0.27821805  0.32908737  1
  H+  H279  1  0.10331425  0.22973106  0.50950177  1
  H+  H280  1  0.10978135  0.10416693  0.09297525  1
  H+  H281  1  0.60770642  0.72110035  0.82862840  1
  H+  H282  1  0.88534979  0.52873961  0.99325542  1
  H+  H283  1  1.03060359  0.38040506  0.66902035  1
  H+  H284  1  0.44598839  0.10760070  0.41286019  1
  H+  H285  1  1.04134791  0.65111632  0.48671652  1
  H+  H286  1  0.87179276  0.40565025  0.34469549  1
  H+  H287  1  0.21083384  0.30944223  0.97595767  1
  H+  H288  1  0.92647162  0.33759063  0.24075065  1
  H+  H289  1  0.28486721  0.91124238  0.65341783  1
  H+  H290  1  0.45049723  0.14370226  0.90928479  1
  H+  H291  1  0.91566064  0.31124829  0.59228774  1
  H+  H292  1  0.90696066  0.08044619  0.59801368  1
  H+  H293  1  0.41680404  0.58372223  0.23112369  1
  H+  H294  1  0.07932783  0.17438024  0.71746497  1
  H+  H295  1  0.39078007  0.07525597  0.25403093  1
  H+  H296  1  0.34158748  0.15566559  0.43515197  1
  H+  H297  1  0.65056286  0.81953332  0.26962922  1
  H+  H298  1  0.18156754  0.22134868  0.94107280  1
  H+  H299  1  0.94721384  0.11364290  0.18406877  1
  H+  H300  1  0.60059163  0.18781734  0.11128906  1
  H+  H301  1  0.91455790  0.84368491  0.56443873  1
  H+  H302  1  0.65519125  0.57762998  0.89834486  1
  H+  H303  1  0.77431369  0.13452422  0.67855838  1
  H+  H304  1  0.12221407  0.56384021  0.58706793  1
  H+  H305  1  0.64466122  0.30801917  0.54136001  1
  H+  H306  1  0.58851157  0.67405844  0.06619824  1
  H+  H307  1  0.63873741  0.81680969  0.59158833  1
  H+  H308  1  0.92510231  0.83945911  0.87966496  1
  H+  H309  1  0.82071091  0.91397544  0.43866911  1
  H+  H310  1  0.84324105  0.62741658  0.10485327  1
  H+  H311  1  0.12760166  0.60309057  0.99851033  1
  H+  H312  1  0.15550985  0.06765058  0.91848456  1
  H+  H313  1  0.56578909  0.44064268  0.07229630  1
  H+  H314  1  0.40768481  0.81440258  0.57015293  1
  H+  H315  1  0.77723523  0.64551142  0.74196895  1
  H+  H316  1  0.58430118  0.42055198  0.42411291  1
  H+  H317  1  0.81601175  0.14801879  0.43127627  1
  H+  H318  1  0.18281517  0.34334996  0.23524153  1
  H+  H319  1  0.66586959  0.31377496  0.26593445  1
  H+  H320  1  0.30304889  0.40475752  0.44746153  1
  H+  H321  1  0.42118159  0.33861573  0.89065912  1
  H+  H322  1  0.11179731  0.10070452  0.16366509  1
  H+  H323  1  1.00229578  0.39511549  0.32066750  1
  H+  H324  1  0.57919406  0.91665069  0.10555768  1
  H+  H325  1  0.81610728  0.91518329  0.08315320  1
  H+  H326  1  0.53503907  0.07137528  0.45626805  1
  H+  H327  1  0.29799362  0.41550289  0.03772794  1
  H+  H328  1  0.14530559  0.82485718  0.26213854  1
  H+  H329  1  0.34656984  0.03647058  0.25528098  1
  H+  H330  1  0.33006078  0.17030843  0.72668216  1
  H+  H331  1  0.82385811  0.91862824  0.76515682  1
  H+  H332  1  0.13609799  0.10090053  0.66112417  1
  H+  H333  1  0.59209498  0.16599275  0.75288614  1
  H+  H334  1  0.41019703  0.32274338  0.28022021  1
  H+  H335  1  0.30631502  0.87510888  0.74194420  1
  H+  H336  1  0.40898634  0.83640881  0.88535447  1
  H+  H337  1  0.27813382  0.64458911  0.16093287  1
  H+  H338  1  0.96741118  0.96840359  0.28536502  1
  H+  H339  1  0.83716408  0.33088019  0.74703027  1
  H+  H340  1  0.08352869  0.90512398  0.04718604  1
  H+  H341  1  0.52133482  0.88054334  0.82268359  1
  H+  H342  1  0.16579853  0.07476060  0.28562655  1
  H+  H343  1  0.75503703  0.87768650  0.34343405  1
  H+  H344  1  0.88803749  0.66485609  0.10300940  1
  H+  H345  1  0.61000374  0.15574318  0.40475305  1
  H+  H346  1  0.62692938  0.85643268  0.50616480  1
  H+  H347  1  0.67042260  0.08049472  0.56975440  1
  H+  H348  1  0.17386672  0.08974231  0.60060475  1
  H+  H349  1  0.46141179  0.18908154  0.91617734  1
  H+  H350  1  0.41757296  0.59763968  0.55532164  1
  H+  H351  1  0.66479149  0.83406675  0.89833924  1
  H+  H352  1  0.39760753  0.82417247  0.26791955  1
  H+  H353  1  0.42155055  0.08575395  0.60467094  1
  H+  H354  1  0.21973202  0.11129090  0.82770599  1
  H+  H355  1  0.33006175  0.66169528  0.06709481  1
  H+  H356  1  0.61409016  0.48571530  0.17517966  1
  H+  H357  1  0.07899508  0.66247470  0.07015008  1
  H+  H358  1  0.61296613  0.72524341  0.16258323  1
  H+  H359  1  0.47736508  0.60864038  0.32895718  1
  H+  H360  1  0.97542947  0.61788772  1.00149936  1
  H+  H361  1  0.92131396  0.32904714  0.94754069  1
  H+  H362  1  0.31551380  0.17664090  0.05447268  1
  H+  H363  1  0.83609706  0.17562937  0.10237804  1
  H+  H364  1  0.80104197  0.69370847  0.74127178  1
  H+  H365  1  0.97762495  0.11228839  0.34831058  1
  H+  H366  1  0.83774083  0.41366871  0.41073719  1
  H+  H367  1  0.41696361  0.57743156  0.89941075  1
  H+  H368  1  0.52684957  0.14258497  0.66738097  1
  H+  H369  1  0.15885307  0.58077664  0.90538502  1
  H+  H370  1  0.16225120  0.81850490  0.88801791  1
  H+  H371  1  0.58618262  0.27285141  0.88964464  1
  H+  H372  1  0.93606347  0.87872545  0.25572316  1
  H+  H373  1  0.35618613  0.29920574  0.57059318  1
  H+  H374  1  0.88337704  0.36656057  0.74775997  1
  H+  H375  1  0.34334524  0.90631450  0.41144870  1
  H+  H376  1  0.48222287  0.62451660  0.65192693  1
  H+  H377  1  0.58495016  0.91886096  0.73253502  1
  H+  H378  1  0.61134281  0.88219168  0.82674834  1
  H+  H379  1  0.30171552  0.65251608  0.42933752  1
  H+  H380  1  0.94473566  0.59676998  0.55496034  1
  H+  H381  1  0.71732958  0.86995451  0.99760562  1
  H+  H382  1  0.31194317  0.88027508  0.06900971  1
  H+  H383  1  0.92166612  0.58129042  0.90479558  1
  O2-  O384  1  0.03838108  0.21315937  0.14557335  1
  O2-  O385  1  0.07505739  0.17347630  0.48572106  1
  O2-  O386  1  0.08325871  0.17177858  0.79640684  1
  O2-  O387  1  0.09290622  0.43294697  0.15924851  1
  O2-  O388  1  0.07301204  0.39164426  0.49760276  1
  O2-  O389  1  0.07367159  0.41607208  0.81605814  1
  O2-  O390  1  0.08881500  0.66970092  0.14499034  1
  O2-  O391  1  0.10229541  0.66933695  0.47342986  1
  O2-  O392  1  0.07139098  0.65188404  0.82173416  1
  O2-  O393  1  0.07983097  0.91241548  0.12575752  1
  O2-  O394  1  0.08237469  0.92079238  0.47734431  1
  O2-  O395  1  0.08436942  0.91787013  0.80087164  1
  O2-  O396  1  0.31289658  0.15982406  0.13260285  1
  O2-  O397  1  0.34429780  0.14887663  0.47975118  1
  O2-  O398  1  0.32593545  0.16425534  0.80513143  1
  O2-  O399  1  0.32463672  0.43669614  0.12563352  1
  O2-  O400  1  0.30852971  0.40732221  0.49222085  1
  O2-  O401  1  0.33741651  0.41895630  0.81578930  1
  O2-  O402  1  0.33738870  0.67283553  0.14184328  1
  O2-  O403  1  0.31484331  0.65546347  0.47307802  1
  O2-  O404  1  0.31869258  0.64938781  0.81796306  1
  O2-  O405  1  0.32263762  0.90124621  0.14272316  1
  O2-  O406  1  0.33248468  0.90202523  0.48439641  1
  O2-  O407  1  0.28279715  0.82939281  0.77479427  1
  O2-  O408  1  0.57666049  0.17078693  0.15275866  1
  O2-  O409  1  0.57285201  0.12731357  0.47442559  1
  O2-  O410  1  0.58377844  0.15902879  0.79850113  1
  O2-  O411  1  0.57891274  0.42507365  0.15685365  1
  O2-  O412  1  0.58368351  0.41898825  0.46892211  1
  O2-  O413  1  0.58386266  0.41432140  0.80741655  1
  O2-  O414  1  0.58822003  0.66544097  0.14630859  1
  O2-  O415  1  0.57557151  0.66154731  0.47290125  1
  O2-  O416  1  0.57546786  0.66047447  0.81402943  1
  O2-  O417  1  0.57718116  0.91431638  0.15054581  1
  O2-  O418  1  0.57918622  0.90472724  0.48928762  1
  O2-  O419  1  0.58327940  0.91496475  0.81184620  1
  O2-  O420  1  0.83081233  0.17550488  0.14751149  1
  O2-  O421  1  0.82211964  0.15238986  0.47619483  1
  O2-  O422  1  0.83123997  0.16176107  0.81760815  1
  O2-  O423  1  0.84711329  0.43427254  0.17548241  1
  O2-  O424  1  0.82225379  0.38688617  0.47946861  1
  O2-  O425  1  0.81189401  0.40179484  0.87043790  1
  O2-  O426  1  0.85518291  0.67985485  0.21764934  1
  O2-  O427  1  0.83575234  0.67073846  0.50329812  1
  O2-  O428  1  0.83458443  0.66077217  0.85724262  1
  O2-  O429  1  0.81917202  0.92027545  0.15552172  1
  O2-  O430  1  0.82294041  0.91519426  0.48388130  1
  O2-  O431  1  0.82856379  0.91584241  0.81029501  1
  O2-  O432  1  0.13318326  0.08553814  0.12779414  1
  O2-  O433  1  0.18679459  0.12820175  0.52810222  1
  O2-  O434  1  0.15813673  0.08214334  0.84048743  1
  O2-  O435  1  0.18297625  0.34951872  0.18968578  1
  O2-  O436  1  0.15669216  0.31367287  0.55409078  1
  O2-  O437  1  0.17263756  0.33423539  0.84164917  1
  O2-  O438  1  0.18326666  0.60188882  0.19244190  1
  O2-  O439  1  0.14693132  0.56277364  0.51466177  1
  O2-  O440  1  0.15728625  0.58376604  0.85953299  1
  O2-  O441  1  0.15962564  0.83484773  0.18467481  1
  O2-  O442  1  0.15602481  0.84474486  0.56906047  1
  O2-  O443  1  0.15163715  0.81340548  0.84304869  1
  O2-  O444  1  0.40794553  0.07753119  0.12652890  1
  O2-  O445  1  0.42270949  0.07362629  0.53230685  1
  O2-  O446  1  0.40818382  0.07421818  0.80468681  1
  O2-  O447  1  0.41133877  0.31516767  0.19621034  1
  O2-  O448  1  0.33443450  0.27927243  0.52877613  1
  O2-  O449  1  0.41769057  0.33686688  0.84514189  1
  O2-  O450  1  0.42068032  0.59078376  0.18616983  1
  O2-  O451  1  0.40827417  0.58223020  0.51115335  1
  O2-  O452  1  0.41131729  0.57004673  0.85290813  1
  O2-  O453  1  0.41164940  0.83376734  0.18909016  1
  O2-  O454  1  0.41081865  0.81602557  0.52497249  1
  O2-  O455  1  0.41030685  0.82110966  0.84232813  1
  O2-  O456  1  0.66202364  0.07640593  0.18101468  1
  O2-  O457  1  0.66780928  0.07392358  0.52479562  1
  O2-  O458  1  0.66416110  0.08083266  0.85335519  1
  O2-  O459  1  0.65939397  0.32109345  0.22213347  1
  O2-  O460  1  0.64192680  0.30051900  0.49643829  1
  O2-  O461  1  0.63025190  0.30006009  0.85835849  1
  O2-  O462  1  0.66898958  0.58187338  0.19970651  1
  O2-  O463  1  0.65893880  0.57692963  0.51819035  1
  O2-  O464  1  0.65768052  0.57784950  0.85329998  1
  O2-  O465  1  0.65246550  0.82664041  0.19291770  1
  O2-  O466  1  0.65617475  0.82264788  0.52033838  1
  O2-  O467  1  0.66319200  0.82970997  0.85314586  1
  O2-  O468  1  0.88652538  0.07338081  0.19363219  1
  O2-  O469  1  0.90901998  0.08090397  0.52243108  1
  O2-  O470  1  0.92055674  0.08244893  0.85290935  1
  O2-  O471  1  0.92573651  0.33670163  0.19536003  1
  O2-  O472  1  0.91138094  0.31193258  0.52303701  1
  O2-  O473  1  0.91474780  0.32440527  0.86717411  1
  O2-  O474  1  0.94466666  0.59988217  0.20933640  1
  O2-  O475  1  0.94665288  0.60959713  0.51135040  1
  O2-  O476  1  0.91440934  0.57520383  0.85967741  1
  O2-  O477  1  0.91206253  0.82691850  0.16760003  1
  O2-  O478  1  0.92114753  0.84655931  0.51892626  1
  O2-  O479  1  0.91837944  0.83385944  0.83500219  1
  O2-  O480  1  0.16989425  0.07688198  0.32974105  1
  O2-  O481  1  0.17217472  0.07865693  0.64518563  1
  O2-  O482  1  0.15335162  0.06182910  0.96373260  1
  O2-  O483  1  0.17457096  0.33625480  0.31047575  1
  O2-  O484  1  0.18379252  0.28723880  0.60761761  1
  O2-  O485  1  0.15927140  0.25696131  0.95701692  1
  O2-  O486  1  0.18416092  0.61219414  0.31317374  1
  O2-  O487  1  0.10012263  0.56297966  0.62919074  1
  O2-  O488  1  0.15695123  0.57353771  0.98061561  1
  O2-  O489  1  0.14054714  0.81396097  0.30665437  1
  O2-  O490  1  0.19859814  0.90772475  0.60453238  1
  O2-  O491  1  0.15744019  0.81024674  0.96569807  1
  O2-  O492  1  0.44329220  0.09946575  0.36888051  1
  O2-  O493  1  0.42358211  0.09181148  0.65060858  1
  O2-  O494  1  0.37081169  0.05474366  1.01106152  1
  O2-  O495  1  0.41447540  0.32920405  0.32475740  1
  O2-  O496  1  0.37872683  0.33049373  0.64523165  1
  O2-  O497  1  0.41316973  0.34069227  0.96834010  1
  O2-  O498  1  0.41657960  0.57828681  0.31300513  1
  O2-  O499  1  0.45123176  0.64479413  0.62609453  1
  O2-  O500  1  0.42519290  0.59004306  0.96945277  1
  O2-  O501  1  0.39473549  0.81518939  0.31273040  1
  O2-  O502  1  0.41387971  0.83484108  0.64865019  1
  O2-  O503  1  0.43704181  0.88670464  0.96000636  1
  O2-  O504  1  0.64067399  0.02755146  0.32318417  1
  O2-  O505  1  0.67436518  0.08796503  0.64919531  1
  O2-  O506  1  0.67705400  0.09145594  0.97724427  1
  O2-  O507  1  0.67771542  0.33159161  0.35009631  1
  O2-  O508  1  0.66064223  0.32610465  0.62214939  1
  O2-  O509  1  0.66852861  0.36235921  1.00068662  1
  O2-  O510  1  0.68001005  0.58410272  0.32081828  1
  O2-  O511  1  0.58172692  0.51465866  0.62947518  1
  O2-  O512  1  0.67190303  0.59838118  0.97782433  1
  O2-  O513  1  0.64953290  0.81821634  0.31528190  1
  O2-  O514  1  0.61838213  0.80673421  0.63576987  1
  O2-  O515  1  0.65987838  0.83951118  0.97809285  1
  O2-  O516  1  0.91778561  0.08099261  0.33254080  1
  O2-  O517  1  0.90941155  0.07834291  0.64376744  1
  O2-  O518  1  0.91528410  0.07189618  0.98321405  1
  O2-  O519  1  0.93573897  0.35787444  0.31838776  1
  O2-  O520  1  0.91947581  0.31410353  0.63917956  1
  O2-  O521  1  0.91385541  0.32941094  0.99242789  1
  O2-  O522  1  0.99510291  0.60277838  0.32031244  1
  O2-  O523  1  0.95920288  0.57185557  0.63543475  1
  O2-  O524  1  0.91571372  0.59152850  0.98260009  1
  O2-  O525  1  0.94528179  0.90787106  0.29485360  1
  O2-  O526  1  0.89530176  0.82872866  0.63833983  1
  O2-  O527  1  0.93108544  0.83606108  0.96002963  1
  O2-  O528  1  0.06366610  0.14692788  0.04710682  1
  O2-  O529  1  0.08798664  0.17431514  0.36466598  1
  O2-  O530  1  0.07531299  0.16694595  0.67224079  1
  O2-  O531  1  0.06912008  0.40928328  0.03595219  1
  O2-  O532  1  0.09827659  0.43992884  0.31834462  1
  O2-  O533  1  0.08591401  0.42581909  0.68538577  1
  O2-  O534  1  0.07289441  0.65549087  0.02439773  1
  O2-  O535  1  0.08185781  0.66267216  0.33901970  1
  O2-  O536  1  0.13067132  0.71301825  0.68228951  1
  O2-  O537  1  0.08546683  0.90384897  0.00181057  1
  O2-  O538  1  0.08599835  0.91544083  0.36073438  1
  O2-  O539  1  0.05029489  0.87531873  0.68037717  1
  O2-  O540  1  0.31812169  0.17554272  0.00922728  1
  O2-  O541  1  0.33978127  0.16593297  0.35768898  1
  O2-  O542  1  0.33399586  0.17302855  0.68146781  1
  O2-  O543  1  0.29344977  0.39301572  -0.00356229  1
  O2-  O544  1  0.32954158  0.41363402  0.36548840  1
  O2-  O545  1  0.24051305  0.35703462  0.65079001  1
  O2-  O546  1  0.32490095  0.65638252  0.02118583  1
  O2-  O547  1  0.26748393  0.65182033  0.34652805  1
  O2-  O548  1  0.33660177  0.66605572  0.68716087  1
  O2-  O549  1  0.31091912  0.88368517  0.02301785  1
  O2-  O550  1  0.35303575  0.91431242  0.36593335  1
  O2-  O551  1  0.33618224  0.92773067  0.67872992  1
  O2-  O552  1  0.61632601  0.19652554  0.02925296  1
  O2-  O553  1  0.61194268  0.15823465  0.35837702  1
  O2-  O554  1  0.58952831  0.17188201  0.67922928  1
  O2-  O555  1  0.57309943  0.43891515  0.02787532  1
  O2-  O556  1  0.58642713  0.41557506  0.34136829  1
  O2-  O557  1  0.64148850  0.43790748  0.69377539  1
  O2-  O558  1  0.59018063  0.67572562  0.02072162  1
  O2-  O559  1  0.58102583  0.65624751  0.35350255  1
  O2-  O560  1  0.59013891  0.65003244  0.69146023  1
  O2-  O561  1  0.58747898  0.92800489  0.02315088  1
  O2-  O562  1  0.54775845  0.87395965  0.34953656  1
  O2-  O563  1  0.58254227  0.92337827  0.68747023  1
  O2-  O564  1  0.84240461  0.16385253  0.02380461  1
  O2-  O565  1  0.80994377  0.13202225  0.35197831  1
  O2-  O566  1  0.83484229  0.16149810  0.69439534  1
  O2-  O567  1  0.83312693  0.42053031  -0.00871431  1
  O2-  O568  1  0.83408392  0.42312164  0.36528702  1
  O2-  O569  1  0.80712663  0.45421335  0.67934016  1
  O2-  O570  1  0.83521290  0.67360494  -0.00500717  1
  O2-  O571  1  0.85188269  0.64449631  0.34282041  1
  O2-  O572  1  0.81172164  0.64325085  0.63277021  1
  O2-  O573  1  0.81526099  0.90632020  0.03719311  1
  O2-  O574  1  0.81423051  0.90930653  0.36086172  1
  O2-  O575  1  0.81492255  0.91699022  0.68738907  1
