# generated using pymatgen
data_H2O
_symmetry_space_group_name_H-M   'P 1'
_cell_length_a   17.99746496
_cell_length_b   18.00118327
_cell_length_c   22.00735971
_cell_angle_alpha   90.00332319
_cell_angle_beta   89.98825602
_cell_angle_gamma   120.00784906
_symmetry_Int_Tables_number   1
_chemical_formula_structural   H2O
_chemical_formula_sum   'H384 O192'
_cell_volume   6174.14179408
_cell_formula_units_Z   192
loop_
 _symmetry_equiv_pos_site_id
 _symmetry_equiv_pos_as_xyz
  1  'x, y, z'
loop_
 _atom_type_symbol
 _atom_type_oxidation_number
  H+  1.0
  O2-  -2.0
loop_
 _atom_site_type_symbol
 _atom_site_label
 _atom_site_symmetry_multiplicity
 _atom_site_fract_x
 _atom_site_fract_y
 _atom_site_fract_z
 _atom_site_occupancy
  H+  H0  1  0.14901852  0.53271720  0.64941344  1
  H+  H1  1  0.35483651  0.88140130  0.82232119  1
  H+  H2  1  0.72356964  0.35441502  0.49988166  1
  H+  H3  1  0.40373425  0.29416553  0.36043388  1
  H+  H4  1  0.21218503  0.94767866  0.50214432  1
  H+  H5  1  0.17771918  0.08207580  0.41550941  1
  H+  H6  1  0.96556087  0.36519144  0.82499800  1
  H+  H7  1  0.71762938  0.86170231  0.33399757  1
  H+  H8  1  0.88449637  0.27003907  0.65864836  1
  H+  H9  1  0.08635838  0.17294127  0.40654462  1
  H+  H10  1  0.71999490  0.85164416  0.83703829  1
  H+  H11  1  0.30145963  0.16440640  0.19587582  1
  H+  H12  1  0.85115810  0.47736303  0.81497002  1
  H+  H13  1  0.63221898  0.61106890  0.34078240  1
  H+  H14  1  0.02805774  0.39460674  0.17101672  1
  H+  H15  1  0.95397914  0.73071165  0.36019937  1
  H+  H16  1  0.51997495  0.63136587  0.35412936  1
  H+  H17  1  0.26902166  0.12287015  0.35065713  1
  H+  H18  1  0.10068971  0.61590962  0.49139916  1
  H+  H19  1  0.88502876  0.99754128  0.50017307  1
  H+  H20  1  0.61051761  0.97438566  0.34880483  1
  H+  H21  1  0.77853147  0.38141323  0.34713312  1
  H+  H22  1  0.27051882  0.63491305  0.82163597  1
  H+  H23  1  0.96260573  0.87383080  0.31386023  1
  H+  H24  1  0.60233090  0.22863187  0.81493590  1
  H+  H25  1  0.14014269  0.61192285  0.33573723  1
  H+  H26  1  0.61491615  0.22562329  0.14854644  1
  H+  H27  1  0.25446581  0.81970354  0.50900536  1
  H+  H28  1  0.35578997  0.13794379  0.67077115  1
  H+  H29  1  -0.01659423  0.87302618  -0.00462200  1
  H+  H30  1  0.60753153  0.71965307  0.35289520  1
  H+  H31  1  1.00081073  0.85594207  0.17285935  1
  H+  H32  1  0.14103028  0.39529710  0.67608011  1
  H+  H33  1  0.10037566  0.75405880  0.70598023  1
  H+  H34  1  0.96690686  0.10775189  0.83554113  1
  H+  H35  1  0.53002464  0.13431515  0.15764013  1
  H+  H36  1  0.49248471  0.60961153  0.99719616  1
  H+  H37  1  0.14257183  0.37123256  0.17280833  1
  H+  H38  1  0.21537981  0.85177450  0.32921231  1
  H+  H39  1  0.51193689  0.38367765  0.82680852  1
  H+  H40  1  0.88313735  0.35708421  0.65109748  1
  H+  H41  1  0.37665338  0.48271643  0.01134813  1
  H+  H42  1  0.88517647  0.35934879  0.17306886  1
  H+  H43  1  0.11583489  0.15440007  0.81992490  1
  H+  H44  1  0.21932352  0.35153342  0.32490855  1
  H+  H45  1  0.08335199  0.45889847  0.01071145  1
  H+  H46  1  0.11531839  0.88449584  0.82863942  1
  H+  H47  1  0.14783815  0.36684753  0.50025611  1
  H+  H48  1  0.94498285  0.88426255  0.67093837  1
  H+  H49  1  0.10777730  0.23427004  -0.01492822  1
  H+  H50  1  0.11159700  0.13911685  0.50070995  1
  H+  H51  1  0.36104461  0.01897272  0.63770396  1
  H+  H52  1  0.32910302  0.41359817  0.39863383  1
  H+  H53  1  0.38242766  0.61185670  0.33911189  1
  H+  H54  1  0.61227812  0.48828869  0.64608654  1
  H+  H55  1  0.98011648  0.60093298  0.33232964  1
  H+  H56  1  0.12374327  0.12151632  0.96905342  1
  H+  H57  1  0.89421679  0.60416865  0.32811336  1
  H+  H58  1  0.64928529  0.64087677  0.54659286  1
  H+  H59  1  0.07708324  0.65963477  0.40737397  1
  H+  H60  1  0.60455383  0.86567998  0.82317099  1
  H+  H61  1  0.21317923  0.53418183  0.98556779  1
  H+  H62  1  -0.02657238  0.85493291  0.83643467  1
  H+  H63  1  0.39174923  0.88542260  0.47616934  1
  H+  H64  1  0.84663758  0.71658386  0.49019399  1
  H+  H65  1  0.39983556  0.11286159  0.19693804  1
  H+  H66  1  0.88854586  0.01539606  0.65911107  1
  H+  H67  1  0.86548232  0.38706037  -0.00052122  1
  H+  H68  1  0.41155270  0.62238273  1.00215968  1
  H+  H69  1  0.96937844  0.60575264  0.50450371  1
  H+  H70  1  0.92670073  0.83741316  -0.06634963  1
  H+  H71  1  0.51366159  0.63070590  0.16287600  1
  H+  H72  1  0.94736444  0.59882070  0.97534558  1
  H+  H73  1  0.39774743  0.52317416  0.50572879  1
  H+  H74  1  0.87144687  0.47029231  0.33964305  1
  H+  H75  1  0.08822132  0.93916538  0.19110533  1
  H+  H76  1  0.33496364  0.16718104  0.28881261  1
  H+  H77  1  0.87633603  0.26220384  0.33439500  1
  H+  H78  1  0.14737718  0.37139522  0.99725881  1
  H+  H79  1  0.38962558  0.27975628  0.97421558  1
  H+  H80  1  0.72105084  0.61286888  0.34303966  1
  H+  H81  1  0.13413097  0.77525810  0.84831352  1
  H+  H82  1  0.02823247  0.65563470  0.69768990  1
  H+  H83  1  0.14600388  0.12004964  0.36282710  1
  H+  H84  1  0.76933094  0.87688805  -0.00412395  1
  H+  H85  1  0.64244422  0.36327509  0.33077084  1
  H+  H86  1  0.10070247  0.47624387  0.82636954  1
  H+  H87  1  0.37723470  0.78201411  0.65097195  1
  H+  H88  1  1.00602449  0.85066341  0.65827958  1
  H+  H89  1  0.84958034  0.88083469  0.50430865  1
  H+  H90  1  0.28072522  0.64373637  0.16251945  1
  H+  H91  1  0.60923114  0.38347842  0.83016482  1
  H+  H92  1  0.75428091  0.10614860  0.16283961  1
  H+  H93  1  0.39663938  0.37030234  0.98879163  1
  H+  H94  1  0.60617331  0.77527107  0.98398436  1
  H+  H95  1  0.49467275  0.87781189  -0.01108242  1
  H+  H96  1  0.40963614  0.78820165  -0.00655970  1
  H+  H97  1  0.26883733  0.63398438  0.34545154  1
  H+  H98  1  0.27559094  0.38321013  0.17895114  1
  H+  H99  1  0.39407894  0.02712879  0.97757332  1
  H+  H100  1  0.04419841  0.71697729  0.03809488  1
  H+  H101  1  0.91031486  0.07258200  0.56767503  1
  H+  H102  1  0.15014294  0.07590467  0.89348134  1
  H+  H103  1  0.86611801  0.47971200  0.65823584  1
  H+  H104  1  0.51362368  0.86960255  0.82043854  1
  H+  H105  1  0.35419536  0.87795801  0.20356944  1
  H+  H106  1  0.59723296  0.14235994  0.65855302  1
  H+  H107  1  0.61262141  0.22145165  0.36044621  1
  H+  H108  1  0.85624505  0.12736550  1.00172767  1
  H+  H109  1  0.38680344  0.90633488  -0.03638034  1
  H+  H110  1  0.12633275  0.91249318  1.01639362  1
  H+  H111  1  0.51733633  0.63392295  0.67032543  1
  H+  H112  1  0.77463179  0.64708094  0.66642421  1
  H+  H113  1  0.31776277  0.17105600  0.02706564  1
  H+  H114  1  0.83807365  0.93910884  0.14802360  1
  H+  H115  1  0.38998132  0.01901677  0.19747925  1
  H+  H116  1  0.35460933  0.13828353  -0.02308518  1
  H+  H117  1  0.27566220  0.38686034  0.66794262  1
  H+  H118  1  0.87371334  0.73011244  0.00619525  1
  H+  H119  1  0.86749777  0.73069082  0.67615391  1
  H+  H120  1  0.60841573  0.47850391  0.82993752  1
  H+  H121  1  0.77955576  0.38508608  0.15115890  1
  H+  H122  1  0.84250706  0.66515216  0.06417697  1
  H+  H123  1  0.61429022  0.76242363  0.17722800  1
  H+  H124  1  0.88884430  0.11512916  0.17999935  1
  H+  H125  1  0.62927879  0.76623986  0.65963226  1
  H+  H126  1  0.64799505  0.37713539  0.14799598  1
  H+  H127  1  0.33738719  0.42420967  0.76082014  1
  H+  H128  1  0.23602680  0.37053856  0.99446106  1
  H+  H129  1  0.77828560  0.04925080  0.12366512  1
  H+  H130  1  0.38803060  0.52472358  0.83804613  1
  H+  H131  1  0.33029498  0.88305121  0.64012444  1
  H+  H132  1  0.47317900  0.86633287  0.18166315  1
  H+  H133  1  0.35131792  0.96664618  0.81394669  1
  H+  H134  1  0.18272591  0.90656602  0.51875641  1
  H+  H135  1  0.36889941  0.38454152  0.48991347  1
  H+  H136  1  1.02939461  0.15924602  0.14663177  1
  H+  H137  1  0.85492425  0.47127089  1.00027642  1
  H+  H138  1  0.12929374  0.85020023  0.17560918  1
  H+  H139  1  0.65408452  0.08884285  0.70459923  1
  H+  H140  1  0.86534588  0.20808959  0.50118259  1
  H+  H141  1  0.86591666  0.14252551  0.35006098  1
  H+  H142  1  0.85793020  0.98173127  0.34860833  1
  H+  H143  1  0.12010427  0.70772020  0.50655702  1
  H+  H144  1  0.85559369  0.70414831  0.15881362  1
  H+  H145  1  0.86879849  0.68779724  0.40014816  1
  H+  H146  1  0.11462340  1.02048981  0.51122822  1
  H+  H147  1  0.86903641  0.62389929  0.15684620  1
  H+  H148  1  0.52688031  0.14083999  1.00105214  1
  H+  H149  1  0.84776997  0.38716618  0.80620871  1
  H+  H150  1  0.87534251  0.60848753  0.83109761  1
  H+  H151  1  0.61940242  0.48053483  0.50199773  1
  H+  H152  1  0.11675400  0.22172213  0.34094799  1
  H+  H153  1  0.87223111  0.09840294  0.50680918  1
  H+  H154  1  0.22894280  0.85785645  0.19235946  1
  H+  H155  1  0.60988683  0.88474043  0.34942717  1
  H+  H156  1  0.85375079  0.71988811  0.82644070  1
  H+  H157  1  0.85348928  0.96291179  0.82421734  1
  H+  H158  1  0.90657974  0.32165629  0.26927364  1
  H+  H159  1  0.92961641  0.05854243  0.19898690  1
  H+  H160  1  0.02517482  0.14406536  0.49833759  1
  H+  H161  1  0.15760310  0.06252116  0.14200929  1
  H+  H162  1  0.13551758  0.75885977  0.17443335  1
  H+  H163  1  0.85498338  0.12869665  0.82270052  1
  H+  H164  1  0.22511151  0.86280440  0.83755251  1
  H+  H165  1  0.36918625  0.87991850  0.33511031  1
  H+  H166  1  0.27656060  0.64298496  0.66223606  1
  H+  H167  1  0.08540210  0.41815906  0.76822478  1
  H+  H168  1  0.37210992  -0.02724357  0.33963340  1
  H+  H169  1  0.86625113  0.61042389  0.98980571  1
  H+  H170  1  0.45365793  0.10471557  0.65196757  1
  H+  H171  1  0.63576433  0.87228853  0.99408831  1
  H+  H172  1  0.63877204  0.11533165  0.17738551  1
  H+  H173  1  0.63472052  0.11065790  0.33786951  1
  H+  H174  1  0.12561277  1.00317949  0.82977355  1
  H+  H175  1  0.83297572  0.86651768  0.67045764  1
  H+  H176  1  0.62206005  -0.01303037  1.00679741  1
  H+  H177  1  0.10601134  0.71843436  0.34665079  1
  H+  H178  1  0.60891327  0.64007369  0.17015348  1
  H+  H179  1  0.52002193  0.62886301  0.82574385  1
  H+  H180  1  0.98153870  0.33719156  0.50688936  1
  H+  H181  1  0.35253929  0.13392610  0.82653257  1
  H+  H182  1  0.86818524  0.83620976  0.16348917  1
  H+  H183  1  0.47651719  0.85517842  0.33920139  1
  H+  H184  1  0.41508203  0.37166845  0.19108614  1
  H+  H185  1  0.36007045  0.63609104  0.82406984  1
  H+  H186  1  0.73583978  0.10517173  0.66840832  1
  H+  H187  1  0.17846571  0.59531509  1.00546511  1
  H+  H188  1  0.52489557  0.62780818  0.50835817  1
  H+  H189  1  0.86035984  0.63550532  0.48478415  1
  H+  H190  1  0.61103624  0.22623885  0.49757590  1
  H+  H191  1  0.65904648  0.82761388  0.59901312  1
  H+  H192  1  0.62560475  0.85149167  0.51334350  1
  H+  H193  1  0.72443294  0.11299313  0.98458174  1
  H+  H194  1  0.27826961  0.39740629  0.82081692  1
  H+  H195  1  0.87591489  0.36120760  0.33096490  1
  H+  H196  1  0.61797209  0.96523858  0.68073552  1
  H+  H197  1  -0.03432305  0.11003127  -0.01694358  1
  H+  H198  1  0.14858207  0.53016945  0.18107767  1
  H+  H199  1  0.45521142  0.79744612  0.49743092  1
  H+  H200  1  0.39336079  0.24585775  0.20937604  1
  H+  H201  1  0.47035070  0.11550085  0.82564839  1
  H+  H202  1  0.38644463  0.36913163  0.82906478  1
  H+  H203  1  0.31874399  0.90528448  0.26020769  1
  H+  H204  1  0.61015945  0.71607268  0.82561063  1
  H+  H205  1  0.48572516  0.11476315  0.34628604  1
  H+  H206  1  0.13861964  0.37775341  0.83842160  1
  H+  H207  1  0.61317301  0.87277192  0.67523333  1
  H+  H208  1  0.12984783  0.03781898  0.07446094  1
  H+  H209  1  0.61354956  0.40147005  0.65467599  1
  H+  H210  1  0.63452363  0.59734809  0.99673168  1
  H+  H211  1  0.76764371  0.12476035  0.50013275  1
  H+  H212  1  0.38502016  0.77040427  0.83472287  1
  H+  H213  1  0.38635367  0.61968306  0.17748856  1
  H+  H214  1  0.72409392  0.11206293  0.33438705  1
  H+  H215  1  0.63041942  0.28246449  0.65206015  1
  H+  H216  1  0.14047689  0.28290649  0.15820672  1
  H+  H217  1  0.11487456  0.24217340  0.82220717  1
  H+  H218  1  0.36876745  0.73334960  0.16642833  1
  H+  H219  1  0.72764775  0.36002193  -0.01198438  1
  H+  H220  1  0.31641313  0.65822448  0.00791063  1
  H+  H221  1  -0.00524172  0.88586790  0.47999752  1
  H+  H222  1  0.40143502  0.08158203  1.03690205  1
  H+  H223  1  0.38557204  0.52733177  0.66066705  1
  H+  H224  1  0.16335096  0.08196001  0.56632108  1
  H+  H225  1  0.71882122  0.60731857  0.83769748  1
  H+  H226  1  0.89000710  0.62752767  0.65781016  1
  H+  H227  1  0.75395744  0.87928436  0.67111635  1
  H+  H228  1  0.63810456  0.27166875  -0.01315260  1
  H+  H229  1  0.71817570  0.36828980  0.82925670  1
  H+  H230  1  0.62781074  0.60609115  0.83786734  1
  H+  H231  1  0.12899720  0.85422323  0.32365573  1
  H+  H232  1  0.14777445  0.01933196  0.66169829  1
  H+  H233  1  0.38358090  0.52869441  0.18422939  1
  H+  H234  1  0.72320487  0.36829664  0.64932405  1
  H+  H235  1  0.83758686  0.15748515  0.72764840  1
  H+  H236  1  0.66457159  0.08585680  0.24057367  1
  H+  H237  1  0.88421776  0.85452939  0.83821766  1
  H+  H238  1  0.88204635  0.25808966  0.99746795  1
  H+  H239  1  0.55661595  0.41422376  0.15772398  1
  H+  H240  1  0.89607669  0.51472065  0.17485241  1
  H+  H241  1  0.63582941  0.11301281  0.98589613  1
  H+  H242  1  0.63220847  0.76626347  0.51528121  1
  H+  H243  1  0.42424701  0.83334501  0.89259799  1
  H+  H244  1  0.86824379  0.12920308  0.66732384  1
  H+  H245  1  0.38720782  0.61831846  0.65800142  1
  H+  H246  1  0.61743713  0.38164885  0.99714618  1
  H+  H247  1  0.85426798  0.46731337  0.49223592  1
  H+  H248  1  0.11565894  0.13229151  0.67071599  1
  H+  H249  1  0.16914387  0.81393902  0.99575024  1
  H+  H250  1  0.41697206  0.34271834  0.89033766  1
  H+  H251  1  0.10723146  0.97556489  0.33677546  1
  H+  H252  1  0.12565871  0.47458098  0.47567872  1
  H+  H253  1  0.89300550  0.27493253  0.17410787  1
  H+  H254  1  0.33902869  0.41456965  0.23264694  1
  H+  H255  1  0.08437848  0.67659231  0.78399313  1
  H+  H256  1  0.34787407  0.22126873  0.82765369  1
  H+  H257  1  0.71848918  0.11859010  0.82840416  1
  H+  H258  1  0.85789759  0.21975445  0.81607289  1
  H+  H259  1  0.10728965  0.14793124  0.12143251  1
  H+  H260  1  0.13239892  0.61345489  0.84247249  1
  H+  H261  1  0.84688822  0.92267035  0.43549501  1
  H+  H262  1  0.21817432  0.10223385  0.83168101  1
  H+  H263  1  0.38914155  0.27989555  0.66249634  1
  H+  H264  1  0.02396471  0.62857073  0.17557456  1
  H+  H265  1  0.98158423  0.11788765  0.34314012  1
  H+  H266  1  0.68105535  0.57427404  0.17749103  1
  H+  H267  1  0.63894294  0.63262453  0.64761747  1
  H+  H268  1  0.60342028  0.88371728  0.16483392  1
  H+  H269  1  0.62761075  0.49907159  0.98673019  1
  H+  H270  1  0.85323273  0.89089212  0.34187399  1
  H+  H271  1  0.82909715  0.16739794  0.40759896  1
  H+  H272  1  0.13990866  0.27111413  0.65177808  1
  H+  H273  1  0.65075603  0.71141473  0.02736992  1
  H+  H274  1  0.21365052  0.12090823  -0.03389892  1
  H+  H275  1  0.08494556  0.66628963  0.00968539  1
  H+  H276  1  0.62104758  0.01438665  0.51974914  1
  H+  H277  1  0.14547869  0.27784860  0.50489278  1
  H+  H278  1  -0.01910337  0.10406305  0.65650254  1
  H+  H279  1  0.47847459  0.37145964  0.65464954  1
  H+  H280  1  0.62439664  0.47322928  0.32347159  1
  H+  H281  1  0.40954348  0.32479255  0.56828830  1
  H+  H282  1  0.29871045  0.90972762  -0.03764611  1
  H+  H283  1  0.46659149  0.14222944  0.50525372  1
  H+  H284  1  0.22929933  0.11396779  0.66089673  1
  H+  H285  1  0.70445854  0.84481272  0.17318881  1
  H+  H286  1  0.04812571  0.41829282  0.38971636  1
  H+  H287  1  0.60766779  0.97504777  0.16774749  1
  H+  H288  1  0.35353683  0.17062267  0.10098487  1
  H+  H289  1  0.08294225  0.42206407  0.11020865  1
  H+  H290  1  1.01970732  0.63479830  0.83937485  1
  H+  H291  1  0.59905262  0.43445143  0.09188219  1
  H+  H292  1  0.36668809  0.39150231  0.67025540  1
  H+  H293  1  0.31750193  0.65702282  0.40789099  1
  H+  H294  1  0.01526703  0.36463843  0.01855259  1
  H+  H295  1  0.17500243  0.58809608  0.27656958  1
  H+  H296  1  0.17369297  0.58194493  0.89380891  1
  H+  H297  1  0.43712332  0.08634561  0.28152970  1
  H+  H298  1  0.41605040  0.59055093  0.27797873  1
  H+  H299  1  0.41957817  0.58245960  0.89880228  1
  H+  H300  1  0.58065931  0.89874354  0.75217342  1
  H+  H301  1  0.81324532  0.88761907  0.08707964  1
  H+  H302  1  0.35808536  0.93764925  0.08327215  1
  H+  H303  1  0.58811214  0.65156716  0.07904488  1
  H+  H304  1  0.67473722  0.30867648  0.29334246  1
  H+  H305  1  0.89334229  0.81938968  0.22982725  1
  H+  H306  1  0.38527151  0.76487470  0.33969808  1
  H+  H307  1  0.08580704  0.17132334  0.72523192  1
  H+  H308  1  0.05877943  0.90541016  0.38415191  1
  H+  H309  1  0.59382687  0.65739230  0.45437393  1
  H+  H310  1  0.41182046  0.07145081  0.88332829  1
  H+  H311  1  0.92534487  0.10274180  0.28444769  1
  H+  H312  1  0.19800688  0.47800671  0.71325574  1
  H+  H313  1  0.65949912  0.82733310  0.89603138  1
  H+  H314  1  0.66339645  0.34130013  0.20745770  1
  H+  H315  1  0.86191855  0.88116930  -0.00175109  1
  H+  H316  1  0.40154354  0.11087398  0.55966976  1
  H+  H317  1  0.33787048  0.20285820  0.10132146  1
  H+  H318  1  0.82139722  0.66300241  0.76571675  1
  H+  H319  1  0.94196901  0.31329566  0.94350165  1
  H+  H320  1  0.17950302  0.58631048  0.58897117  1
  H+  H321  1  0.17713161  0.35265619  0.89528776  1
  H+  H322  1  0.08630030  0.66565539  0.11728188  1
  H+  H323  1  0.59027328  0.92711267  0.06833454  1
  H+  H324  1  0.65643579  0.57214785  0.92622208  1
  H+  H325  1  0.89070252  0.57016642  0.89148143  1
  H+  H326  1  0.60665880  0.14198637  0.81639079  1
  H+  H327  1  0.84420032  0.41467623  0.09590068  1
  H+  H328  1  0.63340101  0.40665793  0.48157887  1
  H+  H329  1  0.33302234  0.67249928  0.72363701  1
  H+  H330  1  0.42050242  0.58106099  0.56564381  1
  H+  H331  1  0.31032055  0.91286765  0.08797678  1
  H+  H332  1  0.82240420  0.15174632  0.06206175  1
  H+  H333  1  0.07762233  0.90195582  0.07904405  1
  H+  H334  1  0.46344758  0.36204874  0.24751952  1
  H+  H335  1  0.36144824  0.68364524  0.07275100  1
  H+  H336  1  0.14422147  0.05132542  0.23372574  1
  H+  H337  1  0.08370971  0.88991697  0.48362412  1
  H+  H338  1  0.65657248  0.07478908  0.57708801  1
  H+  H339  1  0.57136586  0.16838685  0.72126536  1
  H+  H340  1  0.65570803  0.82709445  0.27580438  1
  H+  H341  1  0.39090698  0.37229743  0.34202953  1
  H+  H342  1  0.65872014  0.08938426  0.88646560  1
  H+  H343  1  0.60174349  0.13212453  0.50593200  1
  H+  H344  1  0.34638530  0.41737748  0.06714432  1
  H+  H345  1  0.16199624  0.31820685  0.26511246  1
  H+  H346  1  0.66450312  0.33559352  0.89240433  1
  H+  H347  1  0.07299984  0.17718352  0.04355390  1
  H+  H348  1  0.28230071  0.38809278  0.49165279  1
  H+  H349  1  0.21831933  0.81623339  0.57365746  1
  H+  H350  1  0.78740050  0.74823637  0.55783123  1
  H+  H351  1  0.17218975  0.33584808  0.59457108  1
  H+  H352  1  0.67117141  0.60393582  0.24351242  1
  H+  H353  1  0.88381565  0.78250109  0.32392552  1
  H+  H354  1  0.14747218  0.61769354  0.18329201  1
  H+  H355  1  0.57915894  0.15682924  0.41689542  1
  H+  H356  1  0.87945670  0.01678375  0.98940644  1
  H+  H357  1  0.89101995  0.33985994  0.87442244  1
  H+  H358  1  0.82782693  0.42405666  0.71771546  1
  H+  H359  1  0.33337381  0.89382641  0.42629476  1
  H+  H360  1  0.97396089  0.65239494  0.61934082  1
  H+  H361  1  0.38078952  0.20420425  0.51039758  1
  H+  H362  1  0.53672065  0.38707079  0.33141875  1
  H+  H363  1  0.52657361  0.38248390  -0.00355104  1
  H+  H364  1  0.88367012  0.81365352  0.57845319  1
  H+  H365  1  0.57957665  0.65935355  0.72907227  1
  H+  H366  1  0.36684757  0.11999768  0.33785969  1
  H+  H367  1  0.82063090  0.90158566  0.76646775  1
  H+  H368  1  0.56594879  0.90825935  0.44234450  1
  H+  H369  1  0.25075793  0.89549341  0.66199276  1
  H+  H370  1  0.42432326  0.84737982  0.59781785  1
  H+  H371  1  0.17997794  0.04075293  0.23132937  1
  H+  H372  1  0.42151329  0.82668976  0.24457519  1
  H+  H373  1  0.89860190  0.57230986  0.55680742  1
  H+  H374  1  0.66093743  0.33264972  0.55674349  1
  H+  H375  1  0.08719085  0.91064702  0.76659271  1
  H+  H376  1  0.90466191  0.07235955  0.89321719  1
  H+  H377  1  0.32691699  0.16669432  0.73183156  1
  H+  H378  1  0.83679941  0.40316709  0.43896563  1
  H+  H379  1  0.92715610  0.31186499  0.56948052  1
  H+  H380  1  0.91998743  0.56988307  0.23718103  1
  H+  H381  1  0.35871859  0.47607333  0.34147917  1
  H+  H382  1  0.17468238  0.85470042  0.93023427  1
  H+  H383  1  0.58779110  0.16524533  0.05879855  1
  O2-  O384  1  0.08149454  0.18595799  0.12078399  1
  O2-  O385  1  0.08479543  0.17256576  0.48341126  1
  O2-  O386  1  0.08249487  0.18144725  0.80748917  1
  O2-  O387  1  0.08768743  0.42522417  0.15515834  1
  O2-  O388  1  0.08766700  0.41118067  0.46985697  1
  O2-  O389  1  0.07020490  0.41479663  0.81253705  1
  O2-  O390  1  0.08691267  0.66347557  0.16219202  1
  O2-  O391  1  0.07504131  0.65282489  0.48560311  1
  O2-  O392  1  0.08209112  0.66688306  0.83014006  1
  O2-  O393  1  0.06578562  0.88750149  0.16590343  1
  O2-  O394  1  0.05293806  0.91520595  0.46350319  1
  O2-  O395  1  0.08367247  0.91407038  0.81224867  1
  O2-  O396  1  0.35415120  0.18238705  0.21887155  1
  O2-  O397  1  0.34902612  0.23745795  0.50553999  1
  O2-  O398  1  0.31652127  0.16015044  0.81489268  1
  O2-  O399  1  0.33951950  0.41352730  0.18816634  1
  O2-  O400  1  0.34131372  0.41681320  0.47388202  1
  O2-  O401  1  0.33916759  0.42447474  0.80691463  1
  O2-  O402  1  0.34165075  0.67490707  0.14733875  1
  O2-  O403  1  0.26546359  0.63667471  0.48447868  1
  O2-  O404  1  0.33155900  0.66726319  0.80826733  1
  O2-  O405  1  0.31940890  0.90635799  0.21457994  1
  O2-  O406  1  0.34256180  0.89415947  0.47013559  1
  O2-  O407  1  0.31809541  0.90415618  0.80778012  1
  O2-  O408  1  0.58820758  0.16333176  0.13883879  1
  O2-  O409  1  0.57519178  0.16269328  0.48624678  1
  O2-  O410  1  0.57305146  0.16906765  0.79924185  1
  O2-  O411  1  0.61216737  0.44025747  0.13593956  1
  O2-  O412  1  0.62878745  0.45553988  0.46565798  1
  O2-  O413  1  0.57703880  0.41542680  0.81662659  1
  O2-  O414  1  0.57411778  0.66158629  0.14670594  1
  O2-  O415  1  0.59024296  0.66108462  0.49902713  1
  O2-  O416  1  0.58075578  0.65547487  0.81054761  1
  O2-  O417  1  0.57677588  0.91715746  0.14867125  1
  O2-  O418  1  0.56501328  0.90484644  0.48851136  1
  O2-  O419  1  0.57533372  0.89567409  0.80476338  1
  O2-  O420  1  0.80409986  0.10804465  0.13889271  1
  O2-  O421  1  0.82581266  0.14769994  0.48235887  1
  O2-  O422  1  0.82667286  0.15853040  0.80365204  1
  O2-  O423  1  0.84207266  0.41182091  0.14136608  1
  O2-  O424  1  0.82619207  0.40537401  0.48246758  1
  O2-  O425  1  0.81644756  0.41820212  0.79685267  1
  O2-  O426  1  0.83749368  0.64935049  0.13743905  1
  O2-  O427  1  0.83691449  0.66853237  0.46373675  1
  O2-  O428  1  0.81896230  0.65949497  0.81115595  1
  O2-  O429  1  0.80755491  0.88047043  0.13290239  1
  O2-  O430  1  0.87216176  0.93377458  0.47816561  1
  O2-  O431  1  0.82343638  0.90128756  0.81177975  1
  O2-  O432  1  0.15406051  0.08684405  0.10319000  1
  O2-  O433  1  0.15285956  0.08087293  0.52161563  1
  O2-  O434  1  0.15445457  0.06910187  0.84357894  1
  O2-  O435  1  0.17127939  0.33730125  0.18184880  1
  O2-  O436  1  0.17814241  0.33886278  0.51876890  1
  O2-  O437  1  0.17336964  0.35061508  0.85017291  1
  O2-  O438  1  0.18252296  0.59107851  0.19450103  1
  O2-  O439  1  0.18683029  0.58460393  0.50199192  1
  O2-  O440  1  0.16312142  0.57984423  0.84984396  1
  O2-  O441  1  0.16871545  0.82525464  0.17110762  1
  O2-  O442  1  0.20474817  0.78299072  0.53585665  1
  O2-  O443  1  0.16553301  0.83829930  0.85713143  1
  O2-  O444  1  0.43191880  0.08168120  0.20075561  1
  O2-  O445  1  0.40873712  0.13071333  0.51674461  1
  O2-  O446  1  0.40927430  0.08485613  0.84073276  1
  O2-  O447  1  0.45381658  0.34981987  0.20338527  1
  O2-  O448  1  0.41312702  0.32498622  0.52239786  1
  O2-  O449  1  0.41619698  0.33784045  0.84498057  1
  O2-  O450  1  0.41683359  0.59045121  0.19473539  1
  O2-  O451  1  0.42967368  0.58308109  0.52103932  1
  O2-  O452  1  0.41840042  0.58523252  0.85390179  1
  O2-  O453  1  0.41449694  0.83238996  0.19972192  1
  O2-  O454  1  0.47309943  0.85803225  0.50472821  1
  O2-  O455  1  0.41991397  0.83207904  0.84738520  1
  O2-  O456  1  0.66588936  0.08333412  0.19493072  1
  O2-  O457  1  0.65631251  0.07532126  0.53244241  1
  O2-  O458  1  0.65869679  0.09739621  0.84204999  1
  O2-  O459  1  0.66977434  0.33767169  0.16377094  1
  O2-  O460  1  0.66101064  0.32538497  0.51181812  1
  O2-  O461  1  0.65856593  0.33867724  0.84733567  1
  O2-  O462  1  0.67438443  0.61779144  0.19949959  1
  O2-  O463  1  0.70197285  0.64696347  0.56872775  1
  O2-  O464  1  0.65793811  0.57479627  0.85417201  1
  O2-  O465  1  0.64741351  0.82340273  0.19204345  1
  O2-  O466  1  0.66098732  0.82782939  0.52871855  1
  O2-  O467  1  0.65855738  0.82100195  0.85105914  1
  O2-  O468  1  0.93977126  0.11705008  0.20020164  1
  O2-  O469  1  0.90783770  0.07136756  0.52150414  1
  O2-  O470  1  0.90590862  0.07231380  0.84779806  1
  O2-  O471  1  0.91574726  0.33111845  0.19321169  1
  O2-  O472  1  0.93081526  0.29171637  0.52746789  1
  O2-  O473  1  0.90109589  0.33163222  0.83211836  1
  O2-  O474  1  0.92567611  0.57411195  0.19172281  1
  O2-  O475  1  0.90591053  0.57812460  0.51242344  1
  O2-  O476  1  0.90252093  0.57548840  0.84691492  1
  O2-  O477  1  0.90043623  0.81271586  0.18525201  1
  O2-  O478  1  0.84322418  0.79849471  0.54395393  1
  O2-  O479  1  0.91444432  0.82465824  0.85402504  1
  O2-  O480  1  0.17851693  0.08736542  0.37106748  1
  O2-  O481  1  0.16784429  0.07854658  0.64692830  1
  O2-  O482  1  0.15225898  0.08951190  0.95354228  1
  O2-  O483  1  0.16041292  0.31251834  0.30974368  1
  O2-  O484  1  0.17157469  0.33286774  0.64032843  1
  O2-  O485  1  0.17788641  0.34603787  0.97598451  1
  O2-  O486  1  0.17402894  0.58568780  0.32145724  1
  O2-  O487  1  0.17882597  0.59157379  0.63342557  1
  O2-  O488  1  0.21164624  0.58592677  0.97437879  1
  O2-  O489  1  0.15591854  0.81948566  0.31390132  1
  O2-  O490  1  0.14550261  0.86588061  0.69737521  1
  O2-  O491  1  0.18825047  0.86889550  0.97508675  1
  O2-  O492  1  0.42607889  0.08344132  0.32624930  1
  O2-  O493  1  0.39463823  0.08389602  0.63734575  1
  O2-  O494  1  0.41521757  0.09017019  0.99360571  1
  O2-  O495  1  0.42499811  0.34279001  0.33267029  1
  O2-  O496  1  0.41508591  0.33855422  0.64453776  1
  O2-  O497  1  0.42644308  0.34312755  0.96806482  1
  O2-  O498  1  0.41413330  0.58336856  0.32279541  1
  O2-  O499  1  0.41912782  0.58780526  0.64603225  1
  O2-  O500  1  0.43178272  0.58396308  0.98457365  1
  O2-  O501  1  0.41727486  0.82463476  0.32159312  1
  O2-  O502  1  0.39840636  0.84199181  0.63774308  1
  O2-  O503  1  0.43557461  0.84408757  0.97170954  1
  O2-  O504  1  0.66402140  0.08144114  0.31872868  1
  O2-  O505  1  0.67004910  0.07525342  0.66545268  1
  O2-  O506  1  0.66374290  0.08042621  0.97084939  1
  O2-  O507  1  0.67425711  0.32803199  0.33451020  1
  O2-  O508  1  0.66232083  0.34163628  0.63561009  1
  O2-  O509  1  0.66771866  0.33263380  0.97182172  1
  O2-  O510  1  0.66596856  0.58573592  0.32217415  1
  O2-  O511  1  0.67603444  0.60967153  0.62987412  1
  O2-  O512  1  0.65673157  0.56436034  0.97247987  1
  O2-  O513  1  0.65656999  0.82886100  0.32099888  1
  O2-  O514  1  0.66035376  0.82777481  0.64591570  1
  O2-  O515  1  0.65495157  0.83234747  0.97618966  1
  O2-  O516  1  0.92012553  0.09196027  0.32867051  1
  O2-  O517  1  0.91969222  0.07401410  0.64146711  1
  O2-  O518  1  0.90299362  0.07604749  0.97286039  1
  O2-  O519  1  0.90472352  0.32311958  0.31503628  1
  O2-  O520  1  0.91671110  0.32871780  0.64194855  1
  O2-  O521  1  0.91986242  0.31967202  0.98252431  1
  O2-  O522  1  0.91961055  0.56889568  0.31471843  1
  O2-  O523  1  0.92746326  0.60504178  0.64171702  1
  O2-  O524  1  0.88538464  0.56870283  0.97008517  1
  O2-  O525  1  0.89957764  0.83956110  0.30554704  1
  O2-  O526  1  0.94394694  0.83613237  0.64962071  1
  O2-  O527  1  0.92402577  0.84054757  0.97891760  1
  O2-  O528  1  0.07272895  0.17322946  -0.00189238  1
  O2-  O529  1  0.08657984  0.16261022  0.36164392  1
  O2-  O530  1  0.08400122  0.16361030  0.68039926  1
  O2-  O531  1  0.07628473  0.40695264  0.03009545  1
  O2-  O532  1  0.08653959  0.39813226  0.40401366  1
  O2-  O533  1  0.13843493  0.44106495  0.70095185  1
  O2-  O534  1  0.09367833  0.70843255  0.04087205  1
  O2-  O535  1  0.07533053  0.65786537  0.36175647  1
  O2-  O536  1  0.08484906  0.69374893  0.71523786  1
  O2-  O537  1  0.08567074  0.92593442  0.03766700  1
  O2-  O538  1  0.06794659  0.91290489  0.33944927  1
  O2-  O539  1  0.09808924  0.90487542  0.68967662  1
  O2-  O540  1  0.32295546  0.17065061  -0.01748878  1
  O2-  O541  1  0.33228729  0.15227560  0.33414195  1
  O2-  O542  1  0.32966460  0.17245056  0.68705832  1
  O2-  O543  1  0.34365567  0.41995648  0.02289332  1
  O2-  O544  1  0.32921727  0.41376803  0.35264450  1
  O2-  O545  1  0.33469151  0.42051640  0.68560150  1
  O2-  O546  1  0.37320651  0.68650252  0.02760158  1
  O2-  O547  1  0.32942997  0.66379277  0.36373431  1
  O2-  O548  1  0.33720765  0.67269527  0.67879615  1
  O2-  O549  1  0.36092264  0.94204318  -0.04794956  1
  O2-  O550  1  0.33362272  0.90922623  0.33801316  1
  O2-  O551  1  0.29705631  0.91292941  0.63178460  1
  O2-  O552  1  0.58850947  0.16926655  0.01344485  1
  O2-  O553  1  0.58137078  0.15897280  0.36992287  1
  O2-  O554  1  0.56785757  0.17080179  0.67578267  1
  O2-  O555  1  0.58795753  0.41441598  0.01072562  1
  O2-  O556  1  0.59551867  0.41071724  0.31470608  1
  O2-  O557  1  0.58291157  0.43239899  0.66675863  1
  O2-  O558  1  0.60105386  0.65413307  0.03263693  1
  O2-  O559  1  0.58084809  0.65984946  0.36821974  1
  O2-  O560  1  0.57974051  0.66407702  0.68399740  1
  O2-  O561  1  0.59490570  0.92649477  0.02309983  1
  O2-  O562  1  0.57983969  0.91493994  0.36561925  1
  O2-  O563  1  0.58629403  0.90474250  0.69514833  1
  O2-  O564  1  0.82860940  0.16077167  0.01748246  1
  O2-  O565  1  0.83263697  0.17159404  0.36164707  1
  O2-  O566  1  0.83506863  0.15640117  0.68206450  1
  O2-  O567  1  0.83214627  0.41171429  0.01718630  1
  O2-  O568  1  0.84247146  0.40809897  0.35322829  1
  O2-  O569  1  0.83058642  0.42050471  0.67261490  1
  O2-  O570  1  0.84217715  0.66894754  0.01835920  1
  O2-  O571  1  0.89169737  0.69900137  0.35545954  1
  O2-  O572  1  0.83141716  0.66910933  0.68713363  1
  O2-  O573  1  0.82754630  0.90777971  0.01391892  1
  O2-  O574  1  0.82639834  0.92095108  0.36318389  1
  O2-  O575  1  0.81611811  0.90640394  0.68651399  1
