# generated using pymatgen
data_H2O
_symmetry_space_group_name_H-M   'P 1'
_cell_length_a   17.99081089
_cell_length_b   17.98687493
_cell_length_c   22.01494206
_cell_angle_alpha   90.01910755
_cell_angle_beta   90.01392235
_cell_angle_gamma   119.96024352
_symmetry_Int_Tables_number   1
_chemical_formula_structural   H2O
_chemical_formula_sum   'H384 O192'
_cell_volume   6172.03533412
_cell_formula_units_Z   192
loop_
 _symmetry_equiv_pos_site_id
 _symmetry_equiv_pos_as_xyz
  1  'x, y, z'
loop_
 _atom_type_symbol
 _atom_type_oxidation_number
  H+  1.0
  O2-  -2.0
loop_
 _atom_site_type_symbol
 _atom_site_label
 _atom_site_symmetry_multiplicity
 _atom_site_fract_x
 _atom_site_fract_y
 _atom_site_fract_z
 _atom_site_occupancy
  H+  H0  1  0.91353026  0.74600033  0.95397917  1
  H+  H1  1  0.42526713  0.60589752  0.57558254  1
  H+  H2  1  0.53382598  0.65730189  0.50333660  1
  H+  H3  1  0.59242726  0.91458940  0.72329702  1
  H+  H4  1  0.39632762  0.62980401  0.51408259  1
  H+  H5  1  0.84564178  0.46074771  1.01262494  1
  H+  H6  1  0.38838318  0.86608528  0.16659797  1
  H+  H7  1  0.57979790  0.66939237  0.43855090  1
  H+  H8  1  0.16312117  0.49974885  0.15804594  1
  H+  H9  1  0.13998615  0.51218196  0.32729860  1
  H+  H10  1  0.14100448  0.36078980  0.65387262  1
  H+  H11  1  0.72285064  0.36018307  0.17164527  1
  H+  H12  1  0.46326496  0.12614539  0.00194060  1
  H+  H13  1  0.24482852  0.11426701  0.33153534  1
  H+  H14  1  0.36791346  0.62250055  0.00638655  1
  H+  H15  1  0.31212020  0.50329889  0.45478030  1
  H+  H16  1  0.36296998  0.37469439  0.67610179  1
  H+  H17  1  0.52518838  0.63262557  0.33485687  1
  H+  H18  1  0.61456554  0.63341015  0.34700991  1
  H+  H19  1  0.71545539  0.60723742  0.17295917  1
  H+  H20  1  0.38228477  0.85079544  0.32831336  1
  H+  H21  1  0.66954822  0.04046820  0.96164188  1
  H+  H22  1  0.11313424  0.47667549  0.66460567  1
  H+  H23  1  0.14795532  0.61833562  0.61514497  1
  H+  H24  1  0.47779359  0.11088970  0.65968870  1
  H+  H25  1  0.57380147  0.43532058  0.75875315  1
  H+  H26  1  0.91817642  0.83414406  0.60367538  1
  H+  H27  1  0.77417496  0.14589403  0.35242086  1
  H+  H28  1  0.25957856  0.65300945  0.79671536  1
  H+  H29  1  0.78243501  0.15201446  0.81017206  1
  H+  H30  1  0.22737245  0.35784311  0.65754864  1
  H+  H31  1  0.35097583  0.40895406  0.10672831  1
  H+  H32  1  0.59327166  0.13332781  0.18224768  1
  H+  H33  1  0.92657597  0.34065553  0.23065545  1
  H+  H34  1  0.63395847  0.85135789  -0.01102710  1
  H+  H35  1  0.58830855  0.12941204  0.02085119  1
  H+  H36  1  0.23026919  0.10653762  0.50771061  1
  H+  H37  1  0.89838565  0.12658673  0.99510951  1
  H+  H38  1  0.58077565  0.19724139  0.45182451  1
  H+  H39  1  0.63290652  0.11391466  0.82202234  1
  H+  H40  1  0.60718784  0.97313565  0.80787131  1
  H+  H41  1  0.26949308  0.88076830  0.33964052  1
  H+  H42  1  0.88254687  0.50021704  0.33349797  1
  H+  H43  1  0.14266352  0.78194906  0.85462005  1
  H+  H44  1  0.33467530  0.16413585  0.40974831  1
  H+  H45  1  0.87679043  0.02485428  0.65223114  1
  H+  H46  1  0.90433898  0.91084476  -0.01724338  1
  H+  H47  1  0.68622942  0.07636615  0.49286830  1
  H+  H48  1  0.05604045  0.10481135  0.74533462  1
  H+  H49  1  0.47958119  0.35435571  0.50894994  1
  H+  H50  1  0.62275934  0.47274883  0.15034689  1
  H+  H51  1  0.35389566  0.97704066  0.16207854  1
  H+  H52  1  0.97964394  0.86890165  0.66141440  1
  H+  H53  1  0.57360488  0.93337199  0.01475750  1
  H+  H54  1  0.99870017  0.90950084  0.98437559  1
  H+  H55  1  0.47729168  0.60575733  -0.00518376  1
  H+  H56  1  1.02639341  0.38576426  0.82994391  1
  H+  H57  1  0.12010244  0.38313336  0.33309101  1
  H+  H58  1  0.61755492  0.72747318  0.99819011  1
  H+  H59  1  0.97124653  0.61223287  0.66229554  1
  H+  H60  1  0.37037526  0.23248902  0.35351255  1
  H+  H61  1  0.52314426  0.39083239  0.66678840  1
  H+  H62  1  0.23483225  0.61978477  0.18083025  1
  H+  H63  1  0.40861728  0.59086394  0.72309641  1
  H+  H64  1  0.86181259  0.63225666  0.49991340  1
  H+  H65  1  -0.02562493  0.36124844  0.65733167  1
  H+  H66  1  0.77178761  0.63253259  0.49812818  1
  H+  H67  1  0.86262684  -0.01236358  1.00942460  1
  H+  H68  1  0.63642538  0.86557614  0.83459991  1
  H+  H69  1  0.27911553  0.62747391  0.33223662  1
  H+  H70  1  0.63216492  0.03531239  0.37380558  1
  H+  H71  1  -0.02013765  0.85576703  0.51351050  1
  H+  H72  1  0.01616536  0.87880580  0.34556580  1
  H+  H73  1  0.88824116  0.11849084  0.84135105  1
  H+  H74  1  0.11026788  0.22391255  0.83079003  1
  H+  H75  1  0.46062539  0.11195297  0.18067270  1
  H+  H76  1  1.07773783  0.40240261  0.39019238  1
  H+  H77  1  0.38830188  0.26834357  0.66128122  1
  H+  H78  1  0.59364205  0.17807655  0.88362662  1
  H+  H79  1  0.14028231  0.26587495  0.31958101  1
  H+  H80  1  0.51759660  0.37104124  0.34800700  1
  H+  H81  1  0.63287705  0.51971975  0.50672648  1
  H+  H82  1  0.23051070  0.36225429  0.84208121  1
  H+  H83  1  -0.03972754  0.59688812  0.18932013  1
  H+  H84  1  0.63432119  0.61070429  0.50437964  1
  H+  H85  1  0.87065856  0.10528693  0.19384261  1
  H+  H86  1  0.62701781  0.37076567  0.16216255  1
  H+  H87  1  0.64397536  0.78051769  0.83554973  1
  H+  H88  1  0.11657576  -0.03132550  0.50054341  1
  H+  H89  1  0.84952010  0.46625345  0.16782818  1
  H+  H90  1  1.04309653  0.39885071  1.01051310  1
  H+  H91  1  0.10949853  0.61271559  0.18129031  1
  H+  H92  1  0.39447504  0.51135008  0.99443052  1
  H+  H93  1  0.01960030  0.62085546  0.34112511  1
  H+  H94  1  0.54185775  0.64420558  0.82407628  1
  H+  H95  1  0.60455123  0.22466256  0.01946649  1
  H+  H96  1  1.02723179  0.89438581  0.81935710  1
  H+  H97  1  0.44295995  0.37690416  0.00997033  1
  H+  H98  1  0.22973504  0.87334902  0.84377870  1
  H+  H99  1  0.10649973  0.71234893  0.33780920  1
  H+  H100  1  0.13483901  0.48060525  -0.00061283  1
  H+  H101  1  0.69016927  0.09457019  0.21481424  1
  H+  H102  1  0.77138174  0.88454804  0.16181448  1
  H+  H103  1  0.33025447  0.93525438  0.06915383  1
  H+  H104  1  0.37560030  0.13057156  0.99970632  1
  H+  H105  1  0.45468435  0.83536081  0.98311067  1
  H+  H106  1  0.26034334  0.14362937  0.16419612  1
  H+  H107  1  0.51851377  0.88354798  0.81228700  1
  H+  H108  1  0.61329152  0.48190393  0.66492428  1
  H+  H109  1  0.59908460  0.40066157  0.81467892  1
  H+  H110  1  0.59525707  0.37321860  1.00782822  1
  H+  H111  1  0.79974628  0.15504918  -0.02132659  1
  H+  H112  1  0.80997402  0.68230735  0.00613408  1
  H+  H113  1  0.11149409  0.91988160  0.18198202  1
  H+  H114  1  0.13613864  0.76069945  0.50739616  1
  H+  H115  1  0.91141504  0.29914783  0.98273319  1
  H+  H116  1  0.79840513  0.40248289  0.55404021  1
  H+  H117  1  0.51881204  0.63950342  0.15282199  1
  H+  H118  1  0.13209240  0.64285937  0.70288931  1
  H+  H119  1  0.88609463  0.27032346  0.65696011  1
  H+  H120  1  0.86743673  0.73445196  0.67425349  1
  H+  H121  1  0.57564057  0.40040394  0.44145543  1
  H+  H122  1  0.36687017  0.13418365  0.67403569  1
  H+  H123  1  0.50497785  0.12628093  0.34685488  1
  H+  H124  1  0.36063631  0.21495280  0.49866216  1
  H+  H125  1  0.86370153  0.64326094  0.67455313  1
  H+  H126  1  0.95956547  0.34906972  0.50075439  1
  H+  H127  1  0.84258751  0.37437171  0.17629099  1
  H+  H128  1  0.16401882  0.09906702  0.23410959  1
  H+  H129  1  0.38812958  0.02267591  0.66369029  1
  H+  H130  1  0.88786871  0.76964742  0.51265954  1
  H+  H131  1  0.88401124  0.76561242  0.33454649  1
  H+  H132  1  0.63566972  0.91546282  0.49306639  1
  H+  H133  1  0.77543921  0.89325685  0.82399095  1
  H+  H134  1  0.36729334  0.71787637  0.33520673  1
  H+  H135  1  0.21139449  0.03549929  0.28880339  1
  H+  H136  1  0.63958891  0.35985984  0.33774017  1
  H+  H137  1  0.09116673  0.36353900  0.48790365  1
  H+  H138  1  0.36455126  0.90093294  0.82556624  1
  H+  H139  1  0.26775820  0.90922969  1.00402226  1
  H+  H140  1  0.21813396  0.37001358  0.49855605  1
  H+  H141  1  0.63543733  0.75738636  0.32713463  1
  H+  H142  1  0.64347017  0.53387764  0.82903857  1
  H+  H143  1  0.11304156  0.88893435  0.82367574  1
  H+  H144  1  0.66588617  0.33676319  0.73052240  1
  H+  H145  1  0.12454775  0.82262723  0.15610115  1
  H+  H146  1  0.86428928  0.98212341  0.82466491  1
  H+  H147  1  0.35745898  0.12273013  0.49915367  1
  H+  H148  1  0.23302923  0.61736948  0.63786339  1
  H+  H149  1  0.38153024  0.12905216  0.83751152  1
  H+  H150  1  0.38916725  0.53097858  0.16617555  1
  H+  H151  1  0.12223894  0.48012986  0.82716651  1
  H+  H152  1  0.13236477  0.59507253  0.49020938  1
  H+  H153  1  0.61931966  0.64087571  0.66728503  1
  H+  H154  1  0.02401743  0.62659089  0.49179150  1
  H+  H155  1  0.85285707  0.71994169  0.16578693  1
  H+  H156  1  0.56305656  0.52165976  0.94215699  1
  H+  H157  1  0.72297777  0.35340696  1.00538511  1
  H+  H158  1  0.60803380  0.46092229  0.35924538  1
  H+  H159  1  0.17483057  0.57505719  0.24192469  1
  H+  H160  1  0.38328812  0.77369003  0.16678308  1
  H+  H161  1  0.37033572  0.10905141  0.17906165  1
  H+  H162  1  0.35153290  0.23492960  0.81757546  1
  H+  H163  1  0.93997839  0.75598561  -0.01744905  1
  H+  H164  1  0.37248861  0.78689619  0.81373264  1
  H+  H165  1  0.21041397  0.71154745  0.73943158  1
  H+  H166  1  0.77877258  0.89263930  0.00339389  1
  H+  H167  1  0.87403862  0.60277875  0.18272339  1
  H+  H168  1  0.37164173  0.84387925  0.98055250  1
  H+  H169  1  0.70441494  0.32612943  0.48877135  1
  H+  H170  1  0.87659534  0.85698944  0.17684246  1
  H+  H171  1  0.11810218  0.88785135  0.66781582  1
  H+  H172  1  0.85196001  0.96726990  0.34026456  1
  H+  H173  1  0.77635016  0.38756338  0.67769001  1
  H+  H174  1  0.60221314  0.12683484  0.36030745  1
  H+  H175  1  0.40579413  0.88230410  0.50352853  1
  H+  H176  1  0.42245988  0.58795460  0.22637478  1
  H+  H177  1  0.36920129  0.37747337  0.33234337  1
  H+  H178  1  0.48351648  0.61316236  0.67784901  1
  H+  H179  1  0.27371852  0.87773083  0.49539891  1
  H+  H180  1  0.27684737  0.89283006  0.67114128  1
  H+  H181  1  1.00453878  0.38679993  0.15569492  1
  H+  H182  1  0.88065789  1.02316037  0.18084867  1
  H+  H183  1  1.00049780  0.08116561  0.68709453  1
  H+  H184  1  0.88373835  0.11117001  0.34035604  1
  H+  H185  1  0.10430625  0.12470199  0.33957138  1
  H+  H186  1  0.14370916  1.01759801  0.65772973  1
  H+  H187  1  0.11190102  0.89505071  0.01273980  1
  H+  H188  1  0.72294176  0.59677140  0.01116355  1
  H+  H189  1  0.63133438  0.89067974  0.66217923  1
  H+  H190  1  0.58973109  0.45935907  0.00844196  1
  H+  H191  1  0.10543871  0.23403826  0.16201040  1
  H+  H192  1  0.13630817  0.85027090  0.51042532  1
  H+  H193  1  0.84706424  0.17235106  0.72464171  1
  H+  H194  1  0.65576126  0.93407146  0.40275055  1
  H+  H195  1  0.59468661  0.01174128  0.22112102  1
  H+  H196  1  0.86529541  0.38516259  0.66790111  1
  H+  H197  1  0.24251667  0.11069556  0.65837941  1
  H+  H198  1  0.15634903  0.78043503  0.66835375  1
  H+  H199  1  0.12652010  0.12928736  0.17691357  1
  H+  H200  1  0.36247621  0.73816314  0.64723087  1
  H+  H201  1  0.10966572  0.14029625  0.01183615  1
  H+  H202  1  0.63965475  -0.00344315  0.66638372  1
  H+  H203  1  0.24098362  0.35987508  0.17374100  1
  H+  H204  1  0.50180241  0.90105938  0.50684227  1
  H+  H205  1  0.02634669  0.64072418  0.84332509  1
  H+  H206  1  0.73386155  0.85571780  0.32543745  1
  H+  H207  1  0.13318972  1.03293514  0.00518784  1
  H+  H208  1  0.63767349  0.28566144  0.82155322  1
  H+  H209  1  0.16820120  0.82341306  0.60152571  1
  H+  H210  1  0.98176342  0.11772533  0.99637563  1
  H+  H211  1  0.82222529  0.21132797  0.21517286  1
  H+  H212  1  0.63427201  0.65227444  0.82087216  1
  H+  H213  1  0.88576541  0.52181095  0.66053176  1
  H+  H214  1  0.33220014  0.16597151  0.73136281  1
  H+  H215  1  0.35775910  0.97008063  0.34159546  1
  H+  H216  1  0.78806877  0.65055471  0.82649349  1
  H+  H217  1  0.35928066  0.98805665  0.82773048  1
  H+  H218  1  0.73865973  0.11209969  0.66234312  1
  H+  H219  1  1.02234249  0.13533136  0.83648804  1
  H+  H220  1  0.09187714  0.45153046  0.48095741  1
  H+  H221  1  0.27046933  0.88200868  0.15593316  1
  H+  H222  1  -0.03434722  0.85996908  0.17797319  1
  H+  H223  1  0.13891634  0.60238663  0.32713029  1
  H+  H224  1  0.50237969  0.40637468  0.19611400  1
  H+  H225  1  0.39429920  0.51805647  0.31414466  1
  H+  H226  1  0.86977576  0.48379962  0.82163557  1
  H+  H227  1  0.83843066  0.22049036  0.50127046  1
  H+  H228  1  0.36607345  0.64208503  0.15971965  1
  H+  H229  1  -0.00036464  0.34345667  0.14874442  1
  H+  H230  1  0.82903173  0.16833472  0.41057013  1
  H+  H231  1  0.88302261  0.51933553  0.51001645  1
  H+  H232  1  0.16384302  0.80059378  -0.00801018  1
  H+  H233  1  0.37647059  0.01680514  0.50898889  1
  H+  H234  1  0.15517001  0.36596858  0.99558886  1
  H+  H235  1  0.24782868  0.60086254  -0.01825719  1
  H+  H236  1  0.14356765  0.11434522  0.83735686  1
  H+  H237  1  0.64046075  0.77640827  0.65208556  1
  H+  H238  1  0.63638963  0.76463935  0.17200751  1
  H+  H239  1  0.36217872  0.64563040  0.65778790  1
  H+  H240  1  0.40861748  0.52108292  0.83908434  1
  H+  H241  1  0.17382648  0.33788822  0.90273375  1
  H+  H242  1  0.16758564  0.40402426  0.15529133  1
  H+  H243  1  0.10710092  0.96575015  0.34720371  1
  H+  H244  1  0.10180001  0.99748376  0.16467305  1
  H+  H245  1  0.60301620  0.59937749  0.98811323  1
  H+  H246  1  0.86968317  0.13715366  0.66349969  1
  H+  H247  1  0.23246399  0.35329636  0.31744355  1
  H+  H248  1  0.73177817  0.86437185  0.65373266  1
  H+  H249  1  0.44616508  0.38753038  0.82671245  1
  H+  H250  1  0.82706587  0.40297789  0.07264918  1
  H+  H251  1  0.38445381  0.86063436  0.65239801  1
  H+  H252  1  0.90475410  0.38169513  -0.00746013  1
  H+  H253  1  0.62705895  0.26935774  0.17621539  1
  H+  H254  1  0.12687341  0.85120731  0.32835501  1
  H+  H255  1  0.16814076  0.61324695  -0.02579666  1
  H+  H256  1  0.73055267  0.61913168  0.65820941  1
  H+  H257  1  0.87243294  0.23806199  0.82226176  1
  H+  H258  1  0.36621626  0.46601769  0.48320728  1
  H+  H259  1  0.38624267  0.11624605  0.33631772  1
  H+  H260  1  0.89168332  0.62285209  0.83704030  1
  H+  H261  1  0.21911184  0.12329607  0.00186719  1
  H+  H262  1  0.86243853  0.62651760  0.35263477  1
  H+  H263  1  0.39084413  0.41731855  0.17424898  1
  H+  H264  1  0.60507645  0.63384777  0.14672905  1
  H+  H265  1  0.83911443  0.58097880  0.99458965  1
  H+  H266  1  0.61605027  0.22294222  0.68006187  1
  H+  H267  1  0.88880378  0.87644015  0.83368706  1
  H+  H268  1  0.60249702  0.36737430  0.49881431  1
  H+  H269  1  0.98980872  0.12240823  0.51201385  1
  H+  H270  1  0.14407474  0.27269245  -0.00565414  1
  H+  H271  1  0.09627300  0.66545271  0.02339887  1
  H+  H272  1  0.13245126  0.60231338  0.84220217  1
  H+  H273  1  0.51029273  0.86953733  0.15757605  1
  H+  H274  1  0.33365656  0.41794922  0.38286674  1
  H+  H275  1  0.12598789  0.22735921  0.49500175  1
  H+  H276  1  0.85036909  0.37745714  0.50971196  1
  H+  H277  1  0.14182770  0.10908154  0.51012427  1
  H+  H278  1  0.63715472  0.79205642  0.49846637  1
  H+  H279  1  0.93334358  0.59860871  0.99552518  1
  H+  H280  1  0.73366058  0.61007603  0.35387402  1
  H+  H281  1  0.64485057  0.10598375  0.66228618  1
  H+  H282  1  0.86511660  0.89099617  0.66957583  1
  H+  H283  1  0.73747140  0.02425840  0.93027267  1
  H+  H284  1  0.38884979  0.35035356  0.50463889  1
  H+  H285  1  0.66437805  0.32571680  0.94638372  1
  H+  H286  1  0.35304167  0.22561910  0.16689858  1
  H+  H287  1  0.88507186  0.89624208  0.49363341  1
  H+  H288  1  0.81601185  0.65360184  0.10978387  1
  H+  H289  1  0.18404238  0.57531560  0.88724330  1
  H+  H290  1  0.25883310  0.58669131  0.47240415  1
  H+  H291  1  0.40262420  0.09642593  0.89999310  1
  H+  H292  1  0.67338260  0.58798267  0.89048464  1
  H+  H293  1  0.91988699  0.08994154  0.59559799  1
  H+  H294  1  0.73000823  0.37248581  0.81501573  1
  H+  H295  1  0.40501460  0.07619159  0.56894289  1
  H+  H296  1  0.58112067  0.15262391  0.73075121  1
  H+  H297  1  0.64065854  0.07324648  0.30478811  1
  H+  H298  1  0.39248517  0.60680064  0.31853051  1
  H+  H299  1  0.32989160  0.91179978  0.43479972  1
  H+  H300  1  0.13596819  0.74724989  0.17728070  1
  H+  H301  1  0.79467117  0.16131532  0.15405580  1
  H+  H302  1  0.57946097  0.40203817  0.09565420  1
  H+  H303  1  0.36206487  1.00731800  0.00905272  1
  H+  H304  1  0.66882266  0.84777433  0.55796589  1
  H+  H305  1  0.16436776  0.55876100  0.54403915  1
  H+  H306  1  0.67217045  0.58847827  0.59730453  1
  H+  H307  1  0.51204473  0.14451865  0.84248262  1
  H+  H308  1  0.58388343  0.67285998  0.06101541  1
  H+  H309  1  0.83315905  0.92142181  0.72646591  1
  H+  H310  1  0.33919924  0.39387283  0.77075900  1
  H+  H311  1  0.14570655  1.02814430  0.82600952  1
  H+  H312  1  0.84730325  0.68324940  0.76810033  1
  H+  H313  1  0.90290315  0.03690851  0.50681718  1
  H+  H314  1  0.57208511  0.16102535  0.11674462  1
  H+  H315  1  0.89321470  0.78857182  0.84260051  1
  H+  H316  1  0.07586905  0.91979408  0.07238143  1
  H+  H317  1  0.66112704  0.33733561  0.27261532  1
  H+  H318  1  0.08330475  0.90762670  0.44229151  1
  H+  H319  1  0.12500587  0.38431804  0.83390720  1
  H+  H320  1  0.85573612  0.87839284  0.33809916  1
  H+  H321  1  0.46069261  0.40585168  0.25905447  1
  H+  H322  1  0.16809362  0.33394061  0.56225068  1
  H+  H323  1  0.84712539  0.29159326  0.37011377  1
  H+  H324  1  0.33236564  0.92149568  0.73229014  1
  H+  H325  1  0.31164242  0.68933487  0.73321469  1
  H+  H326  1  0.55278400  0.86621793  0.06496530  1
  H+  H327  1  0.05794642  0.62022526  0.12632999  1
  H+  H328  1  0.90096826  0.56320217  0.27898112  1
  H+  H329  1  0.63199544  0.84996948  0.17587758  1
  H+  H330  1  0.01355783  0.14552115  0.16690567  1
  H+  H331  1  0.17834467  0.07878318  0.59266561  1
  H+  H332  1  0.41007593  0.08429186  0.27449177  1
  H+  H333  1  0.17493740  0.33503399  0.23066133  1
  H+  H334  1  0.18926927  0.70810778  0.04982168  1
  H+  H335  1  0.76536504  0.35872721  0.32831654  1
  H+  H336  1  0.08977736  0.42173452  0.72565626  1
  H+  H337  1  0.91119692  0.32783741  0.56568938  1
  H+  H338  1  0.07582424  0.17376127  0.06783356  1
  H+  H339  1  0.08251174  0.65666860  0.43192290  1
  H+  H340  1  0.36092961  0.70861695  -0.00027528  1
  H+  H341  1  0.32946910  0.62432496  0.41877606  1
  H+  H342  1  0.90895609  0.82207765  0.27342595  1
  H+  H343  1  0.83996751  0.66512500  0.41154692  1
  H+  H344  1  0.42425129  0.84321458  0.59119576  1
  H+  H345  1  0.32644406  0.17891861  0.07082035  1
  H+  H346  1  0.63772360  0.26216813  0.53474155  1
  H+  H347  1  0.15733284  0.82359264  0.26808183  1
  H+  H348  1  0.17884135  0.85942395  0.93358648  1
  H+  H349  1  0.67754733  0.56697088  0.29723867  1
  H+  H350  1  0.42466391  0.29617566  0.28503880  1
  H+  H351  1  0.26859669  0.13901441  0.82038819  1
  H+  H352  1  0.59891861  0.67717122  0.72787268  1
  H+  H353  1  0.67203975  0.83502673  0.92787574  1
  H+  H354  1  0.85029107  0.33659190  0.26936487  1
  H+  H355  1  0.09440497  0.16505802  0.43743870  1
  H+  H356  1  0.28813658  0.37140268  0.00662194  1
  H+  H357  1  0.68012519  0.08048591  0.86526319  1
  H+  H358  1  0.90382787  0.38053909  0.83277346  1
  H+  H359  1  0.83387471  0.91917161  0.10408675  1
  H+  H360  1  0.63551398  0.36435839  0.67375757  1
  H+  H361  1  0.83257189  0.19186542  0.04447485  1
  H+  H362  1  0.13623976  0.44131714  0.09078001  1
  H+  H363  1  0.33161321  0.66346045  0.09947056  1
  H+  H364  1  0.93896679  0.88125689  0.91526076  1
  H+  H365  1  0.36488956  0.46395432  0.68569194  1
  H+  H366  1  0.91015131  0.08053341  0.27986637  1
  H+  H367  1  0.01905782  0.12998767  0.34405681  1
  H+  H368  1  0.60433751  0.94951474  0.13962336  1
  H+  H369  1  0.41131302  0.82588966  0.26780960  1
  H+  H370  1  0.84809609  0.42519574  0.76156243  1
  H+  H371  1  0.83936958  0.91626841  0.43927537  1
  H+  H372  1  0.08959958  0.92164279  0.72578967  1
  H+  H373  1  0.90019241  0.57700895  0.89657103  1
  H+  H374  1  0.92013891  0.58448456  0.56492548  1
  H+  H375  1  0.34680232  0.24152808  0.01376350  1
  H+  H376  1  0.40710056  0.82324255  0.88060769  1
  H+  H377  1  0.91370195  0.08583357  0.90240501  1
  H+  H378  1  0.10067142  0.67880441  0.79255231  1
  H+  H379  1  0.41456664  0.32686132  0.60162606  1
  H+  H380  1  0.93476834  0.35621517  0.89507667  1
  H+  H381  1  0.43300208  0.58036218  0.89628053  1
  H+  H382  1  0.62307941  0.55851749  0.20950052  1
  H+  H383  1  0.66591475  0.81942847  0.26327271  1
  O2-  O384  1  0.07247432  0.17261683  0.14916630  1
  O2-  O385  1  0.09990464  0.16577325  0.48217284  1
  O2-  O386  1  0.08272474  0.16213339  0.82234750  1
  O2-  O387  1  0.16866520  0.45593000  0.13124114  1
  O2-  O388  1  0.05837906  0.38951713  0.46980708  1
  O2-  O389  1  0.09100271  0.41441566  0.81597937  1
  O2-  O390  1  0.07244001  0.63855715  0.16846670  1
  O2-  O391  1  0.08479294  0.65518464  0.47739319  1
  O2-  O392  1  0.09005603  0.66975930  0.83715033  1
  O2-  O393  1  0.07768727  0.93457800  0.15500781  1
  O2-  O394  1  0.08610992  0.90721465  0.48734777  1
  O2-  O395  1  0.08603345  0.91820372  0.80268213  1
  O2-  O396  1  0.32179352  0.16736131  0.15063343  1
  O2-  O397  1  0.32776583  0.15568465  0.48219201  1
  O2-  O398  1  0.33261256  0.17488678  0.80605180  1
  O2-  O399  1  0.34463751  0.41976680  0.15006245  1
  O2-  O400  1  0.31633332  0.44877257  0.45725697  1
  O2-  O401  1  0.34369159  0.40068632  0.81703374  1
  O2-  O402  1  0.33335652  0.67046427  0.14454105  1
  O2-  O403  1  0.31538968  0.59437324  0.45925502  1
  O2-  O404  1  0.29282484  0.70545211  0.77207442  1
  O2-  O405  1  0.32956782  0.92029796  0.14008033  1
  O2-  O406  1  0.33297970  0.91466709  0.47996059  1
  O2-  O407  1  0.32894846  0.92721310  0.81381234  1
  O2-  O408  1  0.57043209  0.16728398  0.16165706  1
  O2-  O409  1  0.54012940  0.13997734  0.43332375  1
  O2-  O410  1  0.57763769  0.17281899  0.84080997  1
  O2-  O411  1  0.59219229  0.40891322  0.14151603  1
  O2-  O412  1  0.57721951  0.40344419  0.48766360  1
  O2-  O413  1  0.57283262  0.43600399  0.80452375  1
  O2-  O414  1  0.57988077  0.67050709  0.13675551  1
  O2-  O415  1  0.58977570  0.67318311  0.48284915  1
  O2-  O416  1  0.60150331  0.68067194  0.80746270  1
  O2-  O417  1  0.57004989  0.88694037  0.13956462  1
  O2-  O418  1  0.61788083  0.95987542  0.47844250  1
  O2-  O419  1  0.58005228  0.91059136  0.79931611  1
  O2-  O420  1  0.79567643  0.15145896  0.19755714  1
  O2-  O421  1  0.80551399  0.15992849  0.48514726  1
  O2-  O422  1  0.84563910  0.17806368  0.80758328  1
  O2-  O423  1  0.81964343  0.40562583  0.15178508  1
  O2-  O424  1  0.81474868  0.40708625  0.51136809  1
  O2-  O425  1  0.84453180  0.42315429  0.80717612  1
  O2-  O426  1  0.81997744  0.65724658  0.15458025  1
  O2-  O427  1  0.83343780  0.66465761  0.48515616  1
  O2-  O428  1  0.84962933  0.68407085  0.81385544  1
  O2-  O429  1  0.83290166  0.91752645  0.14929833  1
  O2-  O430  1  0.87889690  0.94198598  0.47335565  1
  O2-  O431  1  0.83580435  0.92184175  0.80897968  1
  O2-  O432  1  0.15913350  0.09902907  0.18914463  1
  O2-  O433  1  0.16990521  0.07584305  0.52520088  1
  O2-  O434  1  0.17906329  0.08660649  0.84333950  1
  O2-  O435  1  0.17911698  0.33877852  0.18416886  1
  O2-  O436  1  0.16138717  0.33037860  0.51634452  1
  O2-  O437  1  0.17120659  0.34250521  0.85704030  1
  O2-  O438  1  0.17468594  0.57919686  0.19480281  1
  O2-  O439  1  0.15852886  0.55819455  0.49939252  1
  O2-  O440  1  0.16725378  0.57251552  0.84324792  1
  O2-  O441  1  0.16312125  0.81129475  0.18056807  1
  O2-  O442  1  0.16626252  0.81954485  0.52533128  1
  O2-  O443  1  0.17117779  0.84475366  0.86344267  1
  O2-  O444  1  0.39933199  0.07725606  0.19334343  1
  O2-  O445  1  0.40046826  0.07677419  0.52411575  1
  O2-  O446  1  0.41040280  0.09744309  0.85543708  1
  O2-  O447  1  0.47683301  0.43543060  0.21828033  1
  O2-  O448  1  0.41726071  0.32234874  0.52364214  1
  O2-  O449  1  0.38456323  0.35051510  0.83708259  1
  O2-  O450  1  0.41992465  0.59177062  0.18058993  1
  O2-  O451  1  0.44643105  0.64425742  0.54078852  1
  O2-  O452  1  0.43941676  0.58194375  0.85157194  1
  O2-  O453  1  0.41811789  0.83527655  0.18054546  1
  O2-  O454  1  0.44293581  0.86102831  0.52047801  1
  O2-  O455  1  0.41342441  0.83944978  0.83719054  1
  O2-  O456  1  0.62844127  0.07393283  0.22584196  1
  O2-  O457  1  0.71668142  0.14013792  0.49473093  1
  O2-  O458  1  0.66755972  0.08496077  0.82207113  1
  O2-  O459  1  0.65969617  0.33355276  0.18469603  1
  O2-  O460  1  0.64158737  0.28868717  0.49531726  1
  O2-  O461  1  0.66692130  0.34642099  0.80836158  1
  O2-  O462  1  0.65075569  0.57120192  0.16961270  1
  O2-  O463  1  0.66550529  0.58092071  0.51925153  1
  O2-  O464  1  0.68172362  0.59353985  0.84619350  1
  O2-  O465  1  0.66618656  0.82388709  0.19071131  1
  O2-  O466  1  0.66375255  0.85181944  0.51327004  1
  O2-  O467  1  0.67016664  0.84057542  0.85252345  1
  O2-  O468  1  0.90976387  0.08204452  0.19893045  1
  O2-  O469  1  0.92934331  0.09539162  0.52499739  1
  O2-  O470  1  0.91212071  0.08283884  0.85722093  1
  O2-  O471  1  0.86443164  0.31686087  0.22940621  1
  O2-  O472  1  0.90176445  0.32492985  0.52074322  1
  O2-  O473  1  0.93542163  0.35162306  0.84965272  1
  O2-  O474  1  0.89784034  0.56673302  0.19808641  1
  O2-  O475  1  0.91857286  0.58189479  0.51973827  1
  O2-  O476  1  0.91575986  0.58653177  0.85306415  1
  O2-  O477  1  0.90523203  0.82456227  0.19132453  1
  O2-  O478  1  0.91954744  0.82962633  0.52836719  1
  O2-  O479  1  0.92262086  0.85123032  0.85325891  1
  O2-  O480  1  0.19143732  0.07163582  0.30757935  1
  O2-  O481  1  0.18144242  0.07825762  0.64006390  1
  O2-  O482  1  0.15721722  0.09275956  0.99181418  1
  O2-  O483  1  0.17148337  0.32502867  0.30245405  1
  O2-  O484  1  0.17172060  0.33350795  0.63615282  1
  O2-  O485  1  0.18171976  0.33320550  0.97909645  1
  O2-  O486  1  0.17089583  0.57430435  0.31129402  1
  O2-  O487  1  0.16878862  0.57984793  0.62721351  1
  O2-  O488  1  0.18873131  0.57393337  0.96197566  1
  O2-  O489  1  0.15781608  0.82182691  0.31277116  1
  O2-  O490  1  0.17217514  0.83439157  0.64667316  1
  O2-  O491  1  0.18197772  0.86073049  0.98052111  1
  O2-  O492  1  0.41413094  0.08376546  0.31956024  1
  O2-  O493  1  0.41617840  0.08376826  0.64884686  1
  O2-  O494  1  0.40349927  0.09606502  0.98597402  1
  O2-  O495  1  0.43003498  0.33262805  0.31940410  1
  O2-  O496  1  0.41704410  0.32937286  0.64692347  1
  O2-  O497  1  0.38320235  0.34893046  0.99475233  1
  O2-  O498  1  0.42612141  0.57999946  0.30198503  1
  O2-  O499  1  0.41851013  0.58144464  0.68086459  1
  O2-  O500  1  0.41694114  0.57114822  0.98001145  1
  O2-  O501  1  0.40968528  0.81885828  0.31210528  1
  O2-  O502  1  0.40947657  0.82703246  0.63566260  1
  O2-  O503  1  0.39598269  0.80952870  0.96516399  1
  O2-  O504  1  0.65128667  0.08904585  0.34838155  1
  O2-  O505  1  0.67595071  0.07569263  0.65040433  1
  O2-  O506  1  0.72077712  0.06791656  0.93619356  1
  O2-  O507  1  0.67210582  0.33600206  0.31602259  1
  O2-  O508  1  0.66634993  0.33278478  0.68511838  1
  O2-  O509  1  0.66092805  0.32444806  0.99071739  1
  O2-  O510  1  0.67148214  0.57826273  0.33963369  1
  O2-  O511  1  0.67021461  0.58802546  0.64282437  1
  O2-  O512  1  0.61311194  0.55322539  0.96865491  1
  O2-  O513  1  0.66887073  0.81945795  0.30964854  1
  O2-  O514  1  0.67096339  0.83715500  0.63775610  1
  O2-  O515  1  0.67403039  0.83286262  0.97381236  1
  O2-  O516  1  0.91022604  0.07728613  0.32504931  1
  O2-  O517  1  0.91167005  0.08667856  0.64187437  1
  O2-  O518  1  0.91932470  0.08750970  0.98235651  1
  O2-  O519  1  0.84786277  0.34505083  0.38297231  1
  O2-  O520  1  0.91364724  0.33238210  0.64334102  1
  O2-  O521  1  0.94192522  0.36173446  0.97346026  1
  O2-  O522  1  0.90746463  0.56201117  0.32374232  1
  O2-  O523  1  0.91328137  0.58319501  0.64572700  1
  O2-  O524  1  0.87664026  0.55851642  0.97932634  1
  O2-  O525  1  0.91131280  0.82577398  0.31858549  1
  O2-  O526  1  0.91796992  0.83563544  0.64944705  1
  O2-  O527  1  0.95398822  0.91292397  0.95817597  1
  O2-  O528  1  0.07852459  0.17337638  0.02272159  1
  O2-  O529  1  0.08220174  0.16151640  0.35334308  1
  O2-  O530  1  0.03145083  0.06126364  0.71325184  1
  O2-  O531  1  0.10468646  0.42489331  0.02234693  1
  O2-  O532  1  0.09188975  0.41553846  0.34635232  1
  O2-  O533  1  0.08224518  0.41766856  0.68140404  1
  O2-  O534  1  0.15675862  0.70103484  0.01249944  1
  O2-  O535  1  0.08129127  0.65255365  0.35325843  1
  O2-  O536  1  0.15286640  0.69863937  0.72247517  1
  O2-  O537  1  0.07657550  0.91971214  0.02732531  1
  O2-  O538  1  0.07694631  0.90521482  0.36027525  1
  O2-  O539  1  0.09059894  0.92193956  0.68020081  1
  O2-  O540  1  0.32859156  0.18121492  0.02566127  1
  O2-  O541  1  0.33773820  0.16923540  0.36352220  1
  O2-  O542  1  0.33323753  0.16334962  0.68542079  1
  O2-  O543  1  0.34851844  0.40017971  0.02347440  1
  O2-  O544  1  0.33701159  0.40979739  0.33851505  1
  O2-  O545  1  0.33263379  0.40217020  0.69653386  1
  O2-  O546  1  0.33488833  0.65149785  0.01988317  1
  O2-  O547  1  0.34016425  0.65477597  0.34574569  1
  O2-  O548  1  0.32600009  0.67218502  0.66193785  1
  O2-  O549  1  0.33120786  0.94196895  0.02244494  1
  O2-  O550  1  0.32928378  0.90939955  0.35497198  1
  O2-  O551  1  0.33680155  0.92094847  0.68730393  1
  O2-  O552  1  0.56611891  0.16541436  0.03653917  1
  O2-  O553  1  0.56449604  0.15891033  0.36839413  1
  O2-  O554  1  0.58702263  0.15919007  0.68675565  1
  O2-  O555  1  0.56492599  0.40089736  0.02652334  1
  O2-  O556  1  0.57874403  0.39898492  0.36838224  1
  O2-  O557  1  0.58323325  0.42286231  0.68292591  1
  O2-  O558  1  0.58329449  0.66814318  0.01543841  1
  O2-  O559  1  0.58444143  0.66681119  0.35296486  1
  O2-  O560  1  0.58949934  0.67171900  0.68292652  1
  O2-  O561  1  0.55237791  0.87203557  0.01938420  1
  O2-  O562  1  0.61003535  0.94696775  0.41184079  1
  O2-  O563  1  0.60400488  0.92513562  0.67857556  1
  O2-  O564  1  0.85180087  0.19324331  0.00285392  1
  O2-  O565  1  0.83486381  0.17550657  0.36500506  1
  O2-  O566  1  0.83966211  0.16979100  0.67998457  1
  O2-  O567  1  0.82368793  0.40072841  0.02723361  1
  O2-  O568  1  0.83026398  0.37772807  0.32627730  1
  O2-  O569  1  0.84011169  0.42065468  0.68386294  1
  O2-  O570  1  0.78256171  0.62597959  0.02592501  1
  O2-  O571  1  0.83705194  0.66214015  0.36547878  1
  O2-  O572  1  0.83491720  0.67384103  0.69076955  1
  O2-  O573  1  0.83802559  0.92526685  0.02081848  1
  O2-  O574  1  0.81871277  0.90377324  0.34813454  1
  O2-  O575  1  0.82916353  0.91673675  0.68151522  1
