# generated using pymatgen
data_H2O
_symmetry_space_group_name_H-M   'P 1'
_cell_length_a   17.98903958
_cell_length_b   17.99440649
_cell_length_c   21.99676030
_cell_angle_alpha   90.01577305
_cell_angle_beta   89.99409978
_cell_angle_gamma   119.99272382
_symmetry_Int_Tables_number   1
_chemical_formula_structural   H2O
_chemical_formula_sum   'H384 O192'
_cell_volume   6166.89677453
_cell_formula_units_Z   192
loop_
 _symmetry_equiv_pos_site_id
 _symmetry_equiv_pos_as_xyz
  1  'x, y, z'
loop_
 _atom_type_symbol
 _atom_type_oxidation_number
  H+  1.0
  O2-  -2.0
loop_
 _atom_site_type_symbol
 _atom_site_label
 _atom_site_symmetry_multiplicity
 _atom_site_fract_x
 _atom_site_fract_y
 _atom_site_fract_z
 _atom_site_occupancy
  H+  H0  1  0.10652119  0.63347566  0.83237736  1
  H+  H1  1  0.60623583  0.73478900  0.49835151  1
  H+  H2  1  0.98862861  0.39324953  0.65615056  1
  H+  H3  1  0.85756958  0.21849496  0.80450478  1
  H+  H4  1  0.60466195  0.89063106  0.33440557  1
  H+  H5  1  0.89555558  0.24162975  0.15968754  1
  H+  H6  1  0.67260273  0.84322220  0.59714968  1
  H+  H7  1  0.37056876  0.34595388  0.17017581  1
  H+  H8  1  0.62186588  0.55401453  0.44384921  1
  H+  H9  1  0.35568913  0.62309817  0.00299436  1
  H+  H10  1  0.42517644  0.03630966  0.18425749  1
  H+  H11  1  0.13816094  1.03023935  0.85420580  1
  H+  H12  1  0.05187099  0.36267764  0.17985698  1
  H+  H13  1  0.84090600  0.18629463  0.65395927  1
  H+  H14  1  0.86071262  0.47259482  0.83066349  1
  H+  H15  1  0.92887317  0.86523563  0.77769732  1
  H+  H16  1  0.12532621  0.26844890  0.32599666  1
  H+  H17  1  0.11475987  0.08350214  0.51172483  1
  H+  H18  1  0.38529012  0.51589644  0.99817260  1
  H+  H19  1  0.52598849  0.63353222  0.01001089  1
  H+  H20  1  0.63378638  0.03217917  0.18882997  1
  H+  H21  1  0.58571034  0.91791555  0.76301458  1
  H+  H22  1  0.53421252  0.13169706  0.47929763  1
  H+  H23  1  0.62232365  0.58811031  0.32609937  1
  H+  H24  1  0.63136504  0.77035452  -0.00225465  1
  H+  H25  1  0.96702986  0.84228090  0.33116749  1
  H+  H26  1  0.28371428  0.63819338  0.15176200  1
  H+  H27  1  0.60997875  0.46710440  0.00856979  1
  H+  H28  1  0.52181925  0.13311409  0.66875048  1
  H+  H29  1  0.84954976  0.71397626  0.33032596  1
  H+  H30  1  0.47636874  0.11624967  0.84443205  1
  H+  H31  1  0.52994700  0.13763381  -0.00250982  1
  H+  H32  1  0.88159479  0.02554791  0.84185065  1
  H+  H33  1  0.11440314  0.25587118  0.66474590  1
  H+  H34  1  0.26249838  0.90685729  0.47572171  1
  H+  H35  1  0.61659554  0.64243742  0.16079385  1
  H+  H36  1  0.26825841  0.14341545  0.01757115  1
  H+  H37  1  0.37367536  0.46407001  0.83616299  1
  H+  H38  1  0.57335021  0.54342836  0.88104869  1
  H+  H39  1  0.63548790  0.02265394  0.83518268  1
  H+  H40  1  0.36066126  0.91065775  0.81509926  1
  H+  H41  1  0.07040291  0.65139032  0.73191865  1
  H+  H42  1  0.91993869  0.07895470  0.56441702  1
  H+  H43  1  0.67637515  0.33607933  0.91309811  1
  H+  H44  1  0.90466718  0.04281958  0.31810512  1
  H+  H45  1  0.61720809  0.61244610  0.49280372  1
  H+  H46  1  0.21425502  0.35037571  0.32164742  1
  H+  H47  1  0.13946795  0.77537657  0.84806108  1
  H+  H48  1  0.01762216  0.37589325  0.81419430  1
  H+  H49  1  0.25088818  0.36571219  0.16057700  1
  H+  H50  1  0.87766464  0.37093636  0.34038658  1
  H+  H51  1  0.14812911  0.53488450  0.49636565  1
  H+  H52  1  0.70471729  0.84284477  0.34128845  1
  H+  H53  1  0.88720687  0.86562291  0.67406743  1
  H+  H54  1  0.22594825  0.86722842  0.84468597  1
  H+  H55  1  0.64799384  1.02840980  0.50075405  1
  H+  H56  1  0.13864531  1.02717213  0.67051643  1
  H+  H57  1  0.10867617  0.90138524  0.16343544  1
  H+  H58  1  0.72849009  0.60774947  1.00584751  1
  H+  H59  1  0.13330902  0.60933472  0.30977112  1
  H+  H60  1  0.14493414  0.31289622  0.59509709  1
  H+  H61  1  0.76819992  0.88559327  0.67653762  1
  H+  H62  1  0.42172891  0.71953644  0.81644380  1
  H+  H63  1  1.02325051  0.13171175  0.13839593  1
  H+  H64  1  1.01400104  0.38701891  1.03930662  1
  H+  H65  1  0.61769646  0.64043237  0.66877500  1
  H+  H66  1  0.16349351  0.87594844  0.54034552  1
  H+  H67  1  0.66309778  0.57543311  0.60167870  1
  H+  H68  1  0.41293024  0.59538195  0.84263503  1
  H+  H69  1  1.00846637  0.66384594  0.47371332  1
  H+  H70  1  0.35735101  0.13314659  0.83470012  1
  H+  H71  1  0.84852288  0.66859959  0.75728735  1
  H+  H72  1  0.04033979  0.80469558  0.40665486  1
  H+  H73  1  0.37983696  0.63720239  0.15129411  1
  H+  H74  1  0.22343366  0.61359806  0.30342212  1
  H+  H75  1  0.12158209  0.89539392  0.01405342  1
  H+  H76  1  0.12420071  0.25252525  0.50875023  1
  H+  H77  1  0.57215695  0.28390987  0.31778553  1
  H+  H78  1  0.48181241  0.85906432  0.67118515  1
  H+  H79  1  0.85973475  0.88712613  1.01422462  1
  H+  H80  1  0.86630859  0.47568859  0.34200408  1
  H+  H81  1  0.76194566  0.62160217  0.32703412  1
  H+  H82  1  0.61824587  0.50995577  0.16892605  1
  H+  H83  1  0.11003200  0.38151174  0.82209886  1
  H+  H84  1  0.08389612  0.67954263  0.19770391  1
  H+  H85  1  0.40967594  0.24854205  0.65742031  1
  H+  H86  1  0.02854874  0.89454907  0.68698012  1
  H+  H87  1  0.49716811  0.34063143  0.65711845  1
  H+  H88  1  0.35273330  0.35388088  0.66254139  1
  H+  H89  1  0.11260057  0.50358736  0.84657839  1
  H+  H90  1  0.34729255  0.89629094  0.47818289  1
  H+  H91  1  0.89682689  0.03444505  0.17073183  1
  H+  H92  1  0.98483145  0.87000260  1.00309137  1
  H+  H93  1  0.36410112  0.23488405  1.00976169  1
  H+  H94  1  0.38958809  0.02540661  1.00544977  1
  H+  H95  1  0.65786169  0.07602053  0.59376853  1
  H+  H96  1  0.23821127  0.87688747  0.32252027  1
  H+  H97  1  0.72118933  0.86029327  0.99849123  1
  H+  H98  1  0.88505009  0.60791345  0.31986752  1
  H+  H99  1  1.03019293  0.14317204  0.33939243  1
  H+  H100  1  0.92727389  0.77399966  0.47325897  1
  H+  H101  1  0.86571006  0.98284337  0.48900789  1
  H+  H102  1  0.98527674  0.37051686  0.49761560  1
  H+  H103  1  1.01919592  0.95390161  0.54315999  1
  H+  H104  1  0.36526795  0.80333714  0.78368406  1
  H+  H105  1  0.62867350  0.39029740  0.67345887  1
  H+  H106  1  0.85493818  0.61400785  0.16717265  1
  H+  H107  1  0.35218481  0.46091809  0.49772461  1
  H+  H108  1  0.23385200  0.11241732  0.18534751  1
  H+  H109  1  0.81083238  0.91855921  0.29669845  1
  H+  H110  1  0.85654858  0.47318095  0.01666657  1
  H+  H111  1  0.72582049  0.10926853  0.83216711  1
  H+  H112  1  0.60275390  0.15505878  0.42262671  1
  H+  H113  1  0.88783753  0.61017058  1.00311496  1
  H+  H114  1  0.64937033  0.56129621  0.26499417  1
  H+  H115  1  0.13435209  0.61549220  0.50511469  1
  H+  H116  1  0.38602651  0.26429124  0.84088603  1
  H+  H117  1  0.62036108  0.73522924  0.16187589  1
  H+  H118  1  0.13988229  0.11622046  0.66635110  1
  H+  H119  1  0.19547785  0.58668994  0.86812521  1
  H+  H120  1  0.39204730  0.03198587  0.49540859  1
  H+  H121  1  0.96010877  0.58764006  0.16270602  1
  H+  H122  1  0.33896904  0.17590878  0.08223807  1
  H+  H123  1  0.10149557  0.22375753  0.04403546  1
  H+  H124  1  0.88971943  1.01189504  0.66133969  1
  H+  H125  1  0.36646832  0.74625605  0.30610361  1
  H+  H126  1  0.33082364  0.15553660  0.73622055  1
  H+  H127  1  0.32765364  0.88477736  0.18619191  1
  H+  H128  1  0.22264932  0.12134081  0.34408362  1
  H+  H129  1  0.33420659  0.65274423  0.84282249  1
  H+  H130  1  0.36180728  0.71926055  0.68128094  1
  H+  H131  1  0.11867967  0.35442151  0.65850472  1
  H+  H132  1  0.50352819  0.60660181  0.84261189  1
  H+  H133  1  0.73094697  0.36154258  0.99282149  1
  H+  H134  1  0.63805442  0.36471883  0.84487647  1
  H+  H135  1  0.34310241  0.49145755  0.68927422  1
  H+  H136  1  0.06273486  0.41852056  0.10128396  1
  H+  H137  1  0.61416431  0.88514774  0.66991427  1
  H+  H138  1  0.63963602  0.77820874  0.65409920  1
  H+  H139  1  0.14466342  0.76508654  0.16485873  1
  H+  H140  1  0.85793298  0.97484699  0.01396133  1
  H+  H141  1  0.61973644  0.44399021  0.33984755  1
  H+  H142  1  0.39131435  1.02480954  0.65115130  1
  H+  H143  1  0.78047636  0.14038531  0.49453174  1
  H+  H144  1  0.34627635  0.37381607  0.00412067  1
  H+  H145  1  0.61889072  0.88545897  0.00679024  1
  H+  H146  1  0.90732171  0.75719969  0.50373413  1
  H+  H147  1  0.87863054  0.09290281  0.65742210  1
  H+  H148  1  0.35214151  0.17954577  0.34787637  1
  H+  H149  1  0.60777605  0.37757849  0.00340144  1
  H+  H150  1  0.86558815  0.43599542  0.67306528  1
  H+  H151  1  0.03687920  0.89768928  0.83556001  1
  H+  H152  1  0.60969751  0.46348258  0.83570981  1
  H+  H153  1  0.88835033  0.33117092  0.65555766  1
  H+  H154  1  0.62475026  0.73889663  0.82689716  1
  H+  H155  1  0.88620596  0.12074495  0.83001737  1
  H+  H156  1  0.14243478  0.05852971  0.57264563  1
  H+  H157  1  0.10898755  0.63521829  1.02178876  1
  H+  H158  1  0.38854972  0.35408687  0.83939728  1
  H+  H159  1  0.61706818  0.91571610  0.17590053  1
  H+  H160  1  0.12307730  0.89264914  0.84303266  1
  H+  H161  1  0.63212121  0.86808050  0.84372564  1
  H+  H162  1  0.47090188  0.35478222  0.99337608  1
  H+  H163  1  0.72928193  0.11185385  -0.00790465  1
  H+  H164  1  0.72165592  0.87284971  0.18008946  1
  H+  H165  1  0.27377563  0.13091883  0.67574958  1
  H+  H166  1  0.36142105  0.22162008  0.49961146  1
  H+  H167  1  0.86986382  0.73414616  0.66656647  1
  H+  H168  1  0.61829972  0.75545298  0.33149463  1
  H+  H169  1  0.85582166  0.22576430  1.01566174  1
  H+  H170  1  0.25954180  0.37823361  1.01055447  1
  H+  H171  1  0.60744292  0.97165404  0.66823311  1
  H+  H172  1  0.88942465  0.60639443  0.84815388  1
  H+  H173  1  -0.01824133  0.12074266  0.83892366  1
  H+  H174  1  0.54530653  0.14868407  0.14345135  1
  H+  H175  1  0.64529976  0.36984695  0.18401772  1
  H+  H176  1  0.23139271  0.92193076  0.18042006  1
  H+  H177  1  0.31762180  0.37243800  0.40363201  1
  H+  H178  1  0.38900795  0.80244318  0.52014124  1
  H+  H179  1  0.97305759  0.36983731  0.33221333  1
  H+  H180  1  0.02286542  0.13318491  0.49289640  1
  H+  H181  1  0.83712780  0.66722616  0.07580388  1
  H+  H182  1  0.46342583  0.15874362  0.30954575  1
  H+  H183  1  0.40477963  0.38262596  0.31785675  1
  H+  H184  1  0.87153265  0.59643335  0.49851112  1
  H+  H185  1  0.91906891  0.90316578  0.52438537  1
  H+  H186  1  0.38109995  0.61786481  0.30866509  1
  H+  H187  1  0.88233364  0.15690922  0.33636887  1
  H+  H188  1  0.86455365  0.38581623  0.49289015  1
  H+  H189  1  0.12142399  0.51534806  0.02235544  1
  H+  H190  1  0.83803362  0.68295647  0.19742803  1
  H+  H191  1  0.14292178  0.88790177  0.64354550  1
  H+  H192  1  0.89657842  0.63056894  0.64663713  1
  H+  H193  1  0.10329063  0.62105275  0.67437187  1
  H+  H194  1  0.40498815  0.88777215  1.00753690  1
  H+  H195  1  0.12975199  0.34643724  0.50836747  1
  H+  H196  1  0.35896673  0.88623200  0.67370109  1
  H+  H197  1  0.08828807  0.92772558  0.07078806  1
  H+  H198  1  0.16853515  0.63712388  0.15987843  1
  H+  H199  1  0.61776562  0.13349892  0.99163141  1
  H+  H200  1  0.62726927  0.10474046  0.65545766  1
  H+  H201  1  0.87609500  0.35901056  0.81794397  1
  H+  H202  1  0.61220556  0.13420937  0.82745913  1
  H+  H203  1  0.64327220  0.87385154  0.50178337  1
  H+  H204  1  0.28223539  0.88957512  0.02743837  1
  H+  H205  1  0.49267995  0.38084008  0.31648495  1
  H+  H206  1  0.10572064  0.38521311  0.32977601  1
  H+  H207  1  0.52018230  0.89151600  0.81776798  1
  H+  H208  1  0.98738017  0.62154938  0.65204411  1
  H+  H209  1  0.22760110  0.88499373  0.63395685  1
  H+  H210  1  0.26052018  0.39994920  0.68696733  1
  H+  H211  1  0.76679274  0.90023027  0.84038099  1
  H+  H212  1  0.53227271  0.90218491  0.48623212  1
  H+  H213  1  0.01549977  0.13037652  0.67776956  1
  H+  H214  1  0.73021698  0.86957848  0.50264683  1
  H+  H215  1  0.26944597  0.13669819  0.83513809  1
  H+  H216  1  0.11965160  0.72671526  0.32362444  1
  H+  H217  1  0.02098054  0.63523959  0.83414859  1
  H+  H218  1  0.73421634  0.36926735  0.84094715  1
  H+  H219  1  0.86110109  0.89761243  0.16570423  1
  H+  H220  1  0.97608790  0.60992078  1.00490278  1
  H+  H221  1  0.10988674  0.47695294  0.32607512  1
  H+  H222  1  0.35481675  -0.00624523  0.82461504  1
  H+  H223  1  0.87046308  0.38140787  0.15890882  1
  H+  H224  1  0.39235569  0.61440805  0.65927060  1
  H+  H225  1  0.13832056  0.11835159  1.01690541  1
  H+  H226  1  0.50925400  0.62267485  0.33971241  1
  H+  H227  1  0.91478397  0.57507199  0.90929618  1
  H+  H228  1  0.26739001  0.36911136  0.50312033  1
  H+  H229  1  0.37148590  0.23339882  0.16153314  1
  H+  H230  1  0.74826282  0.10634452  0.66263372  1
  H+  H231  1  0.90006906  0.79896903  0.16115043  1
  H+  H232  1  0.86731360  0.72672517  1.01705650  1
  H+  H233  1  0.39059539  0.11207331  0.65536505  1
  H+  H234  1  0.88327813  0.27180967  0.33815477  1
  H+  H235  1  0.52375470  0.37242434  0.83069357  1
  H+  H236  1  0.12188384  0.47484499  0.66821570  1
  H+  H237  1  0.64251619  0.26709572  0.98413130  1
  H+  H238  1  0.64353558  0.13143919  0.17747030  1
  H+  H239  1  0.87085727  0.88957264  0.32743067  1
  H+  H240  1  0.14361054  0.77809954  1.00708054  1
  H+  H241  1  0.17862817  0.83786254  0.94875496  1
  H+  H242  1  0.12025335  0.92107321  0.44509391  1
  H+  H243  1  0.48014935  0.61141694  0.66105999  1
  H+  H244  1  0.85639445  0.89906078  0.83291575  1
  H+  H245  1  0.87041931  0.22882986  0.49501937  1
  H+  H246  1  0.53038524  0.89901500  1.00853862  1
  H+  H247  1  0.76353285  0.39073579  0.67541648  1
  H+  H248  1  0.11720408  0.36158369  1.03515865  1
  H+  H249  1  0.14068959  0.02709232  0.35055486  1
  H+  H250  1  0.62865382  0.98525484  0.00250097  1
  H+  H251  1  0.59603198  0.20578047  0.31975602  1
  H+  H252  1  0.85901263  0.13834586  1.01493121  1
  H+  H253  1  0.08468276  0.67554911  0.07739062  1
  H+  H254  1  0.63444415  0.65524534  0.82397686  1
  H+  H255  1  0.51643494  0.36448331  0.49469753  1
  H+  H256  1  0.63624425  0.26727580  0.65842961  1
  H+  H257  1  0.36645168  0.13772504  0.48888673  1
  H+  H258  1  0.74978084  0.60127180  0.47600208  1
  H+  H259  1  0.12758800  0.81067588  0.48462340  1
  H+  H260  1  0.38998059  0.87740622  0.31349643  1
  H+  H261  1  0.36839693  0.52377446  0.31195056  1
  H+  H262  1  0.11701404  0.99315227  0.16627049  1
  H+  H263  1  0.64530574  0.11565915  0.50105866  1
  H+  H264  1  0.51729636  0.89208262  0.33015029  1
  H+  H265  1  0.36620855  0.99840582  0.33094747  1
  H+  H266  1  0.23267342  0.36363742  0.83807151  1
  H+  H267  1  0.14193831  0.03210434  1.00674939  1
  H+  H268  1  0.10946452  0.22591556  0.83355970  1
  H+  H269  1  0.30266601  0.29335520  0.36395139  1
  H+  H270  1  0.27819025  0.65688586  0.51166317  1
  H+  H271  1  0.37552711  0.60196863  0.51966152  1
  H+  H272  1  0.97453127  0.11294003  1.02083832  1
  H+  H273  1  0.89103380  0.11626468  0.50770271  1
  H+  H274  1  0.19277196  0.45823913  0.45292876  1
  H+  H275  1  0.65975895  0.57198596  0.91183769  1
  H+  H276  1  0.13962763  0.85462093  0.33196099  1
  H+  H277  1  0.87876191  0.36593270  1.01439580  1
  H+  H278  1  0.26531065  0.62113607  0.00998339  1
  H+  H279  1  0.48646129  0.62657681  0.16344228  1
  H+  H280  1  0.81999688  0.40870454  0.07489774  1
  H+  H281  1  0.39445735  0.39089181  0.67369832  1
  H+  H282  1  0.11108779  0.26657354  0.16522423  1
  H+  H283  1  0.13506426  0.55814113  0.95649707  1
  H+  H284  1  0.11632118  0.13785753  0.34409274  1
  H+  H285  1  0.65980714  0.83688279  0.90480251  1
  H+  H286  1  0.32383024  0.92543960  0.72373998  1
  H+  H287  1  0.60131286  0.03860949  0.33642718  1
  H+  H288  1  0.87385804  0.49708170  0.17044204  1
  H+  H289  1  0.17483617  0.07864035  0.24515849  1
  H+  H290  1  0.82059276  0.91957592  0.73950103  1
  H+  H291  1  0.45049444  0.90130094  0.94452424  1
  H+  H292  1  0.61317256  0.22289647  0.82691660  1
  H+  H293  1  0.42891842  0.31762488  0.56833856  1
  H+  H294  1  0.22647676  0.60662060  0.66078776  1
  H+  H295  1  0.83402061  0.41888364  0.40329632  1
  H+  H296  1  0.77500158  0.37549804  0.17202927  1
  H+  H297  1  0.57562686  0.40301516  0.10146435  1
  H+  H298  1  0.63981937  0.60873985  1.00391444  1
  H+  H299  1  0.38925274  0.35516157  0.51629012  1
  H+  H300  1  0.10154263  0.30734880  0.97674938  1
  H+  H301  1  0.07030918  0.68748551  0.41513852  1
  H+  H302  1  0.71008087  0.59391790  0.17155208  1
  H+  H303  1  0.91299841  0.57090390  0.26379228  1
  H+  H304  1  0.17384676  0.34374557  0.89534908  1
  H+  H305  1  0.60757195  0.16881644  0.08779552  1
  H+  H306  1  0.35744314  0.69244445  0.46748289  1
  H+  H307  1  0.02655603  0.63915103  0.32496331  1
  H+  H308  1  0.41946722  0.58814994  0.21837155  1
  H+  H309  1  0.42272587  0.86117730  0.24774820  1
  H+  H310  1  0.82477506  0.92012626  0.10712566  1
  H+  H311  1  0.92327325  0.83416170  0.26555732  1
  H+  H312  1  0.33437094  0.64857116  0.73316059  1
  H+  H313  1  0.41728488  0.08425594  0.90494200  1
  H+  H314  1  0.56479930  0.65534362  0.40112852  1
  H+  H315  1  0.60382094  0.45225555  0.49251521  1
  H+  H316  1  0.35072101  0.91982625  0.08344904  1
  H+  H317  1  0.51361360  0.37596428  0.15890422  1
  H+  H318  1  0.08714666  0.41424567  0.72803137  1
  H+  H319  1  0.93805188  0.10267965  0.25926941  1
  H+  H320  1  0.10639274  0.13489306  0.83706719  1
  H+  H321  1  0.08652341  0.16654578  0.43483425  1
  H+  H322  1  0.32472768  0.41955044  0.77534203  1
  H+  H323  1  0.41113927  0.56879490  0.57175682  1
  H+  H324  1  0.66705254  0.32374264  0.59764644  1
  H+  H325  1  0.36241437  0.80344364  0.85504810  1
  H+  H326  1  0.31467399  0.39751350  0.10457008  1
  H+  H327  1  0.17562414  0.58318376  0.21330025  1
  H+  H328  1  0.41140050  0.32114385  0.93347812  1
  H+  H329  1  0.59720906  0.41615414  0.73407632  1
  H+  H330  1  0.51481004  0.64436572  0.50222917  1
  H+  H331  1  0.63512781  0.34580934  0.50439242  1
  H+  H332  1  0.42489440  0.89597166  0.55193001  1
  H+  H333  1  0.84776304  0.17474534  0.39921252  1
  H+  H334  1  0.42935666  0.08881146  0.55581568  1
  H+  H335  1  0.16472351  0.09433465  0.91126043  1
  H+  H336  1  0.10793218  0.43179339  0.41752968  1
  H+  H337  1  0.89122511  0.52088775  0.50621026  1
  H+  H338  1  0.31834505  0.17949275  0.41465120  1
  H+  H339  1  0.92587035  0.59612818  0.58146906  1
  H+  H340  1  0.41680650  0.81304240  0.61734917  1
  H+  H341  1  0.93287079  0.09547681  0.95491134  1
  H+  H342  1  0.58941220  0.67138027  0.06717426  1
  H+  H343  1  0.89704084  0.31313721  0.87006056  1
  H+  H344  1  0.84039972  0.92137038  0.43184253  1
  H+  H345  1  0.93918357  0.70555957  0.78199498  1
  H+  H346  1  0.42760729  0.57339080  0.93960361  1
  H+  H347  1  0.77350353  0.38202927  0.49599253  1
  H+  H348  1  0.13909090  0.31924404  0.22757372  1
  H+  H349  1  0.64381198  0.26191177  0.50013779  1
  H+  H350  1  0.37888067  0.14554684  0.15441774  1
  H+  H351  1  0.84068979  0.16879081  0.11101000  1
  H+  H352  1  0.58666657  0.92433396  0.42548889  1
  H+  H353  1  0.82370070  0.14527964  0.75310394  1
  H+  H354  1  0.07572714  0.16686319  0.73816135  1
  H+  H355  1  0.93567880  0.35596363  0.56040270  1
  H+  H356  1  0.65860826  0.83343316  0.23725843  1
  H+  H357  1  0.67310227  0.07835908  0.92932644  1
  H+  H358  1  0.90798301  0.12956033  0.16893166  1
  H+  H359  1  0.42228208  0.34082608  0.22828084  1
  H+  H360  1  0.89515248  0.78599405  0.81939773  1
  H+  H361  1  0.64379725  0.52311456  0.66313294  1
  H+  H362  1  0.93463031  0.35649098  0.96278864  1
  H+  H363  1  0.81337335  0.62750167  0.41907625  1
  H+  H364  1  0.92176018  0.83640213  0.94666863  1
  H+  H365  1  0.63635570  0.09710592  0.24903793  1
  H+  H366  1  0.18004945  0.86287332  0.23801560  1
  H+  H367  1  0.53260324  0.92638123  0.16708453  1
  H+  H368  1  0.38920769  0.11349711  1.00082680  1
  H+  H369  1  0.16741114  0.57938417  0.60078051  1
  H+  H370  1  0.33028808  0.68552864  0.36284909  1
  H+  H371  1  0.33700055  0.93579123  0.38772602  1
  H+  H372  1  0.47565772  0.12284707  0.22273341  1
  H+  H373  1  0.64672602  0.30618980  0.23213046  1
  H+  H374  1  0.93799470  0.86334246  0.61584811  1
  H+  H375  1  0.09679360  0.92463891  0.74229354  1
  H+  H376  1  0.82233753  0.42186483  0.76607328  1
  H+  H377  1  0.57962117  0.15992442  0.72946276  1
  H+  H378  1  0.58055546  0.38648400  0.39879599  1
  H+  H379  1  0.33980375  0.66252606  0.08669800  1
  H+  H380  1  0.98594151  0.88658799  0.17156737  1
  H+  H381  1  0.78126705  0.64190056  0.66292192  1
  H+  H382  1  0.59260434  0.67568520  0.72700218  1
  H+  H383  1  0.37544149  0.10689722  0.27338662  1
  O2-  O384  1  0.08438777  0.16514519  0.12117527  1
  O2-  O385  1  0.08494246  0.16558936  0.48069234  1
  O2-  O386  1  0.07497538  0.16439649  0.82050368  1
  O2-  O387  1  0.02865961  0.40135641  0.17004932  1
  O2-  O388  1  0.13284525  0.44145612  0.46077762  1
  O2-  O389  1  0.08022791  0.41131384  0.80532239  1
  O2-  O390  1  0.11247268  0.70164386  0.15871720  1
  O2-  O391  1  0.05871522  0.71083169  0.45265028  1
  O2-  O392  1  0.08016078  0.66669190  0.81682105  1
  O2-  O393  1  0.08139626  0.93333502  0.14669960  1
  O2-  O394  1  0.08951819  0.93058069  0.41019526  1
  O2-  O395  1  0.09906410  0.92866727  0.82692839  1
  O2-  O396  1  0.34482587  0.17224449  0.14089336  1
  O2-  O397  1  0.32944511  0.16306863  0.48141589  1
  O2-  O398  1  0.32822562  0.16346562  0.81759920  1
  O2-  O399  1  0.31017069  0.38359030  0.14817738  1
  O2-  O400  1  0.32514806  0.39998082  0.48459766  1
  O2-  O401  1  0.33328012  0.40650016  0.81880187  1
  O2-  O402  1  0.34523216  0.66694416  0.13410336  1
  O2-  O403  1  0.34253475  0.69012248  0.51037722  1
  O2-  O404  1  0.37538050  0.66010060  0.81119242  1
  O2-  O405  1  0.38169447  0.92317325  0.16531162  1
  O2-  O406  1  0.32469731  0.93229334  0.46245127  1
  O2-  O407  1  0.32317357  0.93447266  0.80630105  1
  O2-  O408  1  0.60611723  0.17179777  0.13256137  1
  O2-  O409  1  0.59644003  0.15989478  0.46829496  1
  O2-  O410  1  0.57978564  0.16279966  0.81326437  1
  O2-  O411  1  0.57537403  0.40793177  0.14630093  1
  O2-  O412  1  0.57775794  0.39224792  0.47911055  1
  O2-  O413  1  0.58645689  0.40411693  0.81913094  1
  O2-  O414  1  0.59194603  0.67668472  0.14322972  1
  O2-  O415  1  0.57294643  0.67390579  0.48363645  1
  O2-  O416  1  0.60009014  0.68024563  0.80864204  1
  O2-  O417  1  0.59771954  0.95556157  0.16186257  1
  O2-  O418  1  0.59153606  0.92538687  0.47120387  1
  O2-  O419  1  0.58191212  0.91839960  0.80885463  1
  O2-  O420  1  0.86204996  0.17723259  0.15299367  1
  O2-  O421  1  0.84189539  0.16850905  0.48081707  1
  O2-  O422  1  0.83155088  0.15511677  0.79830337  1
  O2-  O423  1  0.83083632  0.40545719  0.14860011  1
  O2-  O424  1  0.83471597  0.41757476  0.48164994  1
  O2-  O425  1  0.82643246  0.41371841  0.81233650  1
  O2-  O426  1  0.82856968  0.65156580  0.15938004  1
  O2-  O427  1  0.80404129  0.60645971  0.46165990  1
  O2-  O428  1  0.88075050  0.68505098  0.79680547  1
  O2-  O429  1  0.82758918  0.92502298  0.15232696  1
  O2-  O430  1  0.83512281  0.92106609  0.47617699  1
  O2-  O431  1  0.82814600  0.93371914  0.82478095  1
  O2-  O432  1  0.17455439  0.07858284  0.19991217  1
  O2-  O433  1  0.11587832  0.03567559  0.53251181  1
  O2-  O434  1  0.16229656  0.09205281  0.86613299  1
  O2-  O435  1  0.13205977  0.32405324  0.18312291  1
  O2-  O436  1  0.15231243  0.31340394  0.52939362  1
  O2-  O437  1  0.16989055  0.33522136  0.85136050  1
  O2-  O438  1  0.18935073  0.59732653  0.16957352  1
  O2-  O439  1  0.16851326  0.59021165  0.51902665  1
  O2-  O440  1  0.13314496  0.55848108  0.86989290  1
  O2-  O441  1  0.18005840  0.86850797  0.19151014  1
  O2-  O442  1  0.16304714  0.87281044  0.49444713  1
  O2-  O443  1  0.16943754  0.83435143  0.86573375  1
  O2-  O444  1  0.44189111  0.09819128  0.18555427  1
  O2-  O445  1  0.43244395  0.09091468  0.51061096  1
  O2-  O446  1  0.41591832  0.08764390  0.85972141  1
  O2-  O447  1  0.40868598  0.32226681  0.18373061  1
  O2-  O448  1  0.42153201  0.32481765  0.52325899  1
  O2-  O449  1  0.41952818  0.32537337  0.85620155  1
  O2-  O450  1  0.42401563  0.59655497  0.17386294  1
  O2-  O451  1  0.40625431  0.57020204  0.52612429  1
  O2-  O452  1  0.44497849  0.56900112  0.86015079  1
  O2-  O453  1  0.43133399  0.87938801  0.18154878  1
  O2-  O454  1  0.42234541  0.86592492  0.51441596  1
  O2-  O455  1  0.39995679  0.83049861  0.82000701  1
  O2-  O456  1  0.66102617  0.09867861  0.20713345  1
  O2-  O457  1  0.67577795  0.08654886  0.52005328  1
  O2-  O458  1  0.66795479  0.08284226  0.85108958  1
  O2-  O459  1  0.68416744  0.35529998  0.20603576  1
  O2-  O460  1  0.67014820  0.32028337  0.51923212  1
  O2-  O461  1  0.67374342  0.33745259  0.86036335  1
  O2-  O462  1  0.65011598  0.57071199  0.18502595  1
  O2-  O463  1  0.63786832  0.57020149  0.48626820  1
  O2-  O464  1  0.63247806  0.56063622  0.87031421  1
  O2-  O465  1  0.65998216  0.84002578  0.19239183  1
  O2-  O466  1  0.67043636  0.84199874  0.51961957  1
  O2-  O467  1  0.66509885  0.84082335  0.85929398  1
  O2-  O468  1  0.93814327  0.09525849  0.18124866  1
  O2-  O469  1  0.92076935  0.08357158  0.51936950  1
  O2-  O470  1  0.91671785  0.09185944  0.85141244  1
  O2-  O471  1  0.93512515  0.34360287  0.16674424  1
  O2-  O472  1  0.92848141  0.34034642  0.51624937  1
  O2-  O473  1  0.90525395  0.32377682  0.82644487  1
  O2-  O474  1  0.90486927  0.56149145  0.18344411  1
  O2-  O475  1  0.91612364  0.58323994  0.51716209  1
  O2-  O476  1  0.91512965  0.57269749  0.86364121  1
  O2-  O477  1  0.92384853  0.85062289  0.18627083  1
  O2-  O478  1  0.96110768  0.90282675  0.55263925  1
  O2-  O479  1  0.91841347  0.84953806  0.82079288  1
  O2-  O480  1  0.16416177  0.07957206  0.32568124  1
  O2-  O481  1  0.16973423  0.08614387  0.65213258  1
  O2-  O482  1  0.17140912  0.09502670  0.99602537  1
  O2-  O483  1  0.15408490  0.32818874  0.30852605  1
  O2-  O484  1  0.14340763  0.31623118  0.64349533  1
  O2-  O485  1  0.13696813  0.32445764  1.01325286  1
  O2-  O486  1  0.16131834  0.57682896  0.29422618  1
  O2-  O487  1  0.16595106  0.57381407  0.64570156  1
  O2-  O488  1  0.14924843  0.57171478  0.99985967  1
  O2-  O489  1  0.17726008  0.84043754  0.30703792  1
  O2-  O490  1  0.17150366  0.86745043  0.61532778  1
  O2-  O491  1  0.17789393  0.83944712  0.99399366  1
  O2-  O492  1  0.40014392  0.11299993  0.31380259  1
  O2-  O493  1  0.42387294  0.08599767  0.63804073  1
  O2-  O494  1  0.41784137  0.08291824  0.98504506  1
  O2-  O495  1  0.45219561  0.38998346  0.29113014  1
  O2-  O496  1  0.45388586  0.29450077  0.63141699  1
  O2-  O497  1  0.40955726  0.32170726  0.97931935  1
  O2-  O498  1  0.40967405  0.58307361  0.30146433  1
  O2-  O499  1  0.41888607  0.57949137  0.64725035  1
  O2-  O500  1  0.41994098  0.57664606  0.98403114  1
  O2-  O501  1  0.41717830  0.84642243  0.29493071  1
  O2-  O502  1  0.41773697  0.82506972  0.66070443  1
  O2-  O503  1  0.44277866  0.87217092  0.98325086  1
  O2-  O504  1  0.58828547  0.07904271  0.31505307  1
  O2-  O505  1  0.65434791  0.07096928  0.63983989  1
  O2-  O506  1  0.66896997  0.07669743  0.97478579  1
  O2-  O507  1  0.56300357  0.23212103  0.29560577  1
  O2-  O508  1  0.66764656  0.32760034  0.64319151  1
  O2-  O509  1  0.67318158  0.33027479  0.97090137  1
  O2-  O510  1  0.65565615  0.56214980  0.31022209  1
  O2-  O511  1  0.67015492  0.58323334  0.64566783  1
  O2-  O512  1  0.66850774  0.57616054  0.98999608  1
  O2-  O513  1  0.65024753  0.81761059  0.31910250  1
  O2-  O514  1  0.66975208  0.84038157  0.64294510  1
  O2-  O515  1  0.66040470  0.83210260  0.98326333  1
  O2-  O516  1  0.93522568  0.10340683  0.30506623  1
  O2-  O517  1  0.91913860  0.07261996  0.64626874  1
  O2-  O518  1  0.91857481  0.08597287  0.99813219  1
  O2-  O519  1  0.90963527  0.33716899  0.32427257  1
  O2-  O520  1  0.93395911  0.38230047  0.63600822  1
  O2-  O521  1  0.91347542  0.33717470  1.00369482  1
  O2-  O522  1  0.91967683  0.58032445  0.30847763  1
  O2-  O523  1  0.92871335  0.60175496  0.62995741  1
  O2-  O524  1  0.91607758  0.57776402  0.98848453  1
  O2-  O525  1  0.91208907  0.82603998  0.31013646  1
  O2-  O526  1  0.92382985  0.84177559  0.66053437  1
  O2-  O527  1  0.92225461  0.83725405  0.99102401  1
  O2-  O528  1  0.07484793  0.16093793  0.05412206  1
  O2-  O529  1  0.08877482  0.17146209  0.35855007  1
  O2-  O530  1  0.07603947  0.16916629  0.69296095  1
  O2-  O531  1  0.07351476  0.41821963  0.05572376  1
  O2-  O532  1  0.08028295  0.41949010  0.34707612  1
  O2-  O533  1  0.08642018  0.41287886  0.68234832  1
  O2-  O534  1  0.08121154  0.67013130  0.03266508  1
  O2-  O535  1  0.08810821  0.66643424  0.33844105  1
  O2-  O536  1  0.06709099  0.64547287  0.68709270  1
  O2-  O537  1  0.08962374  0.92577723  0.02500108  1
  O2-  O538  1  0.05653211  0.85008692  0.37514900  1
  O2-  O539  1  0.09097443  0.92637603  0.69764729  1
  O2-  O540  1  0.33210458  0.17428136  0.03014241  1
  O2-  O541  1  0.31223384  0.19283005  0.36969903  1
  O2-  O542  1  0.33367503  0.15369707  0.69124598  1
  O2-  O543  1  0.32173076  0.40885182  0.01923533  1
  O2-  O544  1  0.30927357  0.35144244  0.36103111  1
  O2-  O545  1  0.29412016  0.44832152  0.71411255  1
  O2-  O546  1  0.32755116  0.65453281  0.01920953  1
  O2-  O547  1  0.33515615  0.68245676  0.31897987  1
  O2-  O548  1  0.32971535  0.65605049  0.68910439  1
  O2-  O549  1  0.34431958  0.92384112  0.03892765  1
  O2-  O550  1  0.33974651  0.93679469  0.34193272  1
  O2-  O551  1  0.33109739  0.92102870  0.67936696  1
  O2-  O552  1  0.59307195  0.16976375  0.00528431  1
  O2-  O553  1  0.63239932  0.15917928  0.35071771  1
  O2-  O554  1  0.58275436  0.16038350  0.68443771  1
  O2-  O555  1  0.57505389  0.40447925  0.01845571  1
  O2-  O556  1  0.58154644  0.38455553  0.35349911  1
  O2-  O557  1  0.60137623  0.42326587  0.68941451  1
  O2-  O558  1  0.58817257  0.66758803  0.02141899  1
  O2-  O559  1  0.56873110  0.65083214  0.35630565  1
  O2-  O560  1  0.58782306  0.67194064  0.68190174  1
  O2-  O561  1  0.59467310  0.92406404  0.02048265  1
  O2-  O562  1  0.57564119  0.92139934  0.34940997  1
  O2-  O563  1  0.58172767  0.91283363  0.68723618  1
  O2-  O564  1  0.82219235  0.16332119  0.02487728  1
  O2-  O565  1  0.85184123  0.18476033  0.35462548  1
  O2-  O566  1  0.81112391  0.13290194  0.67688847  1
  O2-  O567  1  0.82199912  0.41123736  0.02862145  1
  O2-  O568  1  0.83717215  0.41604346  0.35808432  1
  O2-  O569  1  0.81794445  0.43241393  0.69691208  1
  O2-  O570  1  0.83695058  0.66590138  0.03087049  1
  O2-  O571  1  0.82360875  0.65215502  0.34049670  1
  O2-  O572  1  0.84214138  0.67106120  0.67714338  1
  O2-  O573  1  0.82474913  0.91340743  0.02635867  1
  O2-  O574  1  0.84105612  0.92370002  0.33472237  1
  O2-  O575  1  0.82708081  0.91420994  0.69537922  1
