# generated using pymatgen
data_H2O
_symmetry_space_group_name_H-M   'P 1'
_cell_length_a   17.98217164
_cell_length_b   17.98414261
_cell_length_c   22.00155595
_cell_angle_alpha   89.99328372
_cell_angle_beta   89.99784236
_cell_angle_gamma   120.00921630
_symmetry_Int_Tables_number   1
_chemical_formula_structural   H2O
_chemical_formula_sum   'H384 O192'
_cell_volume   6161.34542431
_cell_formula_units_Z   192
loop_
 _symmetry_equiv_pos_site_id
 _symmetry_equiv_pos_as_xyz
  1  'x, y, z'
loop_
 _atom_type_symbol
 _atom_type_oxidation_number
  H+  1.0
  O2-  -2.0
loop_
 _atom_site_type_symbol
 _atom_site_label
 _atom_site_symmetry_multiplicity
 _atom_site_fract_x
 _atom_site_fract_y
 _atom_site_fract_z
 _atom_site_occupancy
  H+  H0  1  0.87604147  0.01641941  0.48866716  1
  H+  H1  1  0.36455704  0.88821458  0.16050209  1
  H+  H2  1  0.12805416  0.60888076  0.50273642  1
  H+  H3  1  0.41111492  0.30771651  0.14912206  1
  H+  H4  1  0.48646770  0.36794778  0.49974083  1
  H+  H5  1  0.52430371  0.14173662  0.67420186  1
  H+  H6  1  0.55014394  0.39494886  -0.01203188  1
  H+  H7  1  0.73440424  0.13480299  0.79938374  1
  H+  H8  1  0.02228489  0.13203412  0.65604276  1
  H+  H9  1  0.91656304  0.54541000  0.95280607  1
  H+  H10  1  0.13795948  0.02593108  0.66005017  1
  H+  H11  1  0.54536014  0.63475077  0.49323642  1
  H+  H12  1  0.83618893  0.43634682  0.77543643  1
  H+  H13  1  0.88378491  0.11161192  0.32906697  1
  H+  H14  1  0.88973511  0.77436118  0.50272912  1
  H+  H15  1  0.76457093  0.63478821  0.33736525  1
  H+  H16  1  0.69496772  0.38627097  0.00623938  1
  H+  H17  1  0.48428171  0.87063419  0.17369659  1
  H+  H18  1  0.88744260  0.02174077  0.65139983  1
  H+  H19  1  0.86014494  0.71377749  0.81973871  1
  H+  H20  1  0.85140076  0.45454217  0.09253929  1
  H+  H21  1  0.90605862  0.25495921  0.53520376  1
  H+  H22  1  0.48361601  0.86838352  1.00054587  1
  H+  H23  1  0.60969245  0.72713688  0.16449065  1
  H+  H24  1  1.02563387  0.14021421  0.31847575  1
  H+  H25  1  0.14091646  0.77486672  0.84083095  1
  H+  H26  1  0.78052726  0.39504132  0.68562346  1
  H+  H27  1  0.64445858  0.11749981  0.17558123  1
  H+  H28  1  0.13310156  0.52158630  0.16638978  1
  H+  H29  1  0.11180532  0.63852341  0.15423652  1
  H+  H30  1  0.39810161  0.77611471  -0.00038906  1
  H+  H31  1  0.05514390  0.43439059  0.34441516  1
  H+  H32  1  0.61238832  0.13959429  0.67795909  1
  H+  H33  1  0.03004550  0.14551343  0.49017464  1
  H+  H34  1  0.87189681  0.12381040  0.97797603  1
  H+  H35  1  0.38111444  0.52064739  0.84522902  1
  H+  H36  1  0.51587040  0.88789940  0.83455829  1
  H+  H37  1  0.82072694  0.15949828  0.05361463  1
  H+  H38  1  0.11942430  1.00749797  -0.00853898  1
  H+  H39  1  0.38202380  0.28715299  0.65616426  1
  H+  H40  1  0.26719894  0.13758877  0.83422153  1
  H+  H41  1  0.76019856  0.13932659  0.70355406  1
  H+  H42  1  0.26527521  0.38450575  0.82672613  1
  H+  H43  1  0.36897558  0.39287358  0.67399673  1
  H+  H44  1  0.88467046  0.03216991  0.16913724  1
  H+  H45  1  0.71150834  0.61187145  0.83276761  1
  H+  H46  1  0.80524928  0.49900961  0.02483770  1
  H+  H47  1  0.22705501  0.10740571  0.32573088  1
  H+  H48  1  0.36146360  -0.02492377  0.67396077  1
  H+  H49  1  0.14880999  0.50039011  0.82991809  1
  H+  H50  1  0.36941516  0.14239668  0.96538376  1
  H+  H51  1  0.76704836  0.63829104  0.66047333  1
  H+  H52  1  0.61173924  0.88927024  0.16725412  1
  H+  H53  1  0.11400365  0.38487471  0.50605539  1
  H+  H54  1  0.13682887  0.26763525  0.98903929  1
  H+  H55  1  0.64566800  0.02929837  0.17542106  1
  H+  H56  1  0.12681660  0.51844345  0.51149091  1
  H+  H57  1  0.88785004  0.61944430  0.16843760  1
  H+  H58  1  0.27301261  0.88142314  0.49142410  1
  H+  H59  1  0.08567286  0.91320444  0.76542458  1
  H+  H60  1  0.77612891  0.14359133  0.15625171  1
  H+  H61  1  0.97523026  0.85669575  0.98758579  1
  H+  H62  1  0.13742998  0.77032963  0.50427749  1
  H+  H63  1  0.89208825  0.61405108  0.88457841  1
  H+  H64  1  0.14165530  0.27822494  0.32588879  1
  H+  H65  1  0.26774926  0.67068437  0.97973711  1
  H+  H66  1  0.88513907  0.60366493  0.50056095  1
  H+  H67  1  0.38228538  0.27314908  0.31867770  1
  H+  H68  1  0.47492897  0.61342065  0.17511997  1
  H+  H69  1  0.86680616  0.14632993  0.15396980  1
  H+  H70  1  0.12598519  0.37438875  0.84039356  1
  H+  H71  1  0.63710529  0.78523975  0.66096429  1
  H+  H72  1  0.22768629  0.37500683  0.18293429  1
  H+  H73  1  0.24717790  0.11881168  0.17057886  1
  H+  H74  1  0.71183654  0.85181635  0.33071137  1
  H+  H75  1  0.74891445  0.11893465  -0.00038722  1
  H+  H76  1  0.62302321  0.14921574  0.82419993  1
  H+  H77  1  0.02445002  0.39277628  0.68971960  1
  H+  H78  1  0.36453997  0.36945060  -0.00598904  1
  H+  H79  1  0.58503531  0.92008909  0.10598804  1
  H+  H80  1  0.52016190  0.89166159  0.65370419  1
  H+  H81  1  0.41304013  0.08404448  0.59832723  1
  H+  H82  1  0.61194785  0.64566426  0.00700427  1
  H+  H83  1  0.12787264  0.11102917  0.17782509  1
  H+  H84  1  0.84267782  0.22754316  0.72082560  1
  H+  H85  1  0.64885852  0.61198116  0.49703228  1
  H+  H86  1  0.83412420  0.26320319  0.99251980  1
  H+  H87  1  0.39085617  0.49056523  0.48688712  1
  H+  H88  1  0.36254318  0.14002678  0.49035437  1
  H+  H89  1  0.70443938  0.10813546  0.50214416  1
  H+  H90  1  0.25603429  0.63497085  0.31496800  1
  H+  H91  1  1.02466852  0.89142052  0.67091671  1
  H+  H92  1  0.33554885  0.19929542  0.18986156  1
  H+  H93  1  0.64538445  0.36951693  0.67410241  1
  H+  H94  1  0.58933635  -0.08125419  0.43680444  1
  H+  H95  1  0.88082673  0.52557645  0.85531624  1
  H+  H96  1  0.37641424  0.75948247  0.49983836  1
  H+  H97  1  1.02002637  0.63309418  0.48720887  1
  H+  H98  1  0.36220714  0.38611372  0.33889174  1
  H+  H99  1  0.37208888  0.35814705  0.84773552  1
  H+  H100  1  0.06358123  0.92279886  0.41423075  1
  H+  H101  1  0.64728270  0.28268393  0.67438771  1
  H+  H102  1  0.61821007  0.38709659  0.48104980  1
  H+  H103  1  0.85444625  0.26039941  0.38619859  1
  H+  H104  1  0.98983428  0.40459173  0.86383809  1
  H+  H105  1  0.43580320  0.63598830  0.52253027  1
  H+  H106  1  0.64331735  0.51943337  0.49626152  1
  H+  H107  1  0.88192756  0.04165717  0.96130725  1
  H+  H108  1  0.12941885  0.11208243  0.65268942  1
  H+  H109  1  0.36602070  0.14046282  0.33439252  1
  H+  H110  1  0.62249661  0.52436996  0.83946735  1
  H+  H111  1  0.61495344  0.89009047  0.01568204  1
  H+  H112  1  -0.02246188  0.86430764  0.50661223  1
  H+  H113  1  0.81390720  0.91118025  0.76443087  1
  H+  H114  1  0.61182972  0.89651511  0.64954904  1
  H+  H115  1  0.63762405  0.85735520  0.50252359  1
  H+  H116  1  0.34727722  0.62254704  0.83801966  1
  H+  H117  1  0.36647834  0.23087269  0.48868600  1
  H+  H118  1  0.86857068  0.76609377  0.31996433  1
  H+  H119  1  0.61301341  0.22804448  0.33312598  1
  H+  H120  1  0.60534425  0.97526768  0.82668222  1
  H+  H121  1  0.71309736  0.86321552  0.84065573  1
  H+  H122  1  0.60188081  0.64361300  0.83495633  1
  H+  H123  1  0.76917624  0.12697072  0.35619173  1
  H+  H124  1  0.11963008  0.23012044  0.17573807  1
  H+  H125  1  0.11038774  -0.03116716  0.82637539  1
  H+  H126  1  0.63473789  0.27288585  0.49229822  1
  H+  H127  1  0.51229565  0.38227765  0.83448362  1
  H+  H128  1  0.98375994  0.35009028  0.53146668  1
  H+  H129  1  -0.02182555  0.36551707  0.15537539  1
  H+  H130  1  0.21467009  0.61981330  0.66582497  1
  H+  H131  1  0.62175173  0.59865679  0.64096519  1
  H+  H132  1  0.64683385  0.24921550  0.98863945  1
  H+  H133  1  0.97942861  0.62292662  0.16600464  1
  H+  H134  1  0.42124485  0.84509355  0.39482128  1
  H+  H135  1  0.88990179  0.36570342  0.68367677  1
  H+  H136  1  0.71929006  0.86247793  0.18452606  1
  H+  H137  1  0.87531101  0.48830985  0.15796616  1
  H+  H138  1  0.81856120  0.09367865  0.53331434  1
  H+  H139  1  0.54120222  0.40509085  1.01921055  1
  H+  H140  1  0.61884580  0.22807872  0.15849845  1
  H+  H141  1  0.25103355  0.62130617  0.48847191  1
  H+  H142  1  0.11494572  0.14034597  0.31939687  1
  H+  H143  1  0.63346087  0.27847901  0.83643814  1
  H+  H144  1  0.36196310  0.48174310  0.00930991  1
  H+  H145  1  0.27439966  0.23595095  0.71346216  1
  H+  H146  1  0.01735869  0.64727560  0.67402836  1
  H+  H147  1  0.17680154  0.66368120  0.97056976  1
  H+  H148  1  0.63740304  0.61942787  0.17344047  1
  H+  H149  1  0.10647910  0.38471243  0.16747684  1
  H+  H150  1  0.13166573  0.10409528  0.83560918  1
  H+  H151  1  0.35943607  0.87273623  0.00899184  1
  H+  H152  1  0.23493631  0.46946141  0.62047767  1
  H+  H153  1  0.85825905  0.88655896  0.16051952  1
  H+  H154  1  0.61920445  0.76243814  0.33349874  1
  H+  H155  1  0.41725102  0.08344894  0.22834687  1
  H+  H156  1  0.26904452  0.39206607  0.00921907  1
  H+  H157  1  0.16744539  0.83144221  0.56356133  1
  H+  H158  1  0.10523148  0.64598669  0.67564569  1
  H+  H159  1  0.87725308  0.02071640  0.32186458  1
  H+  H160  1  0.62967380  0.36329068  0.31659596  1
  H+  H161  1  0.61736250  0.11686113  0.01006087  1
  H+  H162  1  0.85618327  0.12808395  0.78230536  1
  H+  H163  1  0.50014452  0.08617316  0.99107058  1
  H+  H164  1  0.59061404  0.66565093  0.42683073  1
  H+  H165  1  0.09145168  0.34936466  0.01231678  1
  H+  H166  1  0.86281616  0.88534588  0.48835945  1
  H+  H167  1  0.85941914  0.34988484  0.36607395  1
  H+  H168  1  0.60274685  0.38567167  0.83321966  1
  H+  H169  1  0.46881747  0.11110252  0.50315414  1
  H+  H170  1  0.46567657  0.56742147  0.33314289  1
  H+  H171  1  0.50692176  0.61581673  0.66615701  1
  H+  H172  1  0.10760437  0.88270885  0.15617952  1
  H+  H173  1  0.88595191  0.77843806  0.65603025  1
  H+  H174  1  0.61692122  0.14063997  0.33515761  1
  H+  H175  1  0.11622683  0.14336981  0.49937541  1
  H+  H176  1  0.10485722  0.48954398  0.68069954  1
  H+  H177  1  0.27516297  0.39102381  0.34879261  1
  H+  H178  1  0.15887932  0.41233502  0.66412784  1
  H+  H179  1  0.91025215  0.08906729  0.22870549  1
  H+  H180  1  0.82424580  0.13035254  0.41602355  1
  H+  H181  1  0.64676949  0.53451229  0.17186220  1
  H+  H182  1  0.77093783  0.64167382  0.16405793  1
  H+  H183  1  0.13373505  0.50758681  -0.02794590  1
  H+  H184  1  0.74756338  0.31198977  0.97550090  1
  H+  H185  1  0.37095343  0.63867846  0.01115265  1
  H+  H186  1  0.38312598  0.10800921  0.16933506  1
  H+  H187  1  0.13654255  0.27851854  0.51241208  1
  H+  H188  1  0.38852012  0.02871388  0.32181187  1
  H+  H189  1  0.62422987  0.86401280  0.84639704  1
  H+  H190  1  0.60924967  0.47431914  0.67374602  1
  H+  H191  1  0.87497507  0.89259320  0.98312788  1
  H+  H192  1  0.27287317  0.64064170  0.15854702  1
  H+  H193  1  0.88876454  0.51541327  0.50659732  1
  H+  H194  1  0.37888708  0.85061159  0.49877342  1
  H+  H195  1  0.11554103  0.73478266  0.33134930  1
  H+  H196  1  0.38100370  1.02176721  0.50594067  1
  H+  H197  1  0.88314562  0.77165402  0.99178522  1
  H+  H198  1  0.80789636  0.90434873  0.10821550  1
  H+  H199  1  0.11827236  0.97780160  0.50063808  1
  H+  H200  1  0.88702380  0.96270558  0.03058879  1
  H+  H201  1  0.88112752  0.61615160  0.65475189  1
  H+  H202  1  0.61346633  -0.01978737  1.01531649  1
  H+  H203  1  0.86065867  0.48917655  0.33132308  1
  H+  H204  1  0.64382878  0.02741955  0.32837259  1
  H+  H205  1  0.13196835  0.02377287  0.33360920  1
  H+  H206  1  0.11310571  0.88990694  0.66869046  1
  H+  H207  1  0.76876885  0.39949345  0.83147529  1
  H+  H208  1  0.40175607  0.99320447  -0.01088920  1
  H+  H209  1  0.34685156  0.72143124  0.68004829  1
  H+  H210  1  0.25077603  0.15255386  0.67687327  1
  H+  H211  1  0.17102756  0.55023885  0.32397537  1
  H+  H212  1  0.87794572  0.34494694  -0.04998330  1
  H+  H213  1  0.11080790  0.88069813  1.00315048  1
  H+  H214  1  0.54957645  0.40794242  0.14582841  1
  H+  H215  1  0.35857689  0.89049253  0.33854022  1
  H+  H216  1  0.78000204  0.63424643  0.49044441  1
  H+  H217  1  0.09204080  0.12656154  -0.00962175  1
  H+  H218  1  0.77166589  0.88221462  0.48930659  1
  H+  H219  1  0.66022051  0.69440282  0.70797638  1
  H+  H220  1  0.66001243  0.58917504  0.26840944  1
  H+  H221  1  0.62576747  0.61331346  0.32938069  1
  H+  H222  1  0.13710143  0.77345417  0.16429538  1
  H+  H223  1  0.59683309  0.12925786  0.49031345  1
  H+  H224  1  0.37859483  0.85852417  0.65790873  1
  H+  H225  1  0.11068538  0.72653327  0.00120055  1
  H+  H226  1  0.10406246  -0.02973568  0.15727344  1
  H+  H227  1  0.60209785  0.73446550  0.83905847  1
  H+  H228  1  0.27138996  0.89303678  0.32980325  1
  H+  H229  1  0.63440401  0.02915447  0.65812518  1
  H+  H230  1  0.72081478  0.62565964  0.99246868  1
  H+  H231  1  0.47950944  0.11667867  0.32121071  1
  H+  H232  1  0.72843128  0.35536613  0.49911156  1
  H+  H233  1  0.39944918  0.65309619  0.34487086  1
  H+  H234  1  0.36608989  0.48716849  0.16603783  1
  H+  H235  1  0.98543223  0.35527286  0.37823912  1
  H+  H236  1  0.64290185  0.76981569  0.49953686  1
  H+  H237  1  0.32585494  0.60036113  0.48377775  1
  H+  H238  1  0.47830918  0.61419946  0.99893480  1
  H+  H239  1  0.34089662  0.26939721  0.99867015  1
  H+  H240  1  0.22419749  0.86429119  0.65844810  1
  H+  H241  1  0.88599638  0.37205352  0.14450920  1
  H+  H242  1  0.83263144  0.97824062  0.81510967  1
  H+  H243  1  0.37561148  0.76671667  0.85004804  1
  H+  H244  1  0.22284511  0.85803843  -0.00778242  1
  H+  H245  1  0.41857136  0.52399275  0.66570281  1
  H+  H246  1  0.13671327  0.86854767  0.31043251  1
  H+  H247  1  0.03611695  0.62563651  0.00542784  1
  H+  H248  1  0.51834864  0.38796133  0.33116628  1
  H+  H249  1  0.73175667  0.87099377  0.99075733  1
  H+  H250  1  0.53454108  0.89680237  0.34631332  1
  H+  H251  1  0.02872593  0.64360235  0.83546286  1
  H+  H252  1  0.83917466  0.61774180  0.80197323  1
  H+  H253  1  0.86952360  0.48393279  0.67897160  1
  H+  H254  1  0.36035266  0.88023268  0.82839774  1
  H+  H255  1  0.85220418  0.63423567  0.01869522  1
  H+  H256  1  0.22758056  0.11592381  0.50491617  1
  H+  H257  1  0.22552759  0.21193575  0.06122250  1
  H+  H258  1  0.61006651  0.73362119  0.00992474  1
  H+  H259  1  0.46746899  0.61366921  0.84519500  1
  H+  H260  1  0.39649358  0.77445685  0.34582669  1
  H+  H261  1  -0.02857894  0.86360586  0.16764767  1
  H+  H262  1  0.72047579  0.36849899  0.31923292  1
  H+  H263  1  0.86754648  0.37279944  0.52521183  1
  H+  H264  1  0.61792154  0.88719596  0.34243700  1
  H+  H265  1  0.60692932  0.47796153  0.33224873  1
  H+  H266  1  0.36292505  0.72979206  0.16325129  1
  H+  H267  1  0.38747711  0.39600305  0.48771390  1
  H+  H268  1  0.73627041  0.36887779  0.16518718  1
  H+  H269  1  0.09734167  0.49289647  0.94977721  1
  H+  H270  1  0.13324617  0.35972382  0.34217161  1
  H+  H271  1  1.03035801  0.14457376  0.16652168  1
  H+  H272  1  0.34332347  0.11303017  -0.00915268  1
  H+  H273  1  0.87900210  0.26948159  0.14784684  1
  H+  H274  1  0.52208329  0.87780375  0.49219250  1
  H+  H275  1  0.01623446  0.37157056  0.00830320  1
  H+  H276  1  0.39400827  1.01194880  0.83977347  1
  H+  H277  1  0.27451542  0.88605256  0.82735375  1
  H+  H278  1  0.38501853  0.11322270  0.65806998  1
  H+  H279  1  0.85625570  0.63837703  0.33254912  1
  H+  H280  1  -0.02009639  0.83738237  0.83490674  1
  H+  H281  1  -0.04654402  0.85781834  0.32579763  1
  H+  H282  1  0.57353272  0.16087353  0.42850650  1
  H+  H283  1  0.77281395  0.89068347  0.66650328  1
  H+  H284  1  0.47754495  0.36929654  0.65815466  1
  H+  H285  1  0.93116237  0.13582475  0.88750947  1
  H+  H286  1  0.12686981  0.22497489  0.80951988  1
  H+  H287  1  1.01526999  0.14679935  0.98891305  1
  H+  H288  1  0.13285698  0.77755144  0.66055795  1
  H+  H289  1  0.66441694  0.83935413  0.93670959  1
  H+  H290  1  0.08147092  0.66754996  0.42826228  1
  H+  H291  1  0.33123037  0.42475413  0.10715073  1
  H+  H292  1  0.66386439  0.57307975  0.58774980  1
  H+  H293  1  0.03333442  0.14914194  0.81350574  1
  H+  H294  1  0.34052770  0.67094646  0.07003558  1
  H+  H295  1  0.15720674  0.58997766  0.60451495  1
  H+  H296  1  0.07724982  0.67449586  0.77178141  1
  H+  H297  1  0.36377529  0.97669948  0.15802886  1
  H+  H298  1  0.66152741  0.59823622  0.93344777  1
  H+  H299  1  0.67578934  0.10316409  0.61052908  1
  H+  H300  1  0.12251843  0.65055765  0.33152886  1
  H+  H301  1  0.63248751  0.39989813  0.15625254  1
  H+  H302  1  0.42464043  0.84199986  0.23237920  1
  H+  H303  1  0.17017546  0.34807185  0.24323013  1
  H+  H304  1  0.82361469  0.91125358  0.39373286  1
  H+  H305  1  0.67986929  0.08990064  0.27032585  1
  H+  H306  1  0.72656482  0.12619943  0.87045032  1
  H+  H307  1  0.66815528  0.32763111  0.89850613  1
  H+  H308  1  0.15430603  0.06947469  0.23358221  1
  H+  H309  1  0.58248442  0.41714203  0.42480999  1
  H+  H310  1  0.65393999  0.82753122  0.24091700  1
  H+  H311  1  0.38730163  0.61486975  0.17570024  1
  H+  H312  1  0.01516324  0.96484386  0.38428971  1
  H+  H313  1  0.97722186  0.62065555  0.32035150  1
  H+  H314  1  0.11793566  0.88716302  0.49499197  1
  H+  H315  1  0.86012108  0.73046975  0.15998980  1
  H+  H316  1  0.33551906  0.17050732  0.39361880  1
  H+  H317  1  0.19625306  0.10461756  0.99845497  1
  H+  H318  1  0.33221096  0.41504197  0.77157238  1
  H+  H319  1  0.32978717  0.91722167  0.43118750  1
  H+  H320  1  0.62374387  0.01579480  0.51038894  1
  H+  H321  1  0.90022895  0.39971442  0.85495209  1
  H+  H322  1  0.14228203  0.86457673  0.83873664  1
  H+  H323  1  0.33014240  0.90925755  0.06553356  1
  H+  H324  1  0.42522974  0.34287746  0.55952064  1
  H+  H325  1  0.15428471  0.07254098  0.89796489  1
  H+  H326  1  0.17324611  0.34713867  0.56775946  1
  H+  H327  1  0.82479630  0.67474084  0.06976493  1
  H+  H328  1  0.48522548  0.10499063  0.84103830  1
  H+  H329  1  0.82204191  0.66856663  0.72170399  1
  H+  H330  1  0.88496920  0.29386514  0.27391044  1
  H+  H331  1  0.63796995  0.05644418  0.94625535  1
  H+  H332  1  0.39678861  0.38471274  0.16730788  1
  H+  H333  1  0.66700639  0.83061927  0.59511037  1
  H+  H334  1  0.33252063  0.91451562  0.73279061  1
  H+  H335  1  0.36813199  0.26433850  0.84779506  1
  H+  H336  1  0.85850042  0.37378660  0.45660614  1
  H+  H337  1  0.29012490  0.41303893  0.67641644  1
  H+  H338  1  0.41579111  0.58152686  0.94001878  1
  H+  H339  1  0.16842251  0.58536697  0.22359969  1
  H+  H340  1  0.07826099  0.27954292  0.86344291  1
  H+  H341  1  0.38607803  0.32270244  0.92722789  1
  H+  H342  1  0.35178422  0.42548975  0.41906759  1
  H+  H343  1  0.17063326  0.08451652  0.56593237  1
  H+  H344  1  0.07668631  0.90780008  0.06259498  1
  H+  H345  1  0.67677775  0.44007821  0.05846751  1
  H+  H346  1  0.91434341  0.31752988  0.63337485  1
  H+  H347  1  0.91772589  0.83954902  0.59832255  1
  H+  H348  1  0.90982885  0.83495065  0.22698804  1
  H+  H349  1  0.16640290  0.33759609  0.93587177  1
  H+  H350  1  0.91946436  0.59258646  0.26014514  1
  H+  H351  1  0.86104099  0.88848145  0.67090621  1
  H+  H352  1  0.52847009  0.13940338  0.16123481  1
  H+  H353  1  0.58303730  0.67116177  0.10304867  1
  H+  H354  1  0.40254268  0.82129006  0.59979391  1
  H+  H355  1  0.92867194  0.33264807  0.27775979  1
  H+  H356  1  0.33766359  0.65693969  0.39487722  1
  H+  H357  1  0.44756306  0.57925564  0.57328920  1
  H+  H358  1  0.28942433  0.18410260  0.08780391  1
  H+  H359  1  0.43982669  0.05481855  0.91574740  1
  H+  H360  1  0.67534915  0.33852943  0.22478787  1
  H+  H361  1  0.41156967  0.83055988  0.90669186  1
  H+  H362  1  0.41405714  0.33706768  0.26057570  1
  H+  H363  1  0.08823830  0.67150494  0.09389684  1
  H+  H364  1  0.32327567  0.18069365  0.77553694  1
  H+  H365  1  0.07137925  0.40900897  0.45047620  1
  H+  H366  1  0.91911924  0.07168165  0.58851444  1
  H+  H367  1  0.57546868  0.41935180  0.73597533  1
  H+  H368  1  0.81269630  0.44258015  0.39127007  1
  H+  H369  1  0.83707037  0.66686018  0.43063114  1
  H+  H370  1  0.22991799  0.63263201  0.89089453  1
  H+  H371  1  0.07268039  0.39554027  0.10191754  1
  H+  H372  1  0.91546393  0.58420316  0.59912764  1
  H+  H373  1  0.16694812  0.83621919  0.25303466  1
  H+  H374  1  0.22668813  0.86396159  0.16550516  1
  H+  H375  1  0.16655037  0.83380101  0.93130657  1
  H+  H376  1  0.08190245  0.16318941  0.71472868  1
  H+  H377  1  0.30986246  0.66185691  0.73882197  1
  H+  H378  1  0.84522835  0.87954231  0.33156789  1
  H+  H379  1  0.91816936  0.80761688  0.89335154  1
  H+  H380  1  0.09485477  0.43924185  0.77453379  1
  H+  H381  1  0.58465707  0.15550112  0.06638994  1
  H+  H382  1  0.58047751  0.16967057  0.76786805  1
  H+  H383  1  0.58684451  0.68526246  0.75107868  1
  O2-  O384  1  0.09290603  0.17104518  0.15915996  1
  O2-  O385  1  0.09253351  0.17956471  0.48516651  1
  O2-  O386  1  0.09179658  0.16391639  0.79877423  1
  O2-  O387  1  0.07544478  0.41129744  0.14666541  1
  O2-  O388  1  0.07814631  0.41403195  0.49523395  1
  O2-  O389  1  0.10179799  0.44146085  0.81997574  1
  O2-  O390  1  0.08437566  0.67172977  0.13973520  1
  O2-  O391  1  0.08142454  0.66495132  0.47347267  1
  O2-  O392  1  0.08557959  0.67724821  0.81655770  1
  O2-  O393  1  0.07432058  0.91003643  0.14128253  1
  O2-  O394  1  0.08547974  0.91722584  0.48433410  1
  O2-  O395  1  0.08473389  0.90881278  0.81071227  1
  O2-  O396  1  0.31156967  0.15550849  0.15816233  1
  O2-  O397  1  0.33403559  0.17088566  0.47307893  1
  O2-  O398  1  0.32740568  0.17731708  0.82019657  1
  O2-  O399  1  0.33485065  0.42396732  0.15214726  1
  O2-  O400  1  0.36133318  0.43093560  0.46985937  1
  O2-  O401  1  0.32682653  0.41245804  0.81739580  1
  O2-  O402  1  0.33487766  0.67017910  0.14724596  1
  O2-  O403  1  0.31183210  0.64401474  0.47132839  1
  O2-  O404  1  0.31554777  0.65297645  0.82435953  1
  O2-  O405  1  0.33186478  0.91528889  0.14438475  1
  O2-  O406  1  0.33379539  0.91224608  0.47597896  1
  O2-  O407  1  0.33505133  0.91435349  0.81110725  1
  O2-  O408  1  0.58930109  0.16584159  0.14764545  1
  O2-  O409  1  0.56877658  0.16066410  0.47378821  1
  O2-  O410  1  0.58325271  0.17095096  0.81369427  1
  O2-  O411  1  0.61184856  0.43718290  0.13784162  1
  O2-  O412  1  0.58537630  0.41773128  0.47020164  1
  O2-  O413  1  0.57106692  0.41460896  0.81757587  1
  O2-  O414  1  0.58264501  0.66725024  0.14858801  1
  O2-  O415  1  0.60264602  0.66796051  0.47399191  1
  O2-  O416  1  0.57036043  0.67362074  0.82157727  1
  O2-  O417  1  0.58415002  0.92235798  0.15226853  1
  O2-  O418  1  0.58435595  0.91360706  0.48221597  1
  O2-  O419  1  0.57591533  0.91320579  0.81976166  1
  O2-  O420  1  0.83520908  0.17510767  0.13748660  1
  O2-  O421  1  0.85528789  0.11697985  0.49717806  1
  O2-  O422  1  0.86721562  0.09415303  0.81340748  1
  O2-  O423  1  0.84707343  0.43266618  0.13446011  1
  O2-  O424  1  0.84673335  0.39751684  0.49383422  1
  O2-  O425  1  0.83076892  0.43737863  0.82093996  1
  O2-  O426  1  0.83056089  0.66927982  0.14627643  1
  O2-  O427  1  0.84116530  0.66578224  0.47584599  1
  O2-  O428  1  0.81581811  0.65615889  0.79863669  1
  O2-  O429  1  0.82476426  0.91666983  0.15074607  1
  O2-  O430  1  0.83161606  0.91434417  0.47201912  1
  O2-  O431  1  0.80832334  0.91620295  0.80904846  1
  O2-  O432  1  0.15304277  0.07209390  0.18806865  1
  O2-  O433  1  0.16760891  0.08186221  0.52032591  1
  O2-  O434  1  0.16082881  0.07402564  0.85267537  1
  O2-  O435  1  0.16712937  0.34490673  0.19781707  1
  O2-  O436  1  0.16408458  0.34104628  0.52357765  1
  O2-  O437  1  0.13683942  0.32621697  0.85578280  1
  O2-  O438  1  0.16401358  0.58340644  0.17870791  1
  O2-  O439  1  0.16010415  0.58200355  0.52086155  1
  O2-  O440  1  0.23019336  0.60020905  0.85143924  1
  O2-  O441  1  0.16568252  0.83415610  0.18039348  1
  O2-  O442  1  0.16947428  0.83153864  0.51785758  1
  O2-  O443  1  0.17404530  0.83668871  0.85577083  1
  O2-  O444  1  0.41749599  0.08184205  0.18263638  1
  O2-  O445  1  0.40928126  0.08200530  0.52109222  1
  O2-  O446  1  0.42828517  0.06848989  0.86194272  1
  O2-  O447  1  0.43139145  0.35530524  0.17775175  1
  O2-  O448  1  0.42481638  0.34105571  0.51398843  1
  O2-  O449  1  0.39895716  0.32639759  0.86677191  1
  O2-  O450  1  0.41453124  0.58176311  0.19004132  1
  O2-  O451  1  0.44084214  0.58478449  0.52687442  1
  O2-  O452  1  0.40717465  0.58011153  0.86136536  1
  O2-  O453  1  0.42191075  0.83945068  0.18814366  1
  O2-  O454  1  0.41121421  0.82085059  0.51086449  1
  O2-  O455  1  0.40764825  0.82830209  0.86114461  1
  O2-  O456  1  0.67828588  0.09029286  0.18995928  1
  O2-  O457  1  0.64916727  0.07784299  0.52261474  1
  O2-  O458  1  0.69211903  0.10910167  0.83347250  1
  O2-  O459  1  0.67572159  0.33745136  0.17923432  1
  O2-  O460  1  0.66651894  0.33577370  0.49889823  1
  O2-  O461  1  0.66171318  0.33753475  0.85432346  1
  O2-  O462  1  0.67029385  0.59269377  0.19096052  1
  O2-  O463  1  0.67566650  0.57886292  0.51424179  1
  O2-  O464  1  0.65304131  0.58649621  0.85069585  1
  O2-  O465  1  0.65738296  0.83151083  0.19525637  1
  O2-  O466  1  0.67094140  0.82981043  0.51657195  1
  O2-  O467  1  0.65463253  0.83262833  0.86099679  1
  O2-  O468  1  0.91444381  0.09262278  0.18321872  1
  O2-  O469  1  0.91088121  0.07871879  0.50349654  1
  O2-  O470  1  0.94713350  0.15644237  0.84367485  1
  O2-  O471  1  0.91166349  0.33524550  0.15882101  1
  O2-  O472  1  0.92569521  0.31286839  0.55069399  1
  O2-  O473  1  0.93064467  0.37702482  0.87930216  1
  O2-  O474  1  0.92015085  0.59105894  0.18376285  1
  O2-  O475  1  0.91800411  0.57704891  0.51782291  1
  O2-  O476  1  0.92016313  0.58016161  0.87941110  1
  O2-  O477  1  0.91009941  0.83652543  0.18150467  1
  O2-  O478  1  0.91529557  0.83478517  0.51759493  1
  O2-  O479  1  0.92104366  0.79580170  0.84956943  1
  O2-  O480  1  0.16704592  0.07654351  0.30946574  1
  O2-  O481  1  0.16755041  0.08554109  0.64289508  1
  O2-  O482  1  0.14428077  0.06750892  0.97456476  1
  O2-  O483  1  0.17271922  0.34358394  0.32302535  1
  O2-  O484  1  0.20752116  0.41343334  0.64030373  1
  O2-  O485  1  0.16964460  0.33224471  0.98057500  1
  O2-  O486  1  0.19358307  0.60624332  0.30469686  1
  O2-  O487  1  0.15335214  0.59006358  0.64949555  1
  O2-  O488  1  0.22989362  0.67576351  0.94893001  1
  O2-  O489  1  0.16744962  0.83855940  0.29955622  1
  O2-  O490  1  0.16477847  0.83634033  0.64135033  1
  O2-  O491  1  0.16244149  0.83128385  0.97719750  1
  O2-  O492  1  0.41894272  0.08868761  0.30563076  1
  O2-  O493  1  0.41518376  0.08397425  0.64413539  1
  O2-  O494  1  0.45107259  0.04001302  0.96541028  1
  O2-  O495  1  0.41071037  0.33480605  0.30561277  1
  O2-  O496  1  0.41943785  0.34516005  0.63830583  1
  O2-  O497  1  0.38074398  0.32481221  0.97735555  1
  O2-  O498  1  0.48002606  0.62109081  0.35383789  1
  O2-  O499  1  0.45924601  0.57407555  0.64057370  1
  O2-  O500  1  0.41635829  0.58053060  0.98542551  1
  O2-  O501  1  0.42022688  0.83847188  0.35061642  1
  O2-  O502  1  0.40558524  0.82428172  0.64455209  1
  O2-  O503  1  0.42319164  0.83648952  0.98415474  1
  O2-  O504  1  0.67545857  0.08925847  0.31572515  1
  O2-  O505  1  0.67008718  0.09492530  0.65487251  1
  O2-  O506  1  0.65440510  0.06727922  0.98882755  1
  O2-  O507  1  0.66125728  0.33346837  0.30267016  1
  O2-  O508  1  0.68187075  0.34449966  0.66415878  1
  O2-  O509  1  0.68868764  0.30633728  0.97044036  1
  O2-  O510  1  0.65839305  0.58501701  0.31396718  1
  O2-  O511  1  0.65942525  0.57498759  0.63382322  1
  O2-  O512  1  0.66084159  0.60132580  0.97830132  1
  O2-  O513  1  0.65054432  0.82387847  0.31705370  1
  O2-  O514  1  0.66861690  0.84118387  0.63982806  1
  O2-  O515  1  0.66944909  0.84045554  0.98247686  1
  O2-  O516  1  0.90867364  0.08117736  0.30685645  1
  O2-  O517  1  0.92011597  0.07997201  0.63268048  1
  O2-  O518  1  0.91054038  0.10461377  0.95735275  1
  O2-  O519  1  0.88271333  0.32374253  0.39422415  1
  O2-  O520  1  0.91622709  0.32845964  0.67773146  1
  O2-  O521  1  0.84238455  0.32177801  0.98729809  1
  O2-  O522  1  0.91662382  0.59073081  0.30592912  1
  O2-  O523  1  0.91461208  0.58732085  0.64431326  1
  O2-  O524  1  0.92815485  0.53162922  0.99474332  1
  O2-  O525  1  0.89761713  0.82714024  0.30440505  1
  O2-  O526  1  0.91896067  0.84009837  0.64364652  1
  O2-  O527  1  0.91518969  0.82915971  0.97136522  1
  O2-  O528  1  0.07490843  0.16861050  0.00352458  1
  O2-  O529  1  0.08837549  0.17659204  0.32360651  1
  O2-  O530  1  0.08389982  0.16208532  0.66995832  1
  O2-  O531  1  0.04529470  0.35200741  0.03585823  1
  O2-  O532  1  0.04941098  0.38807482  0.37046001  1
  O2-  O533  1  0.08723174  0.43162734  0.69862334  1
  O2-  O534  1  0.09508472  0.66878874  0.01827190  1
  O2-  O535  1  0.08723313  0.67458221  0.34684628  1
  O2-  O536  1  0.07712378  0.67861913  0.69058224  1
  O2-  O537  1  0.07708723  0.90854238  0.01715841  1
  O2-  O538  1  0.04520869  0.93425565  0.37294659  1
  O2-  O539  1  0.08522722  0.92137474  0.68610888  1
  O2-  O540  1  0.26902096  0.19739025  0.04909734  1
  O2-  O541  1  0.33378713  0.16950557  0.34805400  1
  O2-  O542  1  0.30083247  0.20308354  0.69931016  1
  O2-  O543  1  0.33010435  0.42005036  0.02433705  1
  O2-  O544  1  0.33786052  0.41863818  0.36005043  1
  O2-  O545  1  0.34506351  0.42477928  0.69656380  1
  O2-  O546  1  0.34639534  0.67497517  0.02477036  1
  O2-  O547  1  0.35496771  0.66993700  0.35115000  1
  O2-  O548  1  0.30947124  0.66126702  0.69402026  1
  O2-  O549  1  0.32857475  0.90480340  0.02023794  1
  O2-  O550  1  0.32979146  0.92376363  0.34849067  1
  O2-  O551  1  0.33007426  0.91415983  0.68715535  1
  O2-  O552  1  0.58525576  0.15163515  0.02135295  1
  O2-  O553  1  0.58295183  0.16778956  0.34885953  1
  O2-  O554  1  0.58227428  0.17069339  0.69272708  1
  O2-  O555  1  0.71311220  0.44513066  0.02357467  1
  O2-  O556  1  0.57913853  0.41623585  0.34529918  1
  O2-  O557  1  0.57586117  0.41534674  0.69075541  1
  O2-  O558  1  0.57905454  0.67321172  0.02498279  1
  O2-  O559  1  0.57532435  0.66464867  0.36019420  1
  O2-  O560  1  0.60398143  0.68993874  0.70601016  1
  O2-  O561  1  0.58260242  0.91707561  0.03243858  1
  O2-  O562  1  0.59598141  0.92590050  0.35813043  1
  O2-  O563  1  0.58283477  0.93103421  0.65041576  1
  O2-  O564  1  0.81459006  0.15758164  0.00890801  1
  O2-  O565  1  0.82768808  0.15511877  0.37547077  1
  O2-  O566  1  0.80293120  0.16904773  0.73669432  1
  O2-  O567  1  0.87086006  0.54492502  0.03527490  1
  O2-  O568  1  0.82376598  0.43052507  0.35007212  1
  O2-  O569  1  0.84281547  0.42718244  0.69977817  1
  O2-  O570  1  0.82858029  0.67310366  0.02423733  1
  O2-  O571  1  0.82650634  0.66771019  0.35009642  1
  O2-  O572  1  0.82686121  0.67064772  0.67626210  1
  O2-  O573  1  0.85187094  0.93166316  -0.00430568  1
  O2-  O574  1  0.81863982  0.91243318  0.34844719  1
  O2-  O575  1  0.83142182  0.91969932  0.68494892  1
