# generated using pymatgen
data_H2O
_symmetry_space_group_name_H-M   'P 1'
_cell_length_a   17.99406835
_cell_length_b   17.99655606
_cell_length_c   22.00972311
_cell_angle_alpha   89.99875002
_cell_angle_beta   89.99529994
_cell_angle_gamma   119.99335783
_symmetry_Int_Tables_number   1
_chemical_formula_structural   H2O
_chemical_formula_sum   'H384 O192'
_cell_volume   6172.95400798
_cell_formula_units_Z   192
loop_
 _symmetry_equiv_pos_site_id
 _symmetry_equiv_pos_as_xyz
  1  'x, y, z'
loop_
 _atom_type_symbol
 _atom_type_oxidation_number
  H+  1.0
  O2-  -2.0
loop_
 _atom_site_type_symbol
 _atom_site_label
 _atom_site_symmetry_multiplicity
 _atom_site_fract_x
 _atom_site_fract_y
 _atom_site_fract_z
 _atom_site_occupancy
  H+  H0  1  0.83093373  0.17288067  0.43541234  1
  H+  H1  1  0.82943420  0.90627244  0.73871426  1
  H+  H2  1  0.39675555  0.86698242  0.50194468  1
  H+  H3  1  0.61599756  0.22047444  0.15652743  1
  H+  H4  1  0.27505083  0.87889827  0.49603409  1
  H+  H5  1  0.34660710  0.43258442  0.04839882  1
  H+  H6  1  0.75770437  0.13630435  0.00911898  1
  H+  H7  1  0.10847380  0.39138913  0.33754455  1
  H+  H8  1  0.41245548  0.62061412  0.50327330  1
  H+  H9  1  0.34392534  0.64803127  0.08601540  1
  H+  H10  1  0.02008167  0.38693804  0.00386121  1
  H+  H11  1  0.37272613  0.02125033  0.66585920  1
  H+  H12  1  0.63292414  0.65246399  0.46677817  1
  H+  H13  1  0.89098292  0.28881834  0.84496116  1
  H+  H14  1  0.37162572  0.74792446  0.80961990  1
  H+  H15  1  0.98438627  0.70667918  0.95080066  1
  H+  H16  1  0.08080427  0.41745266  0.09585785  1
  H+  H17  1  0.27955524  0.13899788  0.68114397  1
  H+  H18  1  0.34109964  0.35657768  0.13557672  1
  H+  H19  1  0.57161819  0.09908256  0.82510650  1
  H+  H20  1  0.79249283  0.44371788  0.34762893  1
  H+  H21  1  0.26068258  0.13288142  1.00515630  1
  H+  H22  1  1.02980431  0.39135608  0.49398859  1
  H+  H23  1  0.85137514  0.42466056  0.09330016  1
  H+  H24  1  0.33814386  0.86714231  0.81611611  1
  H+  H25  1  0.97959438  0.37774022  0.32335073  1
  H+  H26  1  0.27439051  0.63544753  0.33634726  1
  H+  H27  1  0.06990744  0.41088298  0.73797361  1
  H+  H28  1  0.84882023  0.14339734  0.34239076  1
  H+  H29  1  0.13462798  0.52305390  0.50488075  1
  H+  H30  1  0.12111989  0.73002684  0.49148386  1
  H+  H31  1  0.10893435  -0.02713598  0.67288452  1
  H+  H32  1  0.36125744  0.96918699  0.49626765  1
  H+  H33  1  0.97926549  0.85973697  0.32516421  1
  H+  H34  1  0.12469032  0.64028846  0.15490122  1
  H+  H35  1  0.73544203  0.30082184  0.31118837  1
  H+  H36  1  0.59207200  0.60894176  0.82939082  1
  H+  H37  1  0.86444178  0.13984903  0.68606939  1
  H+  H38  1  0.13995454  0.12295670  0.82909703  1
  H+  H39  1  0.09530777  0.02948169  0.16324495  1
  H+  H40  1  0.12750652  0.11466626  0.98504498  1
  H+  H41  1  0.23238152  0.13383846  0.83540315  1
  H+  H42  1  0.15927699  0.33656216  0.26797014  1
  H+  H43  1  0.62795963  0.87815074  0.67185690  1
  H+  H44  1  0.34241184  0.18204437  0.73916459  1
  H+  H45  1  0.87787769  0.04214569  0.53466180  1
  H+  H46  1  0.58544212  0.01460275  0.98586902  1
  H+  H47  1  0.65245350  0.28396267  1.00242143  1
  H+  H48  1  0.45532603  1.11660690  0.83443722  1
  H+  H49  1  1.00118783  0.63362203  0.32036432  1
  H+  H50  1  0.54549208  0.69731916  -0.02270490  1
  H+  H51  1  0.88287582  0.84757182  0.50100246  1
  H+  H52  1  0.47755579  0.36949726  0.15851733  1
  H+  H53  1  0.89435957  0.38923909  0.16554155  1
  H+  H54  1  0.37122210  0.22567890  0.15329228  1
  H+  H55  1  0.13065765  0.36488602  0.17256331  1
  H+  H56  1  0.82007727  0.16824023  0.77245436  1
  H+  H57  1  0.32818525  0.25925217  0.29611175  1
  H+  H58  1  0.63583773  0.76710912  0.17103461  1
  H+  H59  1  0.15363323  0.77628244  -0.00303481  1
  H+  H60  1  0.11269890  0.98107329  0.82467090  1
  H+  H61  1  0.76465208  0.40643731  0.56884295  1
  H+  H62  1  0.62269987  0.01125929  0.85387961  1
  H+  H63  1  0.13234141  0.73526927  0.33593908  1
  H+  H64  1  0.87315111  0.48329819  0.15638938  1
  H+  H65  1  0.10144966  0.17452722  0.56131506  1
  H+  H66  1  0.39175375  0.61162172  0.32736875  1
  H+  H67  1  0.20694245  0.86010673  0.66579878  1
  H+  H68  1  0.22843065  0.10524102  0.50433222  1
  H+  H69  1  0.75779643  0.86233225  0.83538412  1
  H+  H70  1  0.75509474  0.85612767  0.33470808  1
  H+  H71  1  0.99079398  0.62357610  0.50404599  1
  H+  H72  1  0.64348601  0.76574107  0.66347386  1
  H+  H73  1  0.21450646  0.60878415  0.65980299  1
  H+  H74  1  0.36542095  0.46754899  0.67353191  1
  H+  H75  1  1.00429687  0.38299621  0.83132115  1
  H+  H76  1  0.51845264  0.12797772  0.66842827  1
  H+  H77  1  0.21481502  0.35144421  0.83772668  1
  H+  H78  1  0.10686754  0.22690754  0.18239208  1
  H+  H79  1  0.38777827  0.84462675  0.14990543  1
  H+  H80  1  0.89874370  0.61840326  0.50082288  1
  H+  H81  1  0.39114424  0.36691892  -0.01938743  1
  H+  H82  1  0.47942163  0.11303733  0.17550153  1
  H+  H83  1  0.88895428  0.52277166  0.84549845  1
  H+  H84  1  0.11756716  0.87570484  1.02585687  1
  H+  H85  1  0.72969162  0.36128983  0.84692495  1
  H+  H86  1  0.10486342  0.73050049  0.66442195  1
  H+  H87  1  0.76857677  0.62817421  0.66970039  1
  H+  H88  1  0.57743696  0.21928404  0.50061104  1
  H+  H89  1  0.62352033  0.59953823  0.66859172  1
  H+  H90  1  0.64042487  0.78108709  0.90357924  1
  H+  H91  1  0.61321824  0.87734006  0.16252649  1
  H+  H92  1  0.73484917  0.61216417  0.16287298  1
  H+  H93  1  0.76531094  0.11999431  0.16133503  1
  H+  H94  1  0.41558921  0.85505487  0.65072945  1
  H+  H95  1  0.85141728  0.46691521  0.67263474  1
  H+  H96  1  0.33488444  0.90970422  0.40087069  1
  H+  H97  1  1.02336882  0.14377264  0.51876533  1
  H+  H98  1  0.87565975  0.10269893  0.17567498  1
  H+  H99  1  0.11478051  0.96760518  0.49177250  1
  H+  H100  1  0.33634666  0.16142656  0.43513095  1
  H+  H101  1  0.71425738  0.35464715  0.66457883  1
  H+  H102  1  0.52837516  0.87843700  0.48676157  1
  H+  H103  1  0.34969670  0.22191870  0.00589224  1
  H+  H104  1  0.88380922  0.61116469  0.65857923  1
  H+  H105  1  0.15632607  0.61431142  -0.01004535  1
  H+  H106  1  0.47213380  0.12588841  0.99275063  1
  H+  H107  1  0.37900996  0.11996604  -0.00564706  1
  H+  H108  1  0.88045870  0.64702033  0.33281476  1
  H+  H109  1  0.33236286  0.41778299  0.43590678  1
  H+  H110  1  0.16183611  0.83695206  0.90685813  1
  H+  H111  1  0.36695709  0.38906811  0.49431487  1
  H+  H112  1  0.85038522  0.94149717  0.47441942  1
  H+  H113  1  0.25110280  0.39060330  0.34682764  1
  H+  H114  1  0.11737165  0.63893436  0.49113426  1
  H+  H115  1  0.13425388  0.86044330  0.18034561  1
  H+  H116  1  0.52074477  0.37322248  0.99704272  1
  H+  H117  1  0.09833921  0.38414013  0.82377708  1
  H+  H118  1  0.61728452  0.47649216  0.15432676  1
  H+  H119  1  0.36361653  0.22177906  0.49476549  1
  H+  H120  1  0.60166665  0.19649443  0.34414211  1
  H+  H121  1  0.11352191  0.47335208  0.00485192  1
  H+  H122  1  0.90457962  0.37293174  0.50594254  1
  H+  H123  1  0.66788701  0.96737122  0.01022440  1
  H+  H124  1  0.35407608  0.99863539  0.15117765  1
  H+  H125  1  0.55691806  0.45203176  0.44478009  1
  H+  H126  1  0.11845962  0.48128938  0.15413917  1
  H+  H127  1  0.61286642  0.61824835  0.32266187  1
  H+  H128  1  0.87858893  0.72856272  0.48659234  1
  H+  H129  1  0.60778293  -0.04191192  0.33788099  1
  H+  H130  1  -0.03664705  0.12784135  0.33047926  1
  H+  H131  1  0.73499430  0.36258132  0.16275769  1
  H+  H132  1  0.22490233  0.87146668  0.16799793  1
  H+  H133  1  -0.01276551  0.12022932  0.67470992  1
  H+  H134  1  0.38499776  0.59918598  0.65456808  1
  H+  H135  1  0.98098618  0.00728198  0.89360117  1
  H+  H136  1  0.37162036  0.99228254  -0.00765587  1
  H+  H137  1  0.23581679  0.60997888  0.15925715  1
  H+  H138  1  0.37571169  0.16469008  0.83662768  1
  H+  H139  1  0.60107518  0.13572720  0.00614323  1
  H+  H140  1  0.26220704  0.31046856  0.09189566  1
  H+  H141  1  0.15405141  0.05046929  0.25599613  1
  H+  H142  1  0.88309818  0.39986855  0.00800623  1
  H+  H143  1  0.10007196  0.47043978  0.67784197  1
  H+  H144  1  0.96208433  0.98339154  0.05632171  1
  H+  H145  1  0.61114666  0.35057618  0.51491586  1
  H+  H146  1  0.99503459  0.08507706  0.85280248  1
  H+  H147  1  0.88310610  0.85863325  0.65984464  1
  H+  H148  1  0.60730100  0.36916739  0.67414742  1
  H+  H149  1  0.53424590  0.63743307  0.47115560  1
  H+  H150  1  0.38632697  0.26834031  0.66425932  1
  H+  H151  1  0.74548866  0.62328601  0.32125901  1
  H+  H152  1  0.00998570  0.63211786  0.66375671  1
  H+  H153  1  0.27783927  0.98144066  0.10876858  1
  H+  H154  1  0.84134795  0.12961987  1.00303917  1
  H+  H155  1  0.88566387  0.77033491  1.00006439  1
  H+  H156  1  0.90157474  0.09295194  0.27387778  1
  H+  H157  1  0.77369977  0.13630287  0.67668527  1
  H+  H158  1  -0.01264319  0.61746764  0.16471027  1
  H+  H159  1  0.67507544  0.33776432  0.32681340  1
  H+  H160  1  -0.00618769  0.12948378  -0.00351526  1
  H+  H161  1  0.87335326  0.64098328  0.15517221  1
  H+  H162  1  0.84498200  0.14249756  0.83480693  1
  H+  H163  1  0.12719372  0.51416989  0.83443785  1
  H+  H164  1  0.64271122  0.12161405  0.51087406  1
  H+  H165  1  0.50459741  0.11633897  0.34392734  1
  H+  H166  1  0.73329179  0.85613138  0.66348530  1
  H+  H167  1  0.11317133  0.96708060  0.33669634  1
  H+  H168  1  0.38686374  0.86141847  0.33685882  1
  H+  H169  1  0.91204774  0.54614901  0.32185935  1
  H+  H170  1  0.34079691  0.65882041  0.55650790  1
  H+  H171  1  0.57392388  0.16318476  0.06689397  1
  H+  H172  1  0.61254987  0.38528300  0.15445022  1
  H+  H173  1  0.11440360  0.26714838  -0.01932328  1
  H+  H174  1  0.38702494  0.11559480  0.66478830  1
  H+  H175  1  0.14620401  0.28924976  0.51208352  1
  H+  H176  1  0.79548040  0.40136168  0.01197820  1
  H+  H177  1  0.88870460  0.28101151  -0.01235105  1
  H+  H178  1  0.89644063  0.38685154  0.31978818  1
  H+  H179  1  0.89238346  0.49681625  0.49103450  1
  H+  H180  1  0.36727827  0.71298627  0.14180751  1
  H+  H181  1  0.04498842  0.64909095  -0.00232419  1
  H+  H182  1  0.13848887  0.10241649  0.50938310  1
  H+  H183  1  0.75698726  0.44308591  0.56208297  1
  H+  H184  1  0.86525556  0.64767850  -0.00070879  1
  H+  H185  1  0.35920993  0.31750781  0.82790392  1
  H+  H186  1  0.61012178  0.13163534  0.66979158  1
  H+  H187  1  0.49808635  0.84815628  0.65366785  1
  H+  H188  1  0.48199613  0.85690105  0.33428288  1
  H+  H189  1  0.57623268  0.40978465  0.05662210  1
  H+  H190  1  0.62026413  0.83791505  0.85954414  1
  H+  H191  1  0.32792934  0.88580207  0.68130206  1
  H+  H192  1  0.82490895  0.66590999  0.72839992  1
  H+  H193  1  0.60352250  0.39518899  0.34422322  1
  H+  H194  1  0.23859729  0.86942125  0.99156506  1
  H+  H195  1  0.61987616  0.30871141  0.57693954  1
  H+  H196  1  -0.02403417  0.85791607  0.84318840  1
  H+  H197  1  0.22036278  0.09959529  0.30898833  1
  H+  H198  1  0.62204637  0.64322740  0.15668590  1
  H+  H199  1  0.11692020  0.85528471  0.65965676  1
  H+  H200  1  0.37801110  0.10515561  0.51074675  1
  H+  H201  1  -0.02672656  0.86430516  0.17776483  1
  H+  H202  1  0.93256829  0.59439318  0.22572800  1
  H+  H203  1  0.63209417  0.50814384  0.48968119  1
  H+  H204  1  0.49270454  0.11869400  0.50075548  1
  H+  H205  1  0.37283105  0.73011631  0.50717478  1
  H+  H206  1  0.85353637  0.94501486  0.83737224  1
  H+  H207  1  0.87379845  0.73264639  0.33505214  1
  H+  H208  1  0.64783562  0.07695551  0.93589148  1
  H+  H209  1  0.18347168  0.58848449  0.22234290  1
  H+  H210  1  0.12431692  0.35986514  0.98639914  1
  H+  H211  1  0.87303213  0.38997362  0.83487105  1
  H+  H212  1  0.36459687  0.12423928  0.33714035  1
  H+  H213  1  0.14737077  0.86428180  0.32537074  1
  H+  H214  1  0.60553714  0.86588406  0.33166731  1
  H+  H215  1  0.70939500  0.09969311  0.33138697  1
  H+  H216  1  0.88695682  0.13106576  0.51628029  1
  H+  H217  1  0.71825167  0.63697563  -0.00942802  1
  H+  H218  1  0.75389841  0.64084230  0.48931009  1
  H+  H219  1  0.08416767  0.91149976  0.11102442  1
  H+  H220  1  0.71995589  0.85028921  0.50459977  1
  H+  H221  1  0.43532340  0.91538317  0.98683825  1
  H+  H222  1  0.59670918  0.90877132  0.10012000  1
  H+  H223  1  0.99214253  0.38546251  0.16769577  1
  H+  H224  1  0.72469753  0.85987216  0.17441360  1
  H+  H225  1  0.62148309  0.86993595  0.49478603  1
  H+  H226  1  0.86702168  0.97554530  0.68454649  1
  H+  H227  1  0.85965470  0.97312061  0.17370514  1
  H+  H228  1  0.62618084  0.00928520  0.17019824  1
  H+  H229  1  0.33099335  0.38107993  0.33628852  1
  H+  H230  1  0.39399270  0.60407417  0.16551804  1
  H+  H231  1  0.12216663  0.72813659  0.15651107  1
  H+  H232  1  0.12771250  0.27300412  0.32533876  1
  H+  H233  1  0.84737197  0.72234501  0.82582806  1
  H+  H234  1  0.85231388  0.37936988  0.67152354  1
  H+  H235  1  0.10349969  0.23732460  0.82906735  1
  H+  H236  1  0.49017974  0.34441388  0.36156661  1
  H+  H237  1  0.66996355  0.52824797  0.31945654  1
  H+  H238  1  0.32166436  0.64176275  0.72603062  1
  H+  H239  1  0.12172684  0.39821861  0.49158710  1
  H+  H240  1  0.88231496  0.27243003  0.66146260  1
  H+  H241  1  0.34932534  0.61409115  0.81924358  1
  H+  H242  1  0.34478283  0.93441385  0.05096920  1
  H+  H243  1  0.36130252  0.70694443  0.66974055  1
  H+  H244  1  0.64776035  0.36911476  0.99776212  1
  H+  H245  1  0.73271612  0.12550459  0.50942548  1
  H+  H246  1  0.47630281  0.35768689  0.51450302  1
  H+  H247  1  0.69727969  0.58458985  0.84330506  1
  H+  H248  1  0.13435772  0.36767345  0.66581168  1
  H+  H249  1  0.87003685  0.23511971  0.49349136  1
  H+  H250  1  0.52433491  0.62992514  0.67424953  1
  H+  H251  1  0.23936695  0.60271191  0.98366132  1
  H+  H252  1  0.70571191  0.10539445  0.84288395  1
  H+  H253  1  0.62350214  0.75806946  0.31293253  1
  H+  H254  1  0.23648127  0.37685833  0.50918611  1
  H+  H255  1  0.38135815  0.01007418  0.32311999  1
  H+  H256  1  0.39302806  0.12044774  0.17432702  1
  H+  H257  1  0.41760572  0.82556762  0.76456798  1
  H+  H258  1  0.84771737  0.85984231  0.33681529  1
  H+  H259  1  0.64378006  1.02361296  0.65755702  1
  H+  H260  1  0.38575099  0.35801310  0.66338729  1
  H+  H261  1  0.37674414  0.51656219  0.32959040  1
  H+  H262  1  0.51512956  0.35517383  0.83641018  1
  H+  H263  1  0.10484136  0.17820333  0.73005428  1
  H+  H264  1  0.42061464  0.57964027  0.22743747  1
  H+  H265  1  0.27306643  0.38343104  0.67435278  1
  H+  H266  1  0.14838871  0.11560380  0.65995160  1
  H+  H267  1  0.90420079  0.89992931  0.01924198  1
  H+  H268  1  0.88257151  0.84833712  0.84655922  1
  H+  H269  1  0.11035504  0.72318452  0.83381340  1
  H+  H270  1  0.61157889  0.49268538  0.84964534  1
  H+  H271  1  0.12776874  0.23815562  0.67177608  1
  H+  H272  1  0.49413832  0.38858651  0.36654155  1
  H+  H273  1  0.60835294  0.12713919  0.15975411  1
  H+  H274  1  0.39117355  0.50475008  -0.00117969  1
  H+  H275  1  0.53990673  0.89802673  0.90640101  1
  H+  H276  1  0.61383488  0.08248033  0.33223896  1
  H+  H277  1  0.33311289  0.15896188  0.09992701  1
  H+  H278  1  0.35208874  0.45046769  0.83206855  1
  H+  H279  1  0.16881021  0.57431663  0.89316310  1
  H+  H280  1  0.46007644  0.59248618  0.83932070  1
  H+  H281  1  0.11355430  0.63672146  0.82869204  1
  H+  H282  1  0.51599291  0.61281791  0.32493594  1
  H+  H283  1  1.01635214  0.88572213  0.67161480  1
  H+  H284  1  0.96649702  0.10565802  0.18557832  1
  H+  H285  1  0.21318089  0.35288931  0.16809351  1
  H+  H286  1  0.60512783  0.46449038  0.67623671  1
  H+  H287  1  0.57810774  0.65312947  0.73647898  1
  H+  H288  1  0.61067929  0.37047536  0.84284496  1
  H+  H289  1  0.02540122  0.87912271  0.49130343  1
  H+  H290  1  0.40804438  0.52988723  0.49810818  1
  H+  H291  1  0.40744136  0.07574401  0.57251341  1
  H+  H292  1  0.88169261  0.76883500  0.65754048  1
  H+  H293  1  0.14050355  0.86048114  0.50454062  1
  H+  H294  1  0.41151792  0.11297191  0.90060135  1
  H+  H295  1  0.62481133  0.26265878  0.66783417  1
  H+  H296  1  0.40487841  0.34047951  0.21050847  1
  H+  H297  1  0.64405025  0.56130557  0.60932356  1
  H+  H298  1  0.76457604  0.70879617  0.79465447  1
  H+  H299  1  0.92513779  0.34295424  0.92648339  1
  H+  H300  1  0.12867560  0.86391731  0.84697238  1
  H+  H301  1  0.38415660  0.76480103  0.33586522  1
  H+  H302  1  0.67315779  0.08822768  0.60081952  1
  H+  H303  1  0.41327724  0.07499693  0.26427409  1
  H+  H304  1  0.32602321  0.40037524  0.76940553  1
  H+  H305  1  0.65771178  0.43489535  0.40178045  1
  H+  H306  1  0.16995071  0.34752507  0.60435079  1
  H+  H307  1  0.17963907  0.83719144  0.26511056  1
  H+  H308  1  0.08641347  0.15651353  0.39009324  1
  H+  H309  1  0.50509907  0.86551791  0.84190325  1
  H+  H310  1  0.91611446  0.82643698  0.56302395  1
  H+  H311  1  0.40172220  0.22015547  0.35325328  1
  H+  H312  1  0.43599139  0.83932015  0.55827866  1
  H+  H313  1  0.80705949  0.40740789  0.49077587  1
  H+  H314  1  0.55136303  0.13118868  0.76350439  1
  H+  H315  1  0.83194482  0.66524260  0.06232960  1
  H+  H316  1  0.02589301  0.87089743  0.02367769  1
  H+  H317  1  0.82437568  0.15330508  0.10299257  1
  H+  H318  1  0.58803298  0.89638364  0.42467486  1
  H+  H319  1  0.65855572  0.82519170  0.25713554  1
  H+  H320  1  0.70520938  0.65986889  0.54184536  1
  H+  H321  1  0.53174237  0.63963192  0.16013262  1
  H+  H322  1  0.83510415  0.41294532  0.77539976  1
  H+  H323  1  0.89903922  0.05752027  0.93636224  1
  H+  H324  1  0.88192427  0.01880820  1.00248605  1
  H+  H325  1  0.59641253  0.70114998  0.82874594  1
  H+  H326  1  0.85390080  0.44209831  0.39867108  1
  H+  H327  1  0.92468398  0.83089075  0.94151474  1
  H+  H328  1  0.15482285  0.58000331  0.60082530  1
  H+  H329  1  0.07862285  0.91634284  0.76865379  1
  H+  H330  1  0.93613130  0.61440534  0.92111260  1
  H+  H331  1  0.16541470  0.09132429  0.92814896  1
  H+  H332  1  0.25970270  0.61545294  0.81893464  1
  H+  H333  1  0.11263647  0.16032208  0.14018620  1
  H+  H334  1  0.84518037  0.91968238  0.11297185  1
  H+  H335  1  0.92203236  0.09682518  0.62050359  1
  H+  H336  1  0.48914815  0.87095958  1.00535804  1
  H+  H337  1  0.62970912  0.68738530  -0.02463310  1
  H+  H338  1  0.16516305  0.83100827  0.56636198  1
  H+  H339  1  0.58378993  0.65371554  0.39635076  1
  H+  H340  1  0.14726419  0.53065232  0.32222672  1
  H+  H341  1  0.39922042  0.57595043  0.89627274  1
  H+  H342  1  0.17651617  0.07912762  0.60335979  1
  H+  H343  1  0.51049838  0.37134842  0.67181325  1
  H+  H344  1  0.47642236  0.84812601  0.15806795  1
  H+  H345  1  0.65122772  0.06498240  0.23101619  1
  H+  H346  1  0.10698973  0.12947243  0.32722999  1
  H+  H347  1  0.84156645  0.22725204  0.33758286  1
  H+  H348  1  0.67880265  0.58387565  0.22291145  1
  H+  H349  1  0.59519679  0.91096423  0.72773193  1
  H+  H350  1  0.09844593  0.67337187  0.39449094  1
  H+  H351  1  0.91805400  0.82927283  0.26547241  1
  H+  H352  1  0.27771046  0.87945271  0.33896605  1
  H+  H353  1  0.32862771  0.65876802  0.39859567  1
  H+  H354  1  0.55819918  0.15484420  0.43559836  1
  H+  H355  1  0.65798880  0.81933874  1.01303828  1
  H+  H356  1  0.80899282  0.87203346  0.42269869  1
  H+  H357  1  0.67757226  0.33485969  0.90805902  1
  H+  H358  1  0.92270889  0.33597776  0.56740247  1
  H+  H359  1  0.15251741  0.62192450  0.32089013  1
  H+  H360  1  0.10782339  0.63546396  0.66434286  1
  H+  H361  1  0.65111686  0.59120328  0.93720966  1
  H+  H362  1  0.42766047  0.57731023  0.59798386  1
  H+  H363  1  0.67635761  0.32343158  0.22105570  1
  H+  H364  1  0.39877882  0.31051782  0.92730883  1
  H+  H365  1  0.05631678  0.16891491  0.05235542  1
  H+  H366  1  0.92939357  0.35883272  0.23114325  1
  H+  H367  1  0.25404795  0.87499930  0.83003783  1
  H+  H368  1  0.41540825  0.34112827  0.30951686  1
  H+  H369  1  0.84919352  0.67109637  0.42425901  1
  H+  H370  1  0.15261694  0.32876550  0.89719537  1
  H+  H371  1  -0.02235473  0.61085876  0.83735478  1
  H+  H372  1  0.97065315  0.36110957  0.66270793  1
  H+  H373  1  0.88182942  0.86100398  0.17891505  1
  H+  H374  1  0.08511138  0.42728200  0.39639008  1
  H+  H375  1  0.22346351  0.61190292  0.51177501  1
  H+  H376  1  0.86741556  0.72711810  0.15753943  1
  H+  H377  1  0.08606618  0.90875976  0.39691820  1
  H+  H378  1  0.41332079  0.32669625  0.57060198  1
  H+  H379  1  0.09666297  0.66627167  0.06042962  1
  H+  H380  1  0.91681869  0.58500182  0.59818473  1
  H+  H381  1  0.01852104  0.17741853  0.79014423  1
  H+  H382  1  0.66684808  0.83353339  0.56764340  1
  H+  H383  1  0.30522608  0.91397461  0.74472980  1
  O2-  O384  1  0.08161285  0.16363120  0.17525336  1
  O2-  O385  1  0.08733118  0.17045683  0.51811147  1
  O2-  O386  1  0.06583061  0.17473519  0.80974045  1
  O2-  O387  1  0.08206499  0.41923794  0.14225336  1
  O2-  O388  1  0.08896756  0.42570316  0.47618452  1
  O2-  O389  1  0.06855216  0.41420275  0.80886664  1
  O2-  O390  1  0.09250248  0.66863381  0.13984566  1
  O2-  O391  1  0.08913864  0.67041905  0.47431919  1
  O2-  O392  1  0.08231265  0.66583595  0.81465381  1
  O2-  O393  1  0.08154525  0.91538979  0.15994682  1
  O2-  O394  1  0.08569699  0.90766646  0.47577801  1
  O2-  O395  1  0.07890063  0.91916374  0.81391958  1
  O2-  O396  1  0.34303176  0.16323690  0.14476421  1
  O2-  O397  1  0.33478117  0.16089067  0.48041614  1
  O2-  O398  1  0.34070512  0.19890960  0.81645577  1
  O2-  O399  1  0.29113704  0.36030786  0.11847500  1
  O2-  O400  1  0.34134974  0.42420752  0.48110793  1
  O2-  O401  1  0.32121960  0.39169694  0.81421081  1
  O2-  O402  1  0.33528880  0.65053574  0.13017859  1
  O2-  O403  1  0.34268664  0.66585712  0.51232697  1
  O2-  O404  1  0.31977188  0.64299255  0.80004645  1
  O2-  O405  1  0.30742577  0.95260188  0.12495750  1
  O2-  O406  1  0.33568429  0.90978150  0.47996920  1
  O2-  O407  1  0.31056612  0.90158734  0.80782474  1
  O2-  O408  1  0.57878958  0.15886162  0.14564185  1
  O2-  O409  1  0.55645388  0.15788668  0.48270192  1
  O2-  O410  1  0.52559238  0.10112597  0.80191644  1
  O2-  O411  1  0.58146857  0.41501388  0.14157947  1
  O2-  O412  1  0.59967114  0.45006110  0.47126209  1
  O2-  O413  1  0.57548983  0.39714427  0.82866553  1
  O2-  O414  1  0.59303346  0.67612353  0.14710815  1
  O2-  O415  1  0.59041403  0.66617355  0.44724896  1
  O2-  O416  1  0.56581830  0.64221187  0.81083428  1
  O2-  O417  1  0.58332100  0.90699575  0.14411980  1
  O2-  O418  1  0.58872669  0.89966871  0.47115763  1
  O2-  O419  1  0.56009096  0.89610042  0.86490413  1
  O2-  O420  1  0.82576206  0.14712612  0.14765837  1
  O2-  O421  1  0.83751890  0.17342213  0.48076249  1
  O2-  O422  1  0.81190573  0.16671737  0.81768918  1
  O2-  O423  1  0.84678027  0.42221705  0.14215664  1
  O2-  O424  1  0.86452336  0.43635455  0.47297001  1
  O2-  O425  1  0.83766361  0.41720093  0.81993667  1
  O2-  O426  1  0.83972763  0.66785639  0.14039286  1
  O2-  O427  1  0.84582328  0.66798947  0.47031160  1
  O2-  O428  1  0.79816561  0.68033705  0.80040456  1
  O2-  O429  1  0.83243377  0.91255008  0.15714711  1
  O2-  O430  1  0.81530129  0.87933177  0.47105202  1
  O2-  O431  1  0.81707930  0.88890195  0.81748525  1
  O2-  O432  1  0.13251819  0.00729458  0.17684733  1
  O2-  O433  1  0.16903932  0.07173656  0.52122661  1
  O2-  O434  1  0.16999363  0.09410314  0.84447820  1
  O2-  O435  1  0.15913755  0.33497941  0.19160107  1
  O2-  O436  1  0.17590059  0.35053884  0.52395453  1
  O2-  O437  1  0.15344843  0.32542986  0.85028820  1
  O2-  O438  1  0.17660350  0.58481381  0.17754301  1
  O2-  O439  1  0.16196826  0.58300634  0.52266849  1
  O2-  O440  1  0.16617533  0.57554400  0.84798237  1
  O2-  O441  1  0.16962885  0.83288881  0.18920479  1
  O2-  O442  1  0.17187724  0.83179988  0.52123837  1
  O2-  O443  1  0.15814712  0.83304083  0.86155007  1
  O2-  O444  1  0.41890083  0.08534493  0.19139364  1
  O2-  O445  1  0.40886759  0.07500114  0.52610707  1
  O2-  O446  1  0.40575981  0.11776776  0.85570363  1
  O2-  O447  1  0.41385922  0.33683466  0.16681632  1
  O2-  O448  1  0.41509855  0.32741716  0.52472639  1
  O2-  O449  1  0.38977228  0.28709020  0.84244700  1
  O2-  O450  1  0.42797784  0.57984167  0.18323013  1
  O2-  O451  1  0.44598140  0.59135592  0.51099484  1
  O2-  O452  1  0.39865675  0.56318832  0.85240777  1
  O2-  O453  1  0.41374174  0.81390020  0.16832670  1
  O2-  O454  1  0.43074196  0.83811360  0.51311339  1
  O2-  O455  1  0.40446529  0.81302439  0.80750137  1
  O2-  O456  1  0.65345055  0.06961480  0.18619722  1
  O2-  O457  1  0.67372540  0.09420005  0.52693024  1
  O2-  O458  1  0.64701471  0.07377670  0.86077572  1
  O2-  O459  1  0.67412773  0.33025849  0.17686659  1
  O2-  O460  1  0.59118318  0.29602747  0.53610232  1
  O2-  O461  1  0.67017246  0.33022758  0.86323622  1
  O2-  O462  1  0.67423344  0.58090413  0.17817517  1
  O2-  O463  1  0.69320657  0.62380819  0.50583808  1
  O2-  O464  1  0.63833453  0.55704430  0.85906298  1
  O2-  O465  1  0.66359842  0.82914254  0.18821971  1
  O2-  O466  1  0.66192038  0.83218318  0.52244685  1
  O2-  O467  1  0.65140602  0.80522990  0.86103392  1
  O2-  O468  1  0.90497710  0.07358215  0.19676027  1
  O2-  O469  1  0.91608947  0.10364140  0.53962653  1
  O2-  O470  1  0.95009954  0.03264333  0.87412428  1
  O2-  O471  1  0.93053040  0.36055675  0.18496942  1
  O2-  O472  1  0.92849219  0.33748080  0.52176287  1
  O2-  O473  1  0.92613552  0.34784619  0.85934140  1
  O2-  O474  1  0.92702402  0.58813641  0.18063031  1
  O2-  O475  1  0.92961981  0.59061194  0.51934761  1
  O2-  O476  1  0.91899410  0.58519482  0.85577813  1
  O2-  O477  1  0.91237669  0.82881295  0.19092141  1
  O2-  O478  1  0.91960613  0.82490828  0.51765542  1
  O2-  O479  1  0.91762945  0.82355911  0.86186253  1
  O2-  O480  1  0.15905125  0.06890793  0.29911443  1
  O2-  O481  1  0.17569846  0.08105882  0.64858224  1
  O2-  O482  1  0.16169385  0.08821383  0.97297702  1
  O2-  O483  1  0.15535239  0.33457624  0.31360922  1
  O2-  O484  1  0.16769482  0.34058237  0.64938608  1
  O2-  O485  1  0.14880756  0.32698733  0.96652597  1
  O2-  O486  1  0.18289693  0.59095098  0.30683516  1
  O2-  O487  1  0.15371623  0.58363118  0.64627189  1
  O2-  O488  1  0.17790245  0.57680643  0.97349917  1
  O2-  O489  1  0.18163692  0.83758419  0.31093994  1
  O2-  O490  1  0.14916134  0.82563223  0.64558146  1
  O2-  O491  1  0.17517492  0.83756458  0.98499116  1
  O2-  O492  1  0.41018280  0.07169644  0.31068850  1
  O2-  O493  1  0.40888873  0.07902311  0.64671701  1
  O2-  O494  1  0.41248662  0.09466151  0.97556446  1
  O2-  O495  1  0.36016852  0.32131980  0.28882455  1
  O2-  O496  1  0.41769815  0.32910957  0.64734818  1
  O2-  O497  1  0.40479374  0.32051099  0.97152815  1
  O2-  O498  1  0.41629280  0.57583577  0.31391275  1
  O2-  O499  1  0.42143358  0.57391641  0.64274178  1
  O2-  O500  1  0.41038570  0.61771008  0.97683459  1
  O2-  O501  1  0.41728779  0.82802980  0.32292720  1
  O2-  O502  1  0.43769018  0.81856607  0.63643317  1
  O2-  O503  1  0.48917071  0.91354282  0.97792000  1
  O2-  O504  1  0.64975216  0.05962335  0.31615212  1
  O2-  O505  1  0.67153460  0.08502628  0.64690876  1
  O2-  O506  1  0.64128050  0.06904935  0.98139430  1
  O2-  O507  1  0.67724643  0.29070936  0.30506864  1
  O2-  O508  1  0.65129711  0.32436143  0.65301027  1
  O2-  O509  1  0.68655992  0.34460881  0.98952073  1
  O2-  O510  1  0.68413964  0.58626895  0.30699041  1
  O2-  O511  1  0.65135344  0.56503144  0.65334123  1
  O2-  O512  1  0.66002773  0.62111745  0.97666474  1
  O2-  O513  1  0.65299897  0.82010613  0.30411955  1
  O2-  O514  1  0.67294342  0.82573207  0.64730022  1
  O2-  O515  1  0.69147584  0.87758435  1.03286481  1
  O2-  O516  1  0.90322533  0.10421138  0.31844149  1
  O2-  O517  1  0.92468921  0.08939641  0.66499167  1
  O2-  O518  1  0.89102227  0.07017068  0.97880910  1
  O2-  O519  1  0.92049321  0.35134739  0.30513843  1
  O2-  O520  1  0.91155659  0.33176678  0.64432059  1
  O2-  O521  1  0.92516537  0.34122526  0.97479822  1
  O2-  O522  1  0.94037422  0.60520113  0.30497867  1
  O2-  O523  1  0.91628326  0.58281610  0.64364184  1
  O2-  O524  1  0.95439669  0.64656798  0.96302841  1
  O2-  O525  1  0.91826315  0.82825413  0.31136645  1
  O2-  O526  1  0.91274646  0.82920665  0.64219300  1
  O2-  O527  1  0.92565179  0.83206291  0.98684582  1
  O2-  O528  1  0.05625710  0.15917469  0.00884280  1
  O2-  O529  1  0.08409369  0.16393687  0.34639628  1
  O2-  O530  1  0.10175131  0.17631655  0.68505259  1
  O2-  O531  1  0.08004656  0.41454952  0.02238141  1
  O2-  O532  1  0.08367988  0.42772969  0.35098797  1
  O2-  O533  1  0.07336165  0.40995073  0.69104170  1
  O2-  O534  1  0.10320208  0.66870956  0.01526460  1
  O2-  O535  1  0.10137445  0.67351555  0.34913872  1
  O2-  O536  1  0.07441390  0.66604262  0.67574026  1
  O2-  O537  1  0.08072574  0.89487783  0.04668689  1
  O2-  O538  1  0.08585891  0.90686714  0.35143830  1
  O2-  O539  1  0.07618823  0.91248598  0.68793044  1
  O2-  O540  1  0.32074720  0.16170073  0.02192747  1
  O2-  O541  1  0.34713302  0.16607813  0.35376093  1
  O2-  O542  1  0.34097760  0.17287818  0.69390519  1
  O2-  O543  1  0.37048379  0.44387051  0.00714754  1
  O2-  O544  1  0.31299195  0.41644709  0.35984926  1
  O2-  O545  1  0.33363984  0.40738121  0.68866849  1
  O2-  O546  1  0.36165027  0.64525840  0.00033512  1
  O2-  O547  1  0.33558587  0.66669715  0.35463916  1
  O2-  O548  1  0.32432530  0.64559938  0.67968653  1
  O2-  O549  1  0.35086302  0.93131465  0.00641458  1
  O2-  O550  1  0.33876735  0.90812635  0.35546688  1
  O2-  O551  1  0.30408703  0.92046620  0.69589070  1
  O2-  O552  1  0.57425473  0.16879785  0.02174210  1
  O2-  O553  1  0.56193248  0.14218693  0.36574607  1
  O2-  O554  1  0.57866559  0.16135787  0.68339137  1
  O2-  O555  1  0.58025691  0.40418203  0.01233559  1
  O2-  O556  1  0.66352256  0.42566096  0.35800325  1
  O2-  O557  1  0.57360072  0.40116589  0.68668968  1
  O2-  O558  1  0.60790468  0.73034753  -0.02897176  1
  O2-  O559  1  0.57903491  0.64527052  0.33813216  1
  O2-  O560  1  0.58424287  0.65749614  0.69047841  1
  O2-  O561  1  0.63028893  0.90853305  0.02484469  1
  O2-  O562  1  0.57653084  0.89626611  0.35235026  1
  O2-  O563  1  0.59419137  0.90768687  0.68342664  1
  O2-  O564  1  0.81884109  0.16523208  0.02051866  1
  O2-  O565  1  0.81358713  0.17050946  0.35740261  1
  O2-  O566  1  0.83214752  0.16998178  0.69548607  1
  O2-  O567  1  0.85529355  0.42965079  0.02822049  1
  O2-  O568  1  0.84633294  0.44360232  0.35327281  1
  O2-  O569  1  0.81888767  0.40656333  0.68623616  1
  O2-  O570  1  0.82906645  0.66971478  0.01722167  1
  O2-  O571  1  0.84456074  0.67051945  0.34985441  1
  O2-  O572  1  0.82915900  0.66139621  0.68315354  1
  O2-  O573  1  0.90309339  0.94847549  0.04210877  1
  O2-  O574  1  0.80938213  0.87667355  0.35787893  1
  O2-  O575  1  0.83469256  0.91288029  0.69347522  1
