# generated using pymatgen
data_H2O
_symmetry_space_group_name_H-M   'P 1'
_cell_length_a   17.99480058
_cell_length_b   17.98476848
_cell_length_c   22.00015237
_cell_angle_alpha   89.98573269
_cell_angle_beta   89.99972505
_cell_angle_gamma   120.01363142
_symmetry_Int_Tables_number   1
_chemical_formula_structural   H2O
_chemical_formula_sum   'H384 O192'
_cell_volume   6165.21918303
_cell_formula_units_Z   192
loop_
 _symmetry_equiv_pos_site_id
 _symmetry_equiv_pos_as_xyz
  1  'x, y, z'
loop_
 _atom_type_symbol
 _atom_type_oxidation_number
  H+  1.0
  O2-  -2.0
loop_
 _atom_site_type_symbol
 _atom_site_label
 _atom_site_symmetry_multiplicity
 _atom_site_fract_x
 _atom_site_fract_y
 _atom_site_fract_z
 _atom_site_occupancy
  H+  H0  1  0.48407671  0.12099051  0.98815071  1
  H+  H1  1  0.26456175  0.89418982  0.66992431  1
  H+  H2  1  0.58577426  0.41097303  0.05975777  1
  H+  H3  1  0.09784745  0.96837374  0.68125582  1
  H+  H4  1  0.36798936  0.47766131  0.49354250  1
  H+  H5  1  0.07622063  0.23305355  0.34230082  1
  H+  H6  1  0.47057366  0.86058372  0.33930021  1
  H+  H7  1  0.10237844  0.72201970  0.16406685  1
  H+  H8  1  0.84667886  0.37698510  0.16709640  1
  H+  H9  1  0.80505112  0.39400455  0.69063121  1
  H+  H10  1  0.35289825  0.87811304  0.45524774  1
  H+  H11  1  0.96257962  0.61536180  0.65851034  1
  H+  H12  1  0.37751287  0.24563647  0.33011485  1
  H+  H13  1  0.34674927  -0.03830533  0.82368752  1
  H+  H14  1  0.24613741  0.10232607  0.98872850  1
  H+  H15  1  0.36015943  0.39127618  0.33683202  1
  H+  H16  1  0.61825106  0.76538123  0.15365421  1
  H+  H17  1  0.87926257  1.03046814  0.32954911  1
  H+  H18  1  0.22160777  0.85780095  0.99817864  1
  H+  H19  1  0.85786274  1.01364634  0.65518159  1
  H+  H20  1  0.00944872  0.38990471  0.82443901  1
  H+  H21  1  0.16378736  0.33171939  0.90105920  1
  H+  H22  1  0.09207940  0.12506650  0.67732686  1
  H+  H23  1  0.58449682  0.20228604  0.69399811  1
  H+  H24  1  0.13380931  0.86263844  0.99903356  1
  H+  H25  1  0.19762980  0.00622412  0.62085840  1
  H+  H26  1  0.54172610  0.64166115  0.83798371  1
  H+  H27  1  0.36884588  0.16281051  0.81696865  1
  H+  H28  1  0.35971188  0.83694398  0.84483497  1
  H+  H29  1  0.48624305  0.35684291  -0.00915811  1
  H+  H30  1  0.11984441  0.25539717  0.35729367  1
  H+  H31  1  0.19866259  0.62763757  0.66580778  1
  H+  H32  1  0.35616431  0.23892809  0.50622568  1
  H+  H33  1  0.62238635  1.02334387  0.16340836  1
  H+  H34  1  0.84344511  0.14674516  0.33821805  1
  H+  H35  1  0.12104809  -0.01778540  0.83046674  1
  H+  H36  1  0.21561296  0.61312214  0.18221337  1
  H+  H37  1  0.98757836  0.16462270  0.70759519  1
  H+  H38  1  0.00657526  0.01630764  0.36131622  1
  H+  H39  1  1.01930148  0.64569656  0.49741443  1
  H+  H40  1  0.38091381  0.63192649  0.48704942  1
  H+  H41  1  0.62443817  0.50830711  0.50976955  1
  H+  H42  1  0.48549776  0.61441133  0.50547521  1
  H+  H43  1  0.91350545  0.34543714  0.90493010  1
  H+  H44  1  0.23140611  0.12063228  0.82954778  1
  H+  H45  1  0.13557161  0.87666870  0.85028025  1
  H+  H46  1  0.36092686  0.74993601  0.84111805  1
  H+  H47  1  0.74238287  0.61930605  0.84688764  1
  H+  H48  1  0.02954374  0.89217359  0.83572241  1
  H+  H49  1  0.43560576  0.56732836  0.90500864  1
  H+  H50  1  0.60412673  -0.05119234  0.50396894  1
  H+  H51  1  1.04936422  0.91060530  0.16172255  1
  H+  H52  1  0.62138071  0.25332870  0.00367318  1
  H+  H53  1  0.13285048  0.12864530  0.50781364  1
  H+  H54  1  0.35353327  0.63869665  0.16324157  1
  H+  H55  1  0.36969852  0.49318034  0.66915171  1
  H+  H56  1  0.19460192  -0.00223697  0.30770875  1
  H+  H57  1  0.36463705  0.48179667  0.33650730  1
  H+  H58  1  0.39854841  0.35665448  1.00047305  1
  H+  H59  1  0.45992483  0.11293451  0.16457044  1
  H+  H60  1  0.65863529  0.87564837  0.66542800  1
  H+  H61  1  0.36632217  0.36877864  0.84507772  1
  H+  H62  1  0.35930789  0.49372242  0.82925518  1
  H+  H63  1  0.87899345  0.48827694  0.67410131  1
  H+  H64  1  0.18547181  0.07302607  0.92799805  1
  H+  H65  1  0.08625559  0.71135858  1.00851064  1
  H+  H66  1  0.25678859  0.66584889  0.01960783  1
  H+  H67  1  0.14515181  0.87134178  0.17769789  1
  H+  H68  1  0.53801564  0.90706648  -0.00736176  1
  H+  H69  1  0.86235260  0.28963041  0.32808200  1
  H+  H70  1  0.33885978  0.13421401  0.49840469  1
  H+  H71  1  0.89406818  0.86657497  0.83921047  1
  H+  H72  1  0.36146068  0.13912130  0.67229221  1
  H+  H73  1  0.25247895  0.14568437  0.49821124  1
  H+  H74  1  0.12347970  0.29044603  0.99847825  1
  H+  H75  1  0.86555743  0.89228558  0.33707114  1
  H+  H76  1  0.35532944  0.24510040  0.82185107  1
  H+  H77  1  0.29478206  0.36373451  -0.01598582  1
  H+  H78  1  0.72772672  0.86212331  0.50750979  1
  H+  H79  1  0.77467709  0.62199209  0.01187989  1
  H+  H80  1  0.01952015  0.78319180  0.38427035  1
  H+  H81  1  0.52478678  0.60666472  -0.00681386  1
  H+  H82  1  0.09256833  0.48316257  0.67333973  1
  H+  H83  1  0.22648561  0.36416129  0.51001217  1
  H+  H84  1  0.23760254  0.36684450  0.66021117  1
  H+  H85  1  0.35769431  0.88332917  0.16643455  1
  H+  H86  1  0.84310129  0.17885564  0.10551058  1
  H+  H87  1  0.23409308  0.40403558  0.31082875  1
  H+  H88  1  0.39620062  0.87453830  0.99352088  1
  H+  H89  1  0.41494225  0.83057967  0.93667791  1
  H+  H90  1  0.67111563  0.03524047  0.98140169  1
  H+  H91  1  0.02331788  0.65613106  0.82960350  1
  H+  H92  1  0.26682086  0.38866557  0.15057065  1
  H+  H93  1  0.27933610  0.16178960  0.32602081  1
  H+  H94  1  0.35801069  -0.02828962  1.01093616  1
  H+  H95  1  0.38244239  0.62704436  0.00325287  1
  H+  H96  1  0.36670882  0.40284696  0.67479029  1
  H+  H97  1  0.36810351  0.63679437  0.97364096  1
  H+  H98  1  0.60298677  0.63432094  0.66961249  1
  H+  H99  1  0.64856413  1.00171636  0.68187407  1
  H+  H100  1  0.96954397  0.36580180  0.17514571  1
  H+  H101  1  0.86362704  0.61847161  0.34422292  1
  H+  H102  1  0.60921093  0.63043559  0.32639211  1
  H+  H103  1  0.90559741  0.86869130  0.16744436  1
  H+  H104  1  0.06831449  0.42220969  0.73289215  1
  H+  H105  1  0.88606321  0.11617122  0.17115679  1
  H+  H106  1  0.88409453  0.27268020  0.17864361  1
  H+  H107  1  0.22418855  0.86517127  0.84643818  1
  H+  H108  1  0.13216280  0.53597863  0.52126429  1
  H+  H109  1  0.31467545  0.65031121  0.74722808  1
  H+  H110  1  0.33447033  0.72760516  0.64157647  1
  H+  H111  1  0.63163769  0.07015392  0.50332193  1
  H+  H112  1  0.96851246  0.84651513  0.32602452  1
  H+  H113  1  0.46457344  0.36727536  0.66591895  1
  H+  H114  1  0.21281490  0.60477751  0.33249148  1
  H+  H115  1  0.09446900  0.46740202  0.34592055  1
  H+  H116  1  0.13692055  0.28863420  0.17055237  1
  H+  H117  1  0.88125703  1.01496729  0.82963452  1
  H+  H118  1  0.86028146  0.98003289  0.49306809  1
  H+  H119  1  0.20489655  0.38548515  1.00089271  1
  H+  H120  1  0.11945725  0.22142636  0.83440838  1
  H+  H121  1  0.77753435  0.88357307  0.67692185  1
  H+  H122  1  0.87817890  0.76924979  0.31691561  1
  H+  H123  1  0.71956134  0.85157299  0.00324866  1
  H+  H124  1  0.85457152  0.13294813  0.66185379  1
  H+  H125  1  0.38910139  0.62405764  0.64937403  1
  H+  H126  1  0.49128668  0.78411314  0.67563324  1
  H+  H127  1  0.62048582  0.51581071  0.67063159  1
  H+  H128  1  0.67475091  0.33995874  0.69375879  1
  H+  H129  1  0.74605507  0.60858345  0.32124877  1
  H+  H130  1  0.37307101  0.00422573  0.66363975  1
  H+  H131  1  0.31217419  0.04983659  0.86593658  1
  H+  H132  1  0.42573273  0.64703505  0.88104205  1
  H+  H133  1  0.88742185  0.87061779  0.51044695  1
  H+  H134  1  0.37745495  0.36042129  0.50931983  1
  H+  H135  1  0.47567755  0.37231495  0.32096295  1
  H+  H136  1  0.62313585  0.11058556  0.31667814  1
  H+  H137  1  0.73070386  0.09985251  0.50778986  1
  H+  H138  1  0.33628870  0.41928570  0.43380916  1
  H+  H139  1  0.97596276  0.86962484  0.50819755  1
  H+  H140  1  0.89531835  1.02331245  -0.00778087  1
  H+  H141  1  0.64544897  0.76831707  0.51636794  1
  H+  H142  1  0.86761084  0.72095407  0.15478692  1
  H+  H143  1  0.36884685  0.89037764  0.35976877  1
  H+  H144  1  0.87397290  0.51498215  0.83201894  1
  H+  H145  1  0.96414546  0.96145693  0.96671196  1
  H+  H146  1  0.47290449  0.12291025  0.32844666  1
  H+  H147  1  0.11828754  0.24519797  0.50364665  1
  H+  H148  1  0.85156175  0.22510490  0.49406371  1
  H+  H149  1  0.87815640  0.60376513  0.18038313  1
  H+  H150  1  0.23145898  0.09966290  0.64813116  1
  H+  H151  1  0.85070198  0.60285705  0.01371213  1
  H+  H152  1  0.85889603  0.74306168  0.49301609  1
  H+  H153  1  0.35605843  0.97185302  0.15656953  1
  H+  H154  1  0.12515740  0.61746718  0.99098545  1
  H+  H155  1  0.09808854  0.40226295  1.00563560  1
  H+  H156  1  0.34430533  0.61907105  0.80550366  1
  H+  H157  1  0.61398025  0.16476333  0.02212065  1
  H+  H158  1  0.47079193  0.61696325  0.30650617  1
  H+  H159  1  0.03748443  0.15033488  0.00324565  1
  H+  H160  1  0.96605350  0.60336242  0.18234052  1
  H+  H161  1  0.32990713  0.85851586  0.66693638  1
  H+  H162  1  1.02458908  0.39352202  0.50545359  1
  H+  H163  1  0.84770595  0.46529393  0.16656180  1
  H+  H164  1  0.11370121  0.39739636  0.51289447  1
  H+  H165  1  0.10582496  0.39630179  0.15334515  1
  H+  H166  1  0.85680635  0.47859862  0.49498143  1
  H+  H167  1  0.45444997  0.84317280  0.49959983  1
  H+  H168  1  0.81777182  0.16888314  0.43213573  1
  H+  H169  1  0.77830727  0.15606026  0.67163353  1
  H+  H170  1  0.32241686  0.21212622  0.16980872  1
  H+  H171  1  0.10607808  0.93411873  0.10222335  1
  H+  H172  1  0.63696023  0.85926213  -0.00968075  1
  H+  H173  1  0.88300836  0.38692381  -0.00494122  1
  H+  H174  1  0.48262732  0.50209879  0.93897347  1
  H+  H175  1  0.64655920  0.37111968  0.98213985  1
  H+  H176  1  0.12567846  0.52461437  0.17689372  1
  H+  H177  1  0.95825531  0.12655141  0.33000189  1
  H+  H178  1  0.58951673  0.86782315  0.14431720  1
  H+  H179  1  0.77239423  0.13678681  0.15993835  1
  H+  H180  1  0.60117135  0.47024122  0.15203059  1
  H+  H181  1  0.63635917  0.11660263  0.66111457  1
  H+  H182  1  0.47879025  0.79259680  0.70656232  1
  H+  H183  1  0.88816080  0.54100097  0.27396887  1
  H+  H184  1  0.27526592  0.59896783  0.65168216  1
  H+  H185  1  0.06473828  0.65597070  0.06871761  1
  H+  H186  1  0.77778254  0.89493944  0.34384895  1
  H+  H187  1  0.61115946  0.48018599  0.34162833  1
  H+  H188  1  0.61510181  0.23826402  0.32819949  1
  H+  H189  1  0.54580192  0.13113283  0.49100017  1
  H+  H190  1  0.80920314  0.89305106  0.20534429  1
  H+  H191  1  0.46563058  0.60835552  0.16199028  1
  H+  H192  1  0.50686041  0.38184838  0.49473726  1
  H+  H193  1  0.17031833  0.98811393  0.27837617  1
  H+  H194  1  0.13895994  0.11120870  0.83952697  1
  H+  H195  1  0.60494141  0.23001311  0.16902575  1
  H+  H196  1  0.64585087  0.18437790  0.49603385  1
  H+  H197  1  0.54548897  0.10345045  0.83127545  1
  H+  H198  1  0.70343509  0.53249179  0.27597923  1
  H+  H199  1  0.99054519  0.36877766  0.66189387  1
  H+  H200  1  0.62235339  0.62579985  0.50527024  1
  H+  H201  1  0.22675263  0.86002313  0.17505800  1
  H+  H202  1  1.02979140  0.14182273  0.16428981  1
  H+  H203  1  0.89072490  0.38522998  0.84978327  1
  H+  H204  1  0.90198301  0.78188574  0.85072122  1
  H+  H205  1  0.36785916  0.22237764  0.01269341  1
  H+  H206  1  0.57986309  0.37623597  0.69529987  1
  H+  H207  1  0.60071665  0.70912069  -0.00072214  1
  H+  H208  1  0.60450508  0.63543338  0.14971408  1
  H+  H209  1  0.64527774  0.31790975  0.76258481  1
  H+  H210  1  0.61907061  0.47477145  0.00242068  1
  H+  H211  1  0.21530888  0.61016194  0.83287449  1
  H+  H212  1  -0.02903763  0.38529152  -0.00121090  1
  H+  H213  1  0.59880489  0.86062726  0.49584661  1
  H+  H214  1  0.35044013  0.74927948  0.02244840  1
  H+  H215  1  0.96646807  0.85239741  0.66781150  1
  H+  H216  1  0.12000922  0.72997580  0.34617898  1
  H+  H217  1  0.22667414  0.36027975  0.84330393  1
  H+  H218  1  0.46405257  0.85907100  0.19066271  1
  H+  H219  1  0.23252061  0.86948915  0.33317008  1
  H+  H220  1  0.36478497  0.72000777  0.48316651  1
  H+  H221  1  0.86737199  0.88715073  0.67584925  1
  H+  H222  1  0.64227805  0.60883168  0.99531837  1
  H+  H223  1  0.16767396  0.26691173  0.66153325  1
  H+  H224  1  0.77436005  0.70475224  0.45630695  1
  H+  H225  1  0.94518662  0.56067054  0.99873344  1
  H+  H226  1  0.35952507  0.72274825  0.34233486  1
  H+  H227  1  0.60271811  0.38254011  0.15777647  1
  H+  H228  1  0.31732265  0.16429983  0.06968551  1
  H+  H229  1  0.72658414  0.61680471  0.15982380  1
  H+  H230  1  0.12388502  0.15230218  0.15792996  1
  H+  H231  1  0.37372700  0.35831880  0.16841047  1
  H+  H232  1  0.86761194  0.60369785  0.65979798  1
  H+  H233  1  0.87515416  0.61037081  0.51191297  1
  H+  H234  1  0.03748508  0.90201017  0.01106021  1
  H+  H235  1  0.82194261  0.10807619  0.82570752  1
  H+  H236  1  0.13073949  0.62427331  0.51444259  1
  H+  H237  1  0.76097754  0.62427381  0.67424079  1
  H+  H238  1  0.13940604  0.88854763  0.65485336  1
  H+  H239  1  0.71714667  0.36175301  0.17433796  1
  H+  H240  1  0.87982884  0.24399155  0.66541515  1
  H+  H241  1  0.71862027  0.59399964  0.51357808  1
  H+  H242  1  0.64171932  0.87040044  0.33697617  1
  H+  H243  1  0.86435883  -0.01621558  0.17335831  1
  H+  H244  1  0.33533974  0.00186348  0.49104752  1
  H+  H245  1  0.14377657  0.40156383  0.30773380  1
  H+  H246  1  0.16422202  0.08169755  0.55923285  1
  H+  H247  1  0.41873640  0.08318941  0.50750715  1
  H+  H248  1  0.68171290  0.11238994  0.82772019  1
  H+  H249  1  0.87808896  0.35986024  0.50818844  1
  H+  H250  1  0.10820864  0.49587517  1.00567461  1
  H+  H251  1  0.62669173  0.11347122  0.16910638  1
  H+  H252  1  0.61085871  0.72704021  0.66895739  1
  H+  H253  1  0.85106716  0.71221849  0.67278863  1
  H+  H254  1  0.14848247  0.10900781  0.32265050  1
  H+  H255  1  0.10812654  0.98404069  0.48298483  1
  H+  H256  1  0.10620579  0.63650757  0.34998118  1
  H+  H257  1  0.71985081  0.37235417  0.47649368  1
  H+  H258  1  0.62920097  0.37052935  0.33064929  1
  H+  H259  1  0.88110135  0.11669271  0.49879993  1
  H+  H260  1  0.00803525  0.20550237  0.68975044  1
  H+  H261  1  0.13491490  0.78373987  0.51102751  1
  H+  H262  1  0.69795224  0.13388696  0.97416110  1
  H+  H263  1  0.09859588  0.47707469  0.82301889  1
  H+  H264  1  0.62357054  0.40680236  0.82254266  1
  H+  H265  1  0.56536418  0.42671432  0.74662200  1
  H+  H266  1  0.63094384  0.72966838  0.83679376  1
  H+  H267  1  0.37536009  0.76966406  0.19023008  1
  H+  H268  1  0.50563154  0.11297810  0.66933577  1
  H+  H269  1  0.65748591  0.86776399  0.84581149  1
  H+  H270  1  0.84116780  0.43416565  0.43063053  1
  H+  H271  1  0.75185415  0.13868879  0.33733015  1
  H+  H272  1  0.10319474  0.63404934  0.16544395  1
  H+  H273  1  0.91351239  0.82933044  0.60550491  1
  H+  H274  1  0.38272556  0.46170220  -0.01281755  1
  H+  H275  1  0.00921070  0.38081002  0.33661457  1
  H+  H276  1  0.13427232  0.97645840  0.00502898  1
  H+  H277  1  0.13510571  0.87161904  0.50398737  1
  H+  H278  1  0.73858056  0.37953623  0.98067201  1
  H+  H279  1  0.36854042  0.14433615  0.33547275  1
  H+  H280  1  0.48093349  0.62456816  0.65031617  1
  H+  H281  1  0.60345106  0.97456513  0.34301454  1
  H+  H282  1  0.72064517  0.09702970  0.88854049  1
  H+  H283  1  0.81897959  0.15608569  1.01073244  1
  H+  H284  1  0.89783039  0.36223193  0.66219937  1
  H+  H285  1  0.78171783  0.88321883  0.83006138  1
  H+  H286  1  0.65344728  0.98334447  0.83630675  1
  H+  H287  1  0.59793931  0.38670760  0.47878480  1
  H+  H288  1  0.12937724  0.61544716  0.83833406  1
  H+  H289  1  0.38622520  0.03532138  0.34372661  1
  H+  H290  1  0.97258698  0.12237005  0.50509510  1
  H+  H291  1  0.62250355  0.49346323  0.82986591  1
  H+  H292  1  0.15189577  0.57882726  0.27503267  1
  H+  H293  1  0.07104356  0.43045858  0.09934484  1
  H+  H294  1  0.62305581  0.67908354  0.44700450  1
  H+  H295  1  0.32908309  0.17530718  0.72642624  1
  H+  H296  1  0.86618112  0.45648298  0.77473566  1
  H+  H297  1  0.74805732  0.39462484  0.83003774  1
  H+  H298  1  0.90198355  0.34241985  0.26685865  1
  H+  H299  1  0.64487406  0.78394494  0.33286109  1
  H+  H300  1  0.34205973  0.65575921  0.42039264  1
  H+  H301  1  0.09432159  0.64396637  0.67002761  1
  H+  H302  1  0.39902019  0.07391130  0.89732485  1
  H+  H303  1  0.90396795  0.57967263  0.57089149  1
  H+  H304  1  0.38445698  0.05550240  0.60285612  1
  H+  H305  1  0.86079811  0.89247003  0.01698463  1
  H+  H306  1  0.08710582  0.19974828  0.43942383  1
  H+  H307  1  0.14681020  0.59700508  0.60189851  1
  H+  H308  1  0.37642287  0.51892217  0.16171631  1
  H+  H309  1  0.40549734  0.83328016  0.28315852  1
  H+  H310  1  0.86508061  0.41970466  0.32677212  1
  H+  H311  1  0.69954737  0.35747474  0.59630405  1
  H+  H312  1  0.39869132  0.33038464  0.89952896  1
  H+  H313  1  0.47510510  0.04122106  0.95444735  1
  H+  H314  1  0.37718746  0.27704323  0.65933509  1
  H+  H315  1  0.56622530  0.42058487  0.40037448  1
  H+  H316  1  0.17769699  0.83902145  0.26978809  1
  H+  H317  1  0.42194170  0.59081697  0.56394733  1
  H+  H318  1  0.72412579  0.38502874  0.32280835  1
  H+  H319  1  0.16548618  0.59554968  0.93269069  1
  H+  H320  1  0.83464154  0.65302696  0.09917690  1
  H+  H321  1  0.06557955  0.07286338  0.41375491  1
  H+  H322  1  0.45811369  0.35022384  0.16741472  1
  H+  H323  1  0.17653906  0.36898376  0.21924542  1
  H+  H324  1  0.90916415  0.32863821  0.56701828  1
  H+  H325  1  0.57919444  0.12506918  0.76412596  1
  H+  H326  1  0.88220652  0.06880424  0.59224677  1
  H+  H327  1  0.83456889  0.91953258  0.43479688  1
  H+  H328  1  0.65562202  0.33876323  0.23273516  1
  H+  H329  1  0.56509070  0.91178649  0.69142727  1
  H+  H330  1  0.83807136  0.91329966  0.76721301  1
  H+  H331  1  0.19523368  0.13031347  0.25707143  1
  H+  H332  1  0.32917810  0.41068773  0.09298245  1
  H+  H333  1  0.11809702  0.16848570  0.74156994  1
  H+  H334  1  0.17457129  0.05075201  0.16494016  1
  H+  H335  1  0.07181361  0.90577107  0.43368893  1
  H+  H336  1  0.41258941  0.33731861  0.26150389  1
  H+  H337  1  0.57627849  0.18128298  0.10685298  1
  H+  H338  1  0.17590464  0.32917873  0.57470261  1
  H+  H339  1  0.67638986  0.83832638  0.60425686  1
  H+  H340  1  0.91453032  0.09116796  0.23244572  1
  H+  H341  1  0.41664152  0.82302003  0.63410768  1
  H+  H342  1  0.09896727  0.84708228  0.34641813  1
  H+  H343  1  0.65420402  0.62470221  0.84689448  1
  H+  H344  1  0.58965017  0.17542653  0.38457298  1
  H+  H345  1  0.36616898  0.10336400  0.16448111  1
  H+  H346  1  0.37440484  0.80523533  0.54665535  1
  H+  H347  1  0.69137106  0.31262272  0.59049440  1
  H+  H348  1  0.32877113  0.90944356  0.06908444  1
  H+  H349  1  0.92752395  0.06907601  0.92810429  1
  H+  H350  1  0.33413454  0.43787110  0.76827677  1
  H+  H351  1  0.66718696  0.59250973  0.21751271  1
  H+  H352  1  0.07651772  0.91311539  0.74249604  1
  H+  H353  1  0.67503377  0.08752352  0.60510901  1
  H+  H354  1  0.87899314  0.25601736  0.02047191  1
  H+  H355  1  0.93011988  0.83619319  0.22604961  1
  H+  H356  1  0.65439674  0.56845987  0.60872941  1
  H+  H357  1  0.02740771  0.13469725  0.82533282  1
  H+  H358  1  0.31367134  0.89678334  0.76688867  1
  H+  H359  1  0.61942347  0.92452426  0.77987576  1
  H+  H360  1  0.67796347  0.58342095  0.93651961  1
  H+  H361  1  0.62941319  0.28370480  0.47305212  1
  H+  H362  1  0.83891821  0.66567805  0.39662371  1
  H+  H363  1  0.40704461  0.33296210  0.57228188  1
  H+  H364  1  0.16766475  0.84230367  0.91738012  1
  H+  H365  1  1.09108451  0.73214772  0.67217933  1
  H+  H366  1  0.82495106  0.90783026  0.07903066  1
  H+  H367  1  0.35944099  0.63339895  0.33018846  1
  H+  H368  1  0.59783201  0.93717858  0.05078807  1
  H+  H369  1  0.08523904  0.18918770  0.06610510  1
  H+  H370  1  0.93636407  0.87282844  0.93492331  1
  H+  H371  1  0.50692641  0.85501690  0.10715448  1
  H+  H372  1  0.57782276  0.91444058  0.40353765  1
  H+  H373  1  0.68375185  0.83192314  0.90419375  1
  H+  H374  1  0.06959790  0.66712953  0.76709183  1
  H+  H375  1  0.67363876  0.33629577  0.87620682  1
  H+  H376  1  0.17781845  0.87475182  0.58969219  1
  H+  H377  1  0.40369572  0.57843466  0.25223491  1
  H+  H378  1  0.31827668  0.68255656  0.11489233  1
  H+  H379  1  0.70240193  0.85850916  0.15260390  1
  H+  H380  1  0.65261531  0.07351292  0.26204961  1
  H+  H381  1  0.08128645  0.67620281  0.43894078  1
  H+  H382  1  0.54693239  0.62472408  0.37809344  1
  H+  H383  1  0.56939876  0.65617435  0.08954564  1
  O2-  O384  1  0.08894301  0.17907840  0.14860830  1
  O2-  O385  1  0.08375327  0.18385851  0.48227777  1
  O2-  O386  1  0.08918394  0.16108615  0.81606962  1
  O2-  O387  1  0.07148464  0.42500754  0.14486990  1
  O2-  O388  1  0.08695382  0.43183768  0.50188602  1
  O2-  O389  1  0.06678307  0.41983141  0.80377565  1
  O2-  O390  1  0.07054104  0.66173765  0.14940160  1
  O2-  O391  1  0.08014505  0.67931170  0.48509943  1
  O2-  O392  1  0.07748558  0.66647386  0.81154214  1
  O2-  O393  1  0.11006265  0.94206127  0.14770439  1
  O2-  O394  1  0.07576208  0.92101851  0.47764105  1
  O2-  O395  1  0.09020962  0.91871673  0.81960369  1
  O2-  O396  1  0.29181938  0.15111406  0.15469627  1
  O2-  O397  1  0.31885034  0.17586532  0.48754332  1
  O2-  O398  1  0.33347507  0.18586236  0.80097340  1
  O2-  O399  1  0.32921932  0.41419675  0.13813353  1
  O2-  O400  1  0.33688836  0.41688885  0.47943283  1
  O2-  O401  1  0.32879491  0.43440003  0.81356465  1
  O2-  O402  1  0.32448054  0.67335171  0.15971549  1
  O2-  O403  1  0.34689563  0.65861540  0.46783009  1
  O2-  O404  1  0.31535914  0.65055435  0.79349007  1
  O2-  O405  1  0.32726825  0.90894418  0.14483519  1
  O2-  O406  1  0.35299532  0.93087537  0.44123464  1
  O2-  O407  1  0.31393300  0.90000756  0.81253430  1
  O2-  O408  1  0.57533196  0.17028088  0.15101839  1
  O2-  O409  1  0.59824753  0.16214638  0.46718218  1
  O2-  O410  1  0.59780843  0.13038847  0.80720988  1
  O2-  O411  1  0.56985290  0.40902983  0.13980173  1
  O2-  O412  1  0.56448194  0.41844730  0.47585016  1
  O2-  O413  1  0.58865912  0.43398925  0.81335334  1
  O2-  O414  1  0.56979479  0.66131410  0.13548266  1
  O2-  O415  1  0.59967988  0.66349986  0.48799367  1
  O2-  O416  1  0.60256476  0.66762314  0.82591689  1
  O2-  O417  1  0.55529185  0.89740492  0.13117009  1
  O2-  O418  1  0.56893859  0.89273860  0.48359552  1
  O2-  O419  1  0.61604690  0.92184503  0.82461195  1
  O2-  O420  1  0.83479274  0.16747927  0.15148598  1
  O2-  O421  1  0.82206796  0.16448080  0.47742832  1
  O2-  O422  1  0.87764944  0.12020781  0.80703567  1
  O2-  O423  1  0.81278228  0.40422476  0.15465454  1
  O2-  O424  1  0.82950286  0.42109124  0.47439838  1
  O2-  O425  1  0.85191693  0.45528107  0.81844142  1
  O2-  O426  1  0.83160421  0.65909457  0.14563833  1
  O2-  O427  1  0.81524133  0.68827266  0.47114771  1
  O2-  O428  1  0.86689618  0.66708737  0.83172762  1
  O2-  O429  1  0.83316837  0.91901983  0.16594875  1
  O2-  O430  1  0.83188225  0.91827394  0.48015881  1
  O2-  O431  1  0.84252121  0.91543812  0.81294613  1
  O2-  O432  1  0.20287124  0.11347065  0.17749110  1
  O2-  O433  1  0.16298246  0.09508622  0.51432095  1
  O2-  O434  1  0.17422259  0.08294499  0.84899664  1
  O2-  O435  1  0.16836250  0.35215339  0.17420783  1
  O2-  O436  1  0.16808808  0.33241067  0.52782692  1
  O2-  O437  1  0.17368515  0.31285065  0.86131401  1
  O2-  O438  1  0.15437903  0.58361333  0.19541441  1
  O2-  O439  1  0.15998144  0.59705794  0.53550366  1
  O2-  O440  1  0.15996010  0.58625363  0.85514964  1
  O2-  O441  1  0.16774062  0.83434785  0.19323572  1
  O2-  O442  1  0.16744493  0.84600239  0.52222771  1
  O2-  O443  1  0.16782379  0.84760701  0.86852160  1
  O2-  O444  1  0.39799649  0.07307284  0.17176034  1
  O2-  O445  1  0.35757798  0.05480581  0.51631983  1
  O2-  O446  1  0.37116307  0.06515881  0.85652739  1
  O2-  O447  1  0.39949483  0.32421427  0.18549905  1
  O2-  O448  1  0.40414116  0.32644975  0.52587813  1
  O2-  O449  1  0.38617154  0.32785375  0.85560541  1
  O2-  O450  1  0.40543379  0.57913521  0.17813188  1
  O2-  O451  1  0.42412265  0.58727354  0.51674391  1
  O2-  O452  1  0.42897208  0.59828119  0.86500300  1
  O2-  O453  1  0.40482765  0.83076702  0.20652832  1
  O2-  O454  1  0.39056128  0.81079142  0.50197624  1
  O2-  O455  1  0.38300158  0.80375154  0.86462697  1
  O2-  O456  1  0.65553480  0.08036893  0.18195403  1
  O2-  O457  1  0.67224342  0.06173660  0.52762675  1
  O2-  O458  1  0.71953695  0.09097879  0.84360578  1
  O2-  O459  1  0.65394171  0.33364228  0.18774826  1
  O2-  O460  1  0.65627797  0.34608283  0.47177634  1
  O2-  O461  1  0.68426068  0.35433874  0.83317422  1
  O2-  O462  1  0.66431952  0.58843019  0.17297019  1
  O2-  O463  1  0.65934445  0.56743609  0.52893143  1
  O2-  O464  1  0.68301132  0.59107725  0.86183625  1
  O2-  O465  1  0.64239012  0.82727959  0.16570229  1
  O2-  O466  1  0.66859669  0.83020143  0.52535039  1
  O2-  O467  1  0.68764868  0.83486688  0.85898430  1
  O2-  O468  1  0.91673168  0.08596159  0.18762278  1
  O2-  O469  1  0.91045280  0.08564239  0.51436679  1
  O2-  O470  1  0.90971455  0.07642683  0.84624020  1
  O2-  O471  1  0.91035764  0.33335896  0.19292406  1
  O2-  O472  1  0.90307664  0.32440269  0.52164438  1
  O2-  O473  1  0.91193871  0.34569968  0.85972033  1
  O2-  O474  1  0.90598845  0.57270664  0.19845648  1
  O2-  O475  1  0.90496224  0.58019080  0.52444508  1
  O2-  O476  1  0.90706160  0.62957878  0.85179653  1
  O2-  O477  1  0.93650709  0.83920930  0.18097602  1
  O2-  O478  1  0.91539374  0.83723592  0.52382668  1
  O2-  O479  1  0.92925659  0.84406569  0.85947257  1
  O2-  O480  1  0.20047533  0.14989942  0.29978364  1
  O2-  O481  1  0.18252888  0.05235785  0.62500872  1
  O2-  O482  1  0.18902863  0.05966059  0.97116334  1
  O2-  O483  1  0.19500527  0.41079597  0.28321195  1
  O2-  O484  1  0.18363754  0.32228948  0.64090835  1
  O2-  O485  1  0.14921254  0.35151339  0.98105700  1
  O2-  O486  1  0.15207605  0.57891531  0.32051980  1
  O2-  O487  1  0.13962550  0.59671280  0.64943008  1
  O2-  O488  1  0.16488876  0.59655669  0.97837847  1
  O2-  O489  1  0.17464075  0.83640356  0.31554472  1
  O2-  O490  1  0.19247963  0.90475337  0.63129672  1
  O2-  O491  1  0.16223732  0.83067549  0.98061352  1
  O2-  O492  1  0.40916640  0.09268741  0.32522301  1
  O2-  O493  1  0.40027624  0.06386707  0.64613840  1
  O2-  O494  1  0.44172682  0.06827263  0.96570356  1
  O2-  O495  1  0.41442361  0.33861143  0.30732548  1
  O2-  O496  1  0.40698892  0.33785212  0.64463972  1
  O2-  O497  1  0.42340839  0.32471775  0.98035575  1
  O2-  O498  1  0.40883806  0.58355361  0.29828902  1
  O2-  O499  1  0.41917591  0.59359181  0.63302948  1
  O2-  O500  1  0.45152858  0.52850296  0.95636993  1
  O2-  O501  1  0.40775692  0.83154986  0.32884626  1
  O2-  O502  1  0.35658853  0.79240899  0.62170361  1
  O2-  O503  1  0.43177024  0.84928141  0.98012384  1
  O2-  O504  1  0.65118139  0.07591552  0.30745213  1
  O2-  O505  1  0.67848010  0.09748394  0.64980785  1
  O2-  O506  1  0.71717463  0.09303889  0.96624427  1
  O2-  O507  1  0.66279910  0.34569238  0.31238529  1
  O2-  O508  1  0.62482942  0.30532497  0.71906701  1
  O2-  O509  1  0.67709725  0.34063821  0.96749068  1
  O2-  O510  1  0.68972065  0.57028431  0.29951002  1
  O2-  O511  1  0.65477230  0.57521878  0.65339291  1
  O2-  O512  1  0.67230771  0.57746713  0.98212172  1
  O2-  O513  1  0.67890217  0.84600202  0.32599807  1
  O2-  O514  1  0.67834979  0.83654578  0.64946484  1
  O2-  O515  1  0.66260659  0.82261637  0.98227985  1
  O2-  O516  1  0.90091074  0.09015712  0.31329015  1
  O2-  O517  1  0.85496375  0.06039009  0.63275182  1
  O2-  O518  1  0.94682751  0.05775456  0.96731774  1
  O2-  O519  1  0.89589914  0.34878419  0.31196899  1
  O2-  O520  1  0.92428931  0.33001659  0.64473567  1
  O2-  O521  1  0.90947714  0.34997585  0.98597510  1
  O2-  O522  1  0.88735228  0.54137854  0.32016590  1
  O2-  O523  1  0.90254844  0.57638423  0.64340873  1
  O2-  O524  1  0.88719233  0.53212916  0.97974810  1
  O2-  O525  1  0.91228866  0.83096639  0.30651437  1
  O2-  O526  1  0.90731957  0.82433547  0.65038094  1
  O2-  O527  1  0.94814911  0.90123798  0.97568542  1
  O2-  O528  1  0.09012111  0.19756744  0.02158938  1
  O2-  O529  1  0.06584503  0.04587347  0.37537965  1
  O2-  O530  1  0.13954663  0.17163415  0.69906778  1
  O2-  O531  1  0.07292124  0.43640034  0.02292460  1
  O2-  O532  1  0.06920316  0.40430825  0.34969034  1
  O2-  O533  1  0.06971237  0.42291184  0.68619342  1
  O2-  O534  1  0.05957049  0.65175330  0.02342203  1
  O2-  O535  1  0.08365360  0.67352999  0.36560988  1
  O2-  O536  1  0.06093010  0.67295422  0.68626557  1
  O2-  O537  1  0.09590251  0.91809896  0.02613957  1
  O2-  O538  1  0.04711207  0.84200365  0.36878096  1
  O2-  O539  1  0.06790394  0.90910802  0.69730838  1
  O2-  O540  1  0.33544710  0.16218892  0.02792429  1
  O2-  O541  1  0.34099539  0.18297120  0.34487031  1
  O2-  O542  1  0.32980337  0.16985895  0.68071741  1
  O2-  O543  1  0.33342638  0.40680808  0.01288717  1
  O2-  O544  1  0.33489535  0.42392919  0.35570109  1
  O2-  O545  1  0.34004963  0.43616306  0.69003754  1
  O2-  O546  1  0.30272740  0.70670312  0.04751586  1
  O2-  O547  1  0.33126780  0.66042033  0.35376278  1
  O2-  O548  1  0.31527214  0.65243397  0.67196288  1
  O2-  O549  1  0.32708288  0.91079825  0.02317315  1
  O2-  O550  1  0.33864389  0.92213962  0.37483222  1
  O2-  O551  1  0.31811564  0.90004186  0.68925403  1
  O2-  O552  1  0.58186269  0.19496227  0.02424805  1
  O2-  O553  1  0.58349128  0.17606334  0.34024704  1
  O2-  O554  1  0.56460294  0.14024369  0.68714393  1
  O2-  O555  1  0.58902636  0.41224165  0.01446005  1
  O2-  O556  1  0.57249450  0.42018166  0.35488319  1
  O2-  O557  1  0.55792961  0.41631427  0.69983356  1
  O2-  O558  1  0.57824099  0.65075930  0.01657269  1
  O2-  O559  1  0.58167694  0.66048655  0.34432417  1
  O2-  O560  1  0.57084848  0.66518921  0.67636198  1
  O2-  O561  1  0.60014883  0.93639871  0.00592646  1
  O2-  O562  1  0.57634092  0.91412515  0.35826829  1
  O2-  O563  1  0.62688665  0.94213196  0.69805709  1
  O2-  O564  1  0.86512173  0.19820760  0.03684286  1
  O2-  O565  1  0.81117471  0.17349384  0.35473183  1
  O2-  O566  1  0.84099566  0.17885023  0.68107836  1
  O2-  O567  1  0.84116809  0.44896116  0.00819950  1
  O2-  O568  1  0.83440986  0.45147187  0.34154739  1
  O2-  O569  1  0.86600487  0.43290686  0.69637574  1
  O2-  O570  1  0.83326458  0.64357165  0.02896367  1
  O2-  O571  1  0.84204631  0.65952753  0.35198502  1
  O2-  O572  1  0.82315103  0.65082333  0.68434415  1
  O2-  O573  1  0.82023941  0.90947134  0.03467258  1
  O2-  O574  1  0.84165376  0.92695558  0.35477856  1
  O2-  O575  1  0.83849575  0.91868719  0.69152049  1
