# generated using pymatgen
data_H2O
_symmetry_space_group_name_H-M   'P 1'
_cell_length_a   17.98812782
_cell_length_b   17.97690685
_cell_length_c   21.99810069
_cell_angle_alpha   90.00231158
_cell_angle_beta   90.00760399
_cell_angle_gamma   119.99941669
_symmetry_Int_Tables_number   1
_chemical_formula_structural   H2O
_chemical_formula_sum   'H384 O192'
_cell_volume   6160.54729456
_cell_formula_units_Z   192
loop_
 _symmetry_equiv_pos_site_id
 _symmetry_equiv_pos_as_xyz
  1  'x, y, z'
loop_
 _atom_type_symbol
 _atom_type_oxidation_number
  H+  1.0
  O2-  -2.0
loop_
 _atom_site_type_symbol
 _atom_site_label
 _atom_site_symmetry_multiplicity
 _atom_site_fract_x
 _atom_site_fract_y
 _atom_site_fract_z
 _atom_site_occupancy
  H+  H0  1  0.52557992  0.39172692  0.85388154  1
  H+  H1  1  -0.02939752  0.83996377  -0.00146300  1
  H+  H2  1  0.92883370  0.83381702  0.62938870  1
  H+  H3  1  0.86532183  0.71371445  0.00085727  1
  H+  H4  1  0.89629723  0.51421167  0.50274313  1
  H+  H5  1  0.99515638  0.66743974  0.33180435  1
  H+  H6  1  0.63196096  0.53028169  0.49941396  1
  H+  H7  1  0.64120105  0.04184061  0.89722699  1
  H+  H8  1  0.37656018  0.89101995  0.82966818  1
  H+  H9  1  0.23214828  0.12343047  0.66107910  1
  H+  H10  1  0.87856035  0.59431883  0.99327104  1
  H+  H11  1  0.88425882  0.26892982  0.50763498  1
  H+  H12  1  0.14212167  0.75438630  0.98681166  1
  H+  H13  1  0.88099014  0.50641618  -0.00746130  1
  H+  H14  1  0.85903207  0.37496452  0.82127945  1
  H+  H15  1  0.63259810  0.62068276  0.49818092  1
  H+  H16  1  0.48226797  0.36935598  0.32195132  1
  H+  H17  1  0.36124026  0.13530097  0.67288491  1
  H+  H18  1  0.61436312  0.39823876  0.33385290  1
  H+  H19  1  0.22960371  0.84353670  0.98750396  1
  H+  H20  1  0.72697778  0.61378598  0.84482112  1
  H+  H21  1  0.98209778  0.36723961  0.65799143  1
  H+  H22  1  0.38264025  0.36111179  0.64960575  1
  H+  H23  1  0.10683822  0.87836570  0.33752661  1
  H+  H24  1  0.61067413  0.64207316  0.33590955  1
  H+  H25  1  0.77008713  0.64918886  0.51259088  1
  H+  H26  1  0.24067537  0.60391678  0.17056108  1
  H+  H27  1  0.47191341  0.86179247  0.33077152  1
  H+  H28  1  0.37874556  1.01741891  0.82659222  1
  H+  H29  1  0.12203524  0.47377929  0.33577053  1
  H+  H30  1  0.63693943  0.52343340  0.85688440  1
  H+  H31  1  0.27453857  0.63519848  0.00978271  1
  H+  H32  1  0.00370747  0.35290244  0.00564241  1
  H+  H33  1  0.28149990  0.63250378  0.50369813  1
  H+  H34  1  0.05152849  0.12318329  0.15741620  1
  H+  H35  1  0.79082561  0.37012329  0.16963823  1
  H+  H36  1  0.85816811  0.23029698  0.33933055  1
  H+  H37  1  0.44200563  0.52519379  0.54181818  1
  H+  H38  1  0.88089338  0.98183585  0.83483931  1
  H+  H39  1  0.83148209  0.19158737  0.82882291  1
  H+  H40  1  0.44655371  0.11518469  0.97284479  1
  H+  H41  1  0.72696489  0.11449918  0.65588305  1
  H+  H42  1  0.27330209  0.13989933  0.47212583  1
  H+  H43  1  0.02697623  0.89175836  0.17976076  1
  H+  H44  1  0.35658318  0.10667106  0.98163401  1
  H+  H45  1  0.62859471  0.85268943  0.16634747  1
  H+  H46  1  0.12307651  0.22282240  0.15954076  1
  H+  H47  1  0.27129357  0.38583104  0.00330917  1
  H+  H48  1  0.47016532  0.10636753  0.17260175  1
  H+  H49  1  0.88525206  0.51166979  0.17221539  1
  H+  H50  1  0.11964283  0.64077741  0.50093941  1
  H+  H51  1  0.35302010  0.38418010  0.15925321  1
  H+  H52  1  0.62381933  0.52099273  0.64120225  1
  H+  H53  1  0.67664693  0.58864383  0.92538246  1
  H+  H54  1  0.90502156  0.37835085  0.31192844  1
  H+  H55  1  0.89381782  0.85969908  0.83978772  1
  H+  H56  1  0.65869405  0.33469652  0.71859163  1
  H+  H57  1  0.14365170  0.77284986  0.66216214  1
  H+  H58  1  0.83255813  0.40606010  0.76171532  1
  H+  H59  1  0.13626913  0.76456406  0.17387247  1
  H+  H60  1  0.10359627  0.14094742  0.48304107  1
  H+  H61  1  0.66022996  0.59361127  0.59250839  1
  H+  H62  1  0.60754569  0.39169621  0.48354656  1
  H+  H63  1  0.85647235  0.99830376  0.01508292  1
  H+  H64  1  0.13037596  0.36772891  0.48477472  1
  H+  H65  1  0.38776789  0.60963215  0.32686217  1
  H+  H66  1  0.48974077  0.61142469  0.50376413  1
  H+  H67  1  0.36316926  0.47099334  0.32732046  1
  H+  H68  1  0.47415722  0.61673042  0.99763999  1
  H+  H69  1  0.10498914  0.62052534  0.16335069  1
  H+  H70  1  0.61010120  0.97077762  0.49880154  1
  H+  H71  1  0.87512021  0.75798187  0.18183932  1
  H+  H72  1  0.67276078  0.25119114  0.19246100  1
  H+  H73  1  0.12744171  0.39507674  0.81681206  1
  H+  H74  1  0.84643875  0.88106006  0.67834228  1
  H+  H75  1  0.26394188  0.38388501  0.15900718  1
  H+  H76  1  0.88072311  1.02320309  0.66644463  1
  H+  H77  1  0.85612582  0.70547525  0.33663475  1
  H+  H78  1  0.85381095  0.76258571  0.28185375  1
  H+  H79  1  0.47772865  0.62017782  0.66650177  1
  H+  H80  1  0.75583148  0.61652805  0.67001303  1
  H+  H81  1  0.38432857  0.77126529  0.17303013  1
  H+  H82  1  0.39869698  0.85010373  0.46667975  1
  H+  H83  1  0.22202738  0.35489191  0.66457235  1
  H+  H84  1  0.36787007  0.72634164  0.34679546  1
  H+  H85  1  0.76441523  0.36796479  0.00747752  1
  H+  H86  1  0.41389104  0.82910787  0.23307178  1
  H+  H87  1  1.01407793  0.90314391  0.68931057  1
  H+  H88  1  0.21575383  0.36347802  0.48438704  1
  H+  H89  1  0.10714456  0.13628973  0.34673369  1
  H+  H90  1  0.58026216  0.91048074  0.09174596  1
  H+  H91  1  0.63377661  0.10699160  0.66063607  1
  H+  H92  1  0.22871228  0.61992450  0.66953740  1
  H+  H93  1  0.63298496  0.77340351  0.32671079  1
  H+  H94  1  0.86973091  0.38565995  0.66776234  1
  H+  H95  1  0.47262571  0.13297406  0.52075204  1
  H+  H96  1  0.10464401  0.13391936  0.67867133  1
  H+  H97  1  0.20352762  0.58402889  0.90451297  1
  H+  H98  1  0.38894360  0.28155325  0.83722400  1
  H+  H99  1  0.74799127  0.10755481  0.80831921  1
  H+  H100  1  0.72582939  0.11120337  0.50648456  1
  H+  H101  1  0.13065621  0.35538892  0.98824901  1
  H+  H102  1  0.38073789  0.27022560  0.64746078  1
  H+  H103  1  0.60177172  0.20807381  0.68122797  1
  H+  H104  1  0.14374916  0.14779612  0.84409403  1
  H+  H105  1  0.87639215  0.60336309  0.65247386  1
  H+  H106  1  0.35888632  0.13904290  0.81788011  1
  H+  H107  1  0.52350742  0.88311766  0.15670062  1
  H+  H108  1  0.39020443  0.85492683  0.66532399  1
  H+  H109  1  0.27034491  0.89070814  0.32715725  1
  H+  H110  1  0.38311576  0.86216926  0.32755775  1
  H+  H111  1  0.87466939  0.51043735  0.83739752  1
  H+  H112  1  0.41606178  0.58250552  0.26457001  1
  H+  H113  1  0.91040684  0.00191290  0.16704322  1
  H+  H114  1  0.66620957  0.83382149  0.57254943  1
  H+  H115  1  0.63188822  0.97544538  0.78259832  1
  H+  H116  1  0.59009386  0.38255000  0.15020289  1
  H+  H117  1  0.38737713  0.02781384  0.32165969  1
  H+  H118  1  0.37204996  0.83514481  0.49543066  1
  H+  H119  1  0.88750198  0.76813739  0.83473445  1
  H+  H120  1  0.85800336  0.13381536  0.49552557  1
  H+  H121  1  0.13831360  1.02834214  0.47639303  1
  H+  H122  1  0.63664581  0.86740558  0.67100403  1
  H+  H123  1  0.12456677  0.26947656  0.83486974  1
  H+  H124  1  0.89146716  0.27628675  0.65829510  1
  H+  H125  1  0.61114850  0.33935438  0.16743436  1
  H+  H126  1  0.33705294  0.16915311  0.05442997  1
  H+  H127  1  0.86743091  0.11172632  0.33434854  1
  H+  H128  1  0.77869994  0.38294053  0.67104201  1
  H+  H129  1  0.05330877  0.41886754  0.81576693  1
  H+  H130  1  0.85621883  0.89265372  0.47652851  1
  H+  H131  1  0.14006477  0.53280833  0.51264182  1
  H+  H132  1  0.10532597  0.22320702  0.67894377  1
  H+  H133  1  0.53629652  0.89793641  0.69961664  1
  H+  H134  1  0.57012932  0.23420255  0.14820852  1
  H+  H135  1  0.56889885  0.41055047  0.68882899  1
  H+  H136  1  0.61005939  0.97287423  0.34289359  1
  H+  H137  1  0.58941659  0.10709341  0.83017879  1
  H+  H138  1  0.10560720  0.46216081  0.15032235  1
  H+  H139  1  0.61187506  0.38498628  0.85233967  1
  H+  H140  1  0.78889136  0.89508123  0.83491308  1
  H+  H141  1  0.35983090  0.38964983  0.82621060  1
  H+  H142  1  1.01167174  0.12830461  0.83577815  1
  H+  H143  1  0.60857365  0.63977327  0.67441753  1
  H+  H144  1  0.63718037  0.10882548  0.31964120  1
  H+  H145  1  0.34976570  0.99928252  0.48886161  1
  H+  H146  1  0.25931566  0.13318172  0.00351036  1
  H+  H147  1  0.62931169  0.25482498  0.84130798  1
  H+  H148  1  0.01474716  0.37307804  0.15515812  1
  H+  H149  1  0.37828866  0.14400830  0.14799334  1
  H+  H150  1  0.64044351  0.52137937  0.98976382  1
  H+  H151  1  0.97866301  0.12827966  0.99095278  1
  H+  H152  1  0.72342996  0.86569418  0.67065226  1
  H+  H153  1  0.91736676  0.33045780  0.56747107  1
  H+  H154  1  0.38268466  0.36349832  -0.00668008  1
  H+  H155  1  0.17653117  0.58585432  0.27765699  1
  H+  H156  1  0.27878243  0.15587588  0.82269967  1
  H+  H157  1  0.76798520  0.11998305  0.16592204  1
  H+  H158  1  0.38192265  0.52134578  0.17131104  1
  H+  H159  1  0.41356269  0.33232416  0.22607359  1
  H+  H160  1  0.11100069  0.70034612  0.81780649  1
  H+  H161  1  0.00915775  0.95764126  0.14872486  1
  H+  H162  1  0.11927428  0.87613673  0.83593286  1
  H+  H163  1  0.84335882  0.56233936  0.38144173  1
  H+  H164  1  0.52808707  0.09927344  0.46123605  1
  H+  H165  1  0.27288034  0.37995659  0.32561325  1
  H+  H166  1  0.64103156  0.79791021  0.84440956  1
  H+  H167  1  0.14452756  0.03319374  0.20035501  1
  H+  H168  1  0.62433581  0.22727168  0.00775082  1
  H+  H169  1  0.14074774  0.26953465  0.32469105  1
  H+  H170  1  0.99498297  0.61378549  0.50595396  1
  H+  H171  1  0.11678689  0.48206114  0.66453909  1
  H+  H172  1  0.89239924  0.35685816  0.16810509  1
  H+  H173  1  0.13535293  0.77687126  0.32111921  1
  H+  H174  1  0.36490222  0.63742815  0.00962036  1
  H+  H175  1  0.38911798  0.76023090  0.68094280  1
  H+  H176  1  0.86120638  0.13809317  0.67003368  1
  H+  H177  1  0.46700438  0.37105938  0.16456117  1
  H+  H178  1  0.36745979  0.63856657  0.15805232  1
  H+  H179  1  0.46979972  0.84477703  0.85383032  1
  H+  H180  1  0.12661845  0.10661936  -0.00377262  1
  H+  H181  1  0.07075260  0.16161332  0.77203187  1
  H+  H182  1  0.86940071  0.38676566  0.49637383  1
  H+  H183  1  0.21813010  0.35637006  0.83311228  1
  H+  H184  1  0.05046969  0.64117073  0.37020834  1
  H+  H185  1  0.10942939  0.72456706  0.49869421  1
  H+  H186  1  0.85203863  0.62326466  0.82679052  1
  H+  H187  1  0.77822350  0.59100900  0.39847990  1
  H+  H188  1  0.61722752  0.12731210  0.49220020  1
  H+  H189  1  0.72486700  0.37966765  0.33217090  1
  H+  H190  1  0.37656453  0.36140332  0.48999530  1
  H+  H191  1  0.37093257  0.88962447  0.01084053  1
  H+  H192  1  0.11403210  1.00445167  0.34269441  1
  H+  H193  1  0.98281557  0.40529044  0.90044697  1
  H+  H194  1  0.35493936  0.47033558  0.47338491  1
  H+  H195  1  0.32767606  0.41053272  0.41401111  1
  H+  H196  1  0.38716216  0.35840152  0.32173970  1
  H+  H197  1  0.85694690  0.98095811  0.49553463  1
  H+  H198  1  0.46600703  0.62855237  0.82773461  1
  H+  H199  1  0.97955526  0.16035765  0.20770934  1
  H+  H200  1  0.64748545  0.54345565  0.31979098  1
  H+  H201  1  0.28083692  0.86908886  0.66654186  1
  H+  H202  1  0.51771186  0.39061431  0.48561833  1
  H+  H203  1  0.23012771  0.83630846  0.83061674  1
  H+  H204  1  0.39256766  0.78058315  1.00157518  1
  H+  H205  1  0.55357905  0.12747834  0.01441387  1
  H+  H206  1  0.17272959  0.87451315  0.67170254  1
  H+  H207  1  1.00676381  0.39563878  0.49032040  1
  H+  H208  1  0.09666322  -0.03699745  1.01262535  1
  H+  H209  1  0.47370431  0.60922799  0.17008727  1
  H+  H210  1  0.13188360  0.59957590  0.99316408  1
  H+  H211  1  0.10050203  0.22873978  0.49033911  1
  H+  H212  1  0.38349992  0.12905096  0.50944925  1
  H+  H213  1  0.65846813  0.11497593  0.98700066  1
  H+  H214  1  0.36797781  0.96119096  0.66780014  1
  H+  H215  1  0.78740399  0.39667862  0.48161662  1
  H+  H216  1  0.02566933  0.87403255  0.67199889  1
  H+  H217  1  0.22301921  0.85461781  0.17203938  1
  H+  H218  1  0.38125300  0.01569445  0.17414580  1
  H+  H219  1  0.21092207  0.86851318  0.50622133  1
  H+  H220  1  0.88372275  0.12082667  0.18219820  1
  H+  H221  1  0.14216046  0.36001810  0.32244197  1
  H+  H222  1  0.38160432  0.23486095  0.14581424  1
  H+  H223  1  0.52341244  0.39165124  -0.00335104  1
  H+  H224  1  0.85147708  -0.00033659  0.33741981  1
  H+  H225  1  0.01752429  0.62140173  0.16506805  1
  H+  H226  1  0.61529397  0.73451231  0.00925888  1
  H+  H227  1  0.35988702  0.61482740  0.50056162  1
  H+  H228  1  0.36105745  0.23272076  0.48370027  1
  H+  H229  1  0.13156613  0.51094308  0.99159439  1
  H+  H230  1  0.01541296  0.62168009  0.81704340  1
  H+  H231  1  0.66438309  0.89654392  0.84974967  1
  H+  H232  1  0.62855067  1.00077538  0.16860127  1
  H+  H233  1  0.17697743  0.12995100  0.19744095  1
  H+  H234  1  0.60989086  0.96304162  0.01251908  1
  H+  H235  1  0.90108123  0.82474662  0.41496736  1
  H+  H236  1  0.51961999  0.63739198  0.33781735  1
  H+  H237  1  0.20023953  0.52114193  0.21088547  1
  H+  H238  1  0.75773262  0.88890666  0.33866489  1
  H+  H239  1  0.62699705  0.86190630  1.00764076  1
  H+  H240  1  0.58231974  0.67623225  0.42972873  1
  H+  H241  1  0.36483041  0.63741775  0.67976477  1
  H+  H242  1  0.63691983  0.27325898  0.48599826  1
  H+  H243  1  0.38646865  0.14282316  0.33302292  1
  H+  H244  1  0.61211592  0.73316142  0.49276904  1
  H+  H245  1  0.18054733  0.53676951  0.84002420  1
  H+  H246  1  0.46748322  0.09874643  0.66646506  1
  H+  H247  1  0.61808712  0.88599555  0.49812644  1
  H+  H248  1  0.85310109  0.65378265  0.48623390  1
  H+  H249  1  0.38687744  0.24175792  0.33436763  1
  H+  H250  1  0.63102181  0.61449171  0.16341520  1
  H+  H251  1  0.38601820  0.52793540  -0.00233111  1
  H+  H252  1  0.98269744  0.36139529  0.32022470  1
  H+  H253  1  0.36245839  0.88533068  0.16188027  1
  H+  H254  1  0.13593514  0.35920174  0.66152740  1
  H+  H255  1  0.72613915  0.86511238  0.51224357  1
  H+  H256  1  0.12486047  0.35025011  0.16935965  1
  H+  H257  1  0.84068043  0.70441628  0.67109615  1
  H+  H258  1  0.74058191  0.61199858  -0.00479382  1
  H+  H259  1  0.90973191  0.55654937  0.23527697  1
  H+  H260  1  0.63121326  0.35834948  0.99168238  1
  H+  H261  1  0.01725506  0.61991077  0.00525968  1
  H+  H262  1  0.62990084  0.86073850  0.32672460  1
  H+  H263  1  0.62100515  -0.01500014  0.68118158  1
  H+  H264  1  0.88631572  0.85039912  0.19129927  1
  H+  H265  1  0.96795370  0.11246849  0.51000404  1
  H+  H266  1  0.76741692  0.62707800  0.15604789  1
  H+  H267  1  0.53025379  0.14111038  0.33207960  1
  H+  H268  1  0.89326619  0.09797821  0.84121753  1
  H+  H269  1  0.23597663  0.60755869  0.33573266  1
  H+  H270  1  0.16703748  -0.00874753  0.69012519  1
  H+  H271  1  0.74486683  0.11729842  0.97567426  1
  H+  H272  1  0.16990988  0.08210096  0.29788317  1
  H+  H273  1  0.60471627  0.72183272  0.15927892  1
  H+  H274  1  0.63170600  0.09225760  0.17420071  1
  H+  H275  1  0.41422533  0.74390654  0.53503142  1
  H+  H276  1  0.61182197  0.73078541  0.67728432  1
  H+  H277  1  0.10010686  0.88238327  0.50354639  1
  H+  H278  1  0.71895933  0.34378760  0.83762344  1
  H+  H279  1  0.60174561  0.48241039  0.15059778  1
  H+  H280  1  0.02418349  0.63790571  0.66591721  1
  H+  H281  1  0.35402921  -0.03063841  1.00482257  1
  H+  H282  1  0.01572308  0.88714148  0.48292367  1
  H+  H283  1  0.11658562  0.22719192  0.00303762  1
  H+  H284  1  0.98205887  0.32251980  0.87939299  1
  H+  H285  1  0.36550253  0.47591204  0.67191466  1
  H+  H286  1  0.17465093  0.80261321  0.89108311  1
  H+  H287  1  0.13920758  0.62009932  0.66274585  1
  H+  H288  1  0.66482903  0.08184467  0.56609644  1
  H+  H289  1  0.34489586  0.91052035  0.47975473  1
  H+  H290  1  0.69999949  0.31781440  0.24641258  1
  H+  H291  1  0.16332583  0.07965035  0.60844322  1
  H+  H292  1  0.14434220  0.93558288  0.75081964  1
  H+  H293  1  0.61711238  0.64586993  0.00496800  1
  H+  H294  1  0.85423332  0.21257957  0.16178378  1
  H+  H295  1  0.90665018  0.56912802  0.89685694  1
  H+  H296  1  0.06834093  0.39632467  0.06044463  1
  H+  H297  1  0.34977056  0.47316737  0.81786777  1
  H+  H298  1  0.82328658  0.17115222  0.72395321  1
  H+  H299  1  0.90825435  0.08075292  0.57004448  1
  H+  H300  1  0.84916561  0.78013507  0.58811190  1
  H+  H301  1  0.43897931  0.81052774  0.61414258  1
  H+  H302  1  0.82915899  0.16663460  0.43607699  1
  H+  H303  1  0.83483075  0.91834837  0.74235107  1
  H+  H304  1  0.06452991  0.91736772  0.07573520  1
  H+  H305  1  0.76803296  0.14011775  0.33904703  1
  H+  H306  1  0.16587038  0.08717216  0.41833412  1
  H+  H307  1  0.34662677  0.66126970  0.74525430  1
  H+  H308  1  0.09389238  0.42544998  0.72368232  1
  H+  H309  1  0.07966008  0.90050161  0.40049027  1
  H+  H310  1  0.66007719  0.58544916  0.22283841  1
  H+  H311  1  0.51254360  0.37489955  0.63204016  1
  H+  H312  1  0.58324820  0.42987033  0.39126144  1
  H+  H313  1  0.60761669  0.65049978  0.83496748  1
  H+  H314  1  0.39390285  0.07381259  0.88614624  1
  H+  H315  1  0.91999455  0.81086117  0.93449375  1
  H+  H316  1  0.33619005  0.17622436  0.72812811  1
  H+  H317  1  0.17629290  0.59145528  0.57296624  1
  H+  H318  1  0.87449873  0.77516488  0.47825208  1
  H+  H319  1  0.50037258  0.83775819  0.53284932  1
  H+  H320  1  0.83185794  0.40498188  0.10215351  1
  H+  H321  1  0.59052469  0.17819114  0.10348355  1
  H+  H322  1  0.42117757  0.84327163  0.91405028  1
  H+  H323  1  0.72591843  0.64416704  0.31011465  1
  H+  H324  1  0.50916987  0.12220988  0.82664975  1
  H+  H325  1  0.82879052  0.65256673  0.06276369  1
  H+  H326  1  0.09129479  0.16919831  0.06365943  1
  H+  H327  1  0.57218957  0.14441993  0.73784619  1
  H+  H328  1  0.07518616  0.17691321  0.39698145  1
  H+  H329  1  0.62837146  0.35023600  0.65618925  1
  H+  H330  1  0.33428770  0.66678400  0.09838427  1
  H+  H331  1  0.41885711  0.08713062  0.26206347  1
  H+  H332  1  0.03630349  0.88364740  0.82793879  1
  H+  H333  1  0.57841093  0.42324273  0.05752494  1
  H+  H334  1  0.81850150  0.64894599  0.76729008  1
  H+  H335  1  0.34704429  0.90789563  0.76410639  1
  H+  H336  1  0.67005953  0.84278389  0.94915301  1
  H+  H337  1  0.42081076  0.59380958  0.60615731  1
  H+  H338  1  0.33354557  0.91622515  0.10234784  1
  H+  H339  1  0.84368029  0.35198072  0.01227184  1
  H+  H340  1  0.40381420  0.33188455  0.55186918  1
  H+  H341  1  0.51434243  0.36927112  0.75471316  1
  H+  H342  1  0.38047220  0.27306760  0.98920049  1
  H+  H343  1  0.33584474  0.41227940  0.72857792  1
  H+  H344  1  0.15971018  0.32587818  0.23064507  1
  H+  H345  1  0.65748460  0.82479316  0.22627576  1
  H+  H346  1  0.85508056  0.62463189  0.16155376  1
  H+  H347  1  0.40855691  0.33490482  0.90023789  1
  H+  H348  1  0.16427379  0.33147476  0.92819874  1
  H+  H349  1  0.16500133  0.83241604  0.57049681  1
  H+  H350  1  0.32646190  0.41335538  0.06479130  1
  H+  H351  1  0.31264044  0.62354388  0.83989441  1
  H+  H352  1  0.08151176  0.40967678  0.39126583  1
  H+  H353  1  0.91984583  0.32540129  0.22762514  1
  H+  H354  1  0.92361530  0.09469848  0.92688876  1
  H+  H355  1  0.40745199  0.07710332  0.60778811  1
  H+  H356  1  0.03844030  0.47424445  0.44653689  1
  H+  H357  1  0.88521556  0.16227627  -0.01069756  1
  H+  H358  1  0.57946940  0.91273096  0.40271148  1
  H+  H359  1  0.48735267  0.86791082  1.00551024  1
  H+  H360  1  0.22264972  0.20002870  0.88709325  1
  H+  H361  1  0.90153643  0.08132351  0.27515407  1
  H+  H362  1  0.88500331  0.51890297  0.65327216  1
  H+  H363  1  0.07607650  0.65746242  0.72956124  1
  H+  H364  1  0.88018026  0.94794738  0.10575321  1
  H+  H365  1  0.57629176  0.66349568  0.09853494  1
  H+  H366  1  0.87209205  0.27569725  0.94218050  1
  H+  H367  1  0.67000242  0.33033949  0.54388914  1
  H+  H368  1  0.32438182  0.93106689  0.38736198  1
  H+  H369  1  0.81523609  0.92605073  0.40175053  1
  H+  H370  1  0.34520383  0.66654381  0.40635164  1
  H+  H371  1  0.16046046  0.08253632  0.93767370  1
  H+  H372  1  0.77386846  0.90698700  0.02570094  1
  H+  H373  1  0.07530663  0.64852614  0.06535963  1
  H+  H374  1  0.66463375  0.06816087  0.26535851  1
  H+  H375  1  0.35488030  0.17600885  0.39775392  1
  H+  H376  1  0.92100446  0.57928237  0.56530596  1
  H+  H377  1  0.51559305  0.41193838  0.75215422  1
  H+  H378  1  0.59399069  0.16823919  0.38915170  1
  H+  H379  1  0.16689700  0.83274449  0.26076629  1
  H+  H380  1  0.66020024  0.32337670  0.93405507  1
  H+  H381  1  0.64202341  0.28357339  0.33114642  1
  H+  H382  1  0.58502113  0.67810882  0.77231357  1
  H+  H383  1  0.97084653  0.11133358  0.66457241  1
  O2-  O384  1  0.10784540  0.16535076  0.14172607  1
  O2-  O385  1  0.06571829  0.16597877  0.47955389  1
  O2-  O386  1  0.07494072  0.16776838  0.81721503  1
  O2-  O387  1  0.07468015  0.40159900  0.13655164  1
  O2-  O388  1  0.05978868  0.44148916  0.46854500  1
  O2-  O389  1  0.11068036  0.43689375  0.79953553  1
  O2-  O390  1  0.07644937  0.65002869  0.14665964  1
  O2-  O391  1  0.08199081  0.66296054  0.48559276  1
  O2-  O392  1  0.07255895  0.64303065  0.79853760  1
  O2-  O393  1  0.05677266  0.94522815  0.15618123  1
  O2-  O394  1  0.07936985  0.91920687  0.48475622  1
  O2-  O395  1  0.09874287  0.91383356  0.81943314  1
  O2-  O396  1  0.37786264  0.18738314  0.12062515  1
  O2-  O397  1  0.33861674  0.17193212  0.46870619  1
  O2-  O398  1  0.33674902  0.17747128  0.80390690  1
  O2-  O399  1  0.32439783  0.41638719  0.14409171  1
  O2-  O400  1  0.32462324  0.40991515  0.46020636  1
  O2-  O401  1  0.32426624  0.41192110  0.80666617  1
  O2-  O402  1  0.33375910  0.66636242  0.14486933  1
  O2-  O403  1  0.34290522  0.65742802  0.49032240  1
  O2-  O404  1  0.37141588  0.65125147  0.81670409  1
  O2-  O405  1  0.33269163  0.91679196  0.14805412  1
  O2-  O406  1  0.31527577  0.94210570  0.46897290  1
  O2-  O407  1  0.34483231  0.91658666  0.80823237  1
  O2-  O408  1  0.57520346  0.18183066  0.14671552  1
  O2-  O409  1  0.58110413  0.15123547  0.47292626  1
  O2-  O410  1  0.57153905  0.14754541  0.81448002  1
  O2-  O411  1  0.56614000  0.42310029  0.13247989  1
  O2-  O412  1  0.57893660  0.42451660  0.47198567  1
  O2-  O413  1  0.58933118  0.42458187  0.85762075  1
  O2-  O414  1  0.57431990  0.65950093  0.14403917  1
  O2-  O415  1  0.58175921  0.67336887  0.47565076  1
  O2-  O416  1  0.58106729  0.68212325  0.81739644  1
  O2-  O417  1  0.58346913  0.91287529  0.14160795  1
  O2-  O418  1  0.58071290  0.90984039  0.48487083  1
  O2-  O419  1  0.66481114  0.99912560  0.82157493  1
  O2-  O420  1  0.82910099  0.15045340  0.15277712  1
  O2-  O421  1  0.82795028  0.16528710  0.48154353  1
  O2-  O422  1  0.78864382  0.16806512  0.79675636  1
  O2-  O423  1  0.84416583  0.41232644  0.14647074  1
  O2-  O424  1  0.85056836  0.42682165  0.47999091  1
  O2-  O425  1  0.82502508  0.40030900  0.80706452  1
  O2-  O426  1  0.82879632  0.65604081  0.14249600  1
  O2-  O427  1  0.83417169  0.68426199  0.51384083  1
  O2-  O428  1  0.82089912  0.65341569  0.81242853  1
  O2-  O429  1  0.91060960  0.95406254  0.14558684  1
  O2-  O430  1  0.82144778  0.92207333  0.47699911  1
  O2-  O431  1  0.84702158  0.92079505  0.81647118  1
  O2-  O432  1  0.18631350  0.08823114  0.22001480  1
  O2-  O433  1  0.17041591  0.09018365  0.46377142  1
  O2-  O434  1  0.19358611  0.14557955  0.86525602  1
  O2-  O435  1  0.15784076  0.32294214  0.18481094  1
  O2-  O436  1  0.15596607  0.33476462  0.49981949  1
  O2-  O437  1  0.15822821  0.33179834  0.84881866  1
  O2-  O438  1  0.18430558  0.55977311  0.19121162  1
  O2-  O439  1  0.17751607  0.59255627  0.52700708  1
  O2-  O440  1  0.22261804  0.58933421  0.86155048  1
  O2-  O441  1  0.16423988  0.82390493  0.18950404  1
  O2-  O442  1  0.15462211  0.82954674  0.52522110  1
  O2-  O443  1  0.17029036  0.80190874  0.84521643  1
  O2-  O444  1  0.41124758  0.07706174  0.18979318  1
  O2-  O445  1  0.41082352  0.09704961  0.52833643  1
  O2-  O446  1  0.40462494  0.07890660  0.84142831  1
  O2-  O447  1  0.40751485  0.33476476  0.18143155  1
  O2-  O448  1  0.40918660  0.33374008  0.50634310  1
  O2-  O449  1  0.41326081  0.34048849  0.85459749  1
  O2-  O450  1  0.41350475  0.58160100  0.18722222  1
  O2-  O451  1  0.43206834  0.56867180  0.52306591  1
  O2-  O452  1  0.40224989  0.59023188  0.82601221  1
  O2-  O453  1  0.41426918  0.83189596  0.18795801  1
  O2-  O454  1  0.46062919  0.78987894  0.56048431  1
  O2-  O455  1  0.41760510  0.84228875  0.86820802  1
  O2-  O456  1  0.66029454  0.06189105  0.18906093  1
  O2-  O457  1  0.66407977  0.08120396  0.52031416  1
  O2-  O458  1  0.60881094  0.02096166  0.85728451  1
  O2-  O459  1  0.72288739  0.29543744  0.21467278  1
  O2-  O460  1  0.66624137  0.33358099  0.49981453  1
  O2-  O461  1  0.66029661  0.31579529  0.85544471  1
  O2-  O462  1  0.66068907  0.58217773  0.17756111  1
  O2-  O463  1  0.66120715  0.58998443  0.51606062  1
  O2-  O464  1  0.66889696  0.58836519  0.86572902  1
  O2-  O465  1  0.65366667  0.81761494  0.18177695  1
  O2-  O466  1  0.66526638  0.83198130  0.52714432  1
  O2-  O467  1  0.68095039  0.85438192  0.86292323  1
  O2-  O468  1  0.92683798  0.10530126  0.20356152  1
  O2-  O469  1  0.90656661  0.08050086  0.52447199  1
  O2-  O470  1  0.92727074  0.07662738  0.86101649  1
  O2-  O471  1  0.91964399  0.32275956  0.18220033  1
  O2-  O472  1  0.91467130  0.33026320  0.52172083  1
  O2-  O473  1  0.95658534  0.35849277  0.87093601  1
  O2-  O474  1  0.91289264  0.57027058  0.19175612  1
  O2-  O475  1  0.92870435  0.57844095  0.51899687  1
  O2-  O476  1  0.90337274  0.57079595  0.85153068  1
  O2-  O477  1  0.89783143  0.80747335  0.21042179  1
  O2-  O478  1  0.90497784  0.83439920  0.45900420  1
  O2-  O479  1  0.92227661  0.82642485  0.85206605  1
  O2-  O480  1  0.14823269  0.06921518  0.34080509  1
  O2-  O481  1  0.16882596  0.08800485  0.65227717  1
  O2-  O482  1  0.15692355  0.07548797  0.98239380  1
  O2-  O483  1  0.17205595  0.33018255  0.30585575  1
  O2-  O484  1  0.16013996  0.32091588  0.65546110  1
  O2-  O485  1  0.16607110  0.33038389  0.97362487  1
  O2-  O486  1  0.17527203  0.57495154  0.32151703  1
  O2-  O487  1  0.17243939  0.59161399  0.64836002  1
  O2-  O488  1  0.16596621  0.57195063  0.97996535  1
  O2-  O489  1  0.17056755  0.83731189  0.30726733  1
  O2-  O490  1  0.18184250  0.83212837  0.64592516  1
  O2-  O491  1  0.17548211  0.80917436  0.96483098  1
  O2-  O492  1  0.42236196  0.09004583  0.30852685  1
  O2-  O493  1  0.40625387  0.06932307  0.65252101  1
  O2-  O494  1  0.38638645  0.07468828  0.96507722  1
  O2-  O495  1  0.42087230  0.32986206  0.30908323  1
  O2-  O496  1  0.40751518  0.32872870  0.62821801  1
  O2-  O497  1  0.41356435  0.33458346  0.97586425  1
  O2-  O498  1  0.41637216  0.57847943  0.31022749  1
  O2-  O499  1  0.41681205  0.58968981  0.65083406  1
  O2-  O500  1  0.41302106  0.58882747  0.98514747  1
  O2-  O501  1  0.41134555  0.82864936  0.31591736  1
  O2-  O502  1  0.42472624  0.82154821  0.66130843  1
  O2-  O503  1  0.42416918  0.84175129  0.98877669  1
  O2-  O504  1  0.66643575  0.07536592  0.31094630  1
  O2-  O505  1  0.66508992  0.07905650  0.64298707  1
  O2-  O506  1  0.68249901  0.08350646  0.96573489  1
  O2-  O507  1  0.66580779  0.34340265  0.31599076  1
  O2-  O508  1  0.66011168  0.32339464  0.67523382  1
  O2-  O509  1  0.65979051  0.32497896  0.97957660  1
  O2-  O510  1  0.66421647  0.60016550  0.30152353  1
  O2-  O511  1  0.65627351  0.58454126  0.63776911  1
  O2-  O512  1  0.67664313  0.58433392  0.97662311  1
  O2-  O513  1  0.66370974  0.83418759  0.31165623  1
  O2-  O514  1  0.66365948  0.83562707  0.65330354  1
  O2-  O515  1  0.66370102  0.83468095  0.99357987  1
  O2-  O516  1  0.89032978  0.07344757  0.32034319  1
  O2-  O517  1  0.90996711  0.08223466  0.64881394  1
  O2-  O518  1  0.92066591  0.10833995  0.97328435  1
  O2-  O519  1  0.92147173  0.33366759  0.30649103  1
  O2-  O520  1  0.92063647  0.33724771  0.64332501  1
  O2-  O521  1  0.88788560  0.28007125  0.98540453  1
  O2-  O522  1  0.83147545  0.46901517  0.34661514  1
  O2-  O523  1  0.91106430  0.57828838  0.63599023  1
  O2-  O524  1  0.90974906  0.56577107  0.97633462  1
  O2-  O525  1  0.82520075  0.73330069  0.32084212  1
  O2-  O526  1  0.86606345  0.80199284  0.62961966  1
  O2-  O527  1  0.91367981  0.79977888  0.97887445  1
  O2-  O528  1  0.08324522  0.16697779  0.01865372  1
  O2-  O529  1  0.08772379  0.17898483  0.35298343  1
  O2-  O530  1  0.07123555  0.16087776  0.69273244  1
  O2-  O531  1  0.06467959  0.39358427  0.01476512  1
  O2-  O532  1  0.08726004  0.41016706  0.34664948  1
  O2-  O533  1  0.08524164  0.42105704  0.67855709  1
  O2-  O534  1  0.07740579  0.64674954  0.02021427  1
  O2-  O535  1  0.05054778  0.66990367  0.33254766  1
  O2-  O536  1  0.08292448  0.66626458  0.68288034  1
  O2-  O537  1  0.06443949  0.90588602  0.03180142  1
  O2-  O538  1  0.07028870  0.89940345  0.35624731  1
  O2-  O539  1  0.17818989  0.95000253  0.71178405  1
  O2-  O540  1  0.32357731  0.16535652  0.00930720  1
  O2-  O541  1  0.36069766  0.17905661  0.35129657  1
  O2-  O542  1  0.33630558  0.17262834  0.68228377  1
  O2-  O543  1  0.33104983  0.41403213  0.01947050  1
  O2-  O544  1  0.33439288  0.40943357  0.34094127  1
  O2-  O545  1  0.33908846  0.41431739  0.68306719  1
  O2-  O546  1  0.33390966  0.66784194  0.02592054  1
  O2-  O547  1  0.34270552  0.66553541  0.36126681  1
  O2-  O548  1  0.33855994  0.66868575  0.70048348  1
  O2-  O549  1  0.33353545  0.91355063  0.02518774  1
  O2-  O550  1  0.33168141  0.92540496  0.34331697  1
  O2-  O551  1  0.34359728  0.89944669  0.67970047  1
  O2-  O552  1  0.61045365  0.17104210  0.02792347  1
  O2-  O553  1  0.59218930  0.17164669  0.34439150  1
  O2-  O554  1  0.57222043  0.14623559  0.69194363  1
  O2-  O555  1  0.58412942  0.42202002  0.01178120  1
  O2-  O556  1  0.58479454  0.43084547  0.34596212  1
  O2-  O557  1  0.57538518  0.40590858  0.64478539  1
  O2-  O558  1  0.58378827  0.67097670  0.02126408  1
  O2-  O559  1  0.57963952  0.67036514  0.35417858  1
  O2-  O560  1  0.57991153  0.66987720  0.69235833  1
  O2-  O561  1  0.57672645  0.90479985  0.02880271  1
  O2-  O562  1  0.57753449  0.91197533  0.35740388  1
  O2-  O563  1  0.59833535  0.93234194  0.70771782  1
  O2-  O564  1  0.84651776  0.18924290  0.00459085  1
  O2-  O565  1  0.82733193  0.17115098  0.35691882  1
  O2-  O566  1  0.83102530  0.17130976  0.67895212  1
  O2-  O567  1  0.82477916  0.39350786  0.02232073  1
  O2-  O568  1  0.89214157  0.47644390  0.30960509  1
  O2-  O569  1  0.83943519  0.41649940  0.68384660  1
  O2-  O570  1  0.82671619  0.64912615  0.01723229  1
  O2-  O571  1  0.83973832  0.61197603  0.39837743  1
  O2-  O572  1  0.81620989  0.64444453  0.68565597  1
  O2-  O573  1  0.83332529  0.94573255  0.03976947  1
  O2-  O574  1  0.81803321  0.92697646  0.35593116  1
  O2-  O575  1  0.82588635  0.91749607  0.69646955  1
