# generated using pymatgen
data_H2O
_symmetry_space_group_name_H-M   'P 1'
_cell_length_a   17.98490744
_cell_length_b   17.98704048
_cell_length_c   22.01447444
_cell_angle_alpha   90.06035230
_cell_angle_beta   89.95267042
_cell_angle_gamma   120.01248451
_symmetry_Int_Tables_number   1
_chemical_formula_structural   H2O
_chemical_formula_sum   'H384 O192'
_cell_volume   6166.68772819
_cell_formula_units_Z   192
loop_
 _symmetry_equiv_pos_site_id
 _symmetry_equiv_pos_as_xyz
  1  'x, y, z'
loop_
 _atom_type_symbol
 _atom_type_oxidation_number
  H+  1.0
  O2-  -2.0
loop_
 _atom_site_type_symbol
 _atom_site_label
 _atom_site_symmetry_multiplicity
 _atom_site_fract_x
 _atom_site_fract_y
 _atom_site_fract_z
 _atom_site_occupancy
  H+  H0  1  0.63205452  0.26289077  0.85012246  1
  H+  H1  1  0.14551298  0.51959366  0.65736091  1
  H+  H2  1  0.60262578  0.47412382  0.16112539  1
  H+  H3  1  0.36141393  0.87439650  0.49055501  1
  H+  H4  1  0.09938442  0.85121080  0.36224688  1
  H+  H5  1  0.98312485  0.85985954  0.18097860  1
  H+  H6  1  0.16674666  0.38175150  0.65239597  1
  H+  H7  1  0.37363938  0.75846532  0.65078251  1
  H+  H8  1  0.11939839  0.13455409  0.15763505  1
  H+  H9  1  0.68146927  0.42408236  0.30502471  1
  H+  H10  1  0.36208827  0.35114976  0.50826837  1
  H+  H11  1  0.59957471  0.88250503  0.49676675  1
  H+  H12  1  0.45116914  0.85065014  0.65931272  1
  H+  H13  1  0.85273670  0.74169527  0.81863544  1
  H+  H14  1  0.12778271  0.15118826  1.00327753  1
  H+  H15  1  0.90229882  1.05960509  -0.08396978  1
  H+  H16  1  0.22029810  0.35726003  0.17900010  1
  H+  H17  1  0.27222971  0.13303734  0.99708722  1
  H+  H18  1  0.39737609  0.55464204  0.26208770  1
  H+  H19  1  0.61970724  0.85653023  1.00313660  1
  H+  H20  1  0.65652771  0.53385163  0.63946561  1
  H+  H21  1  0.34855795  0.61643563  0.50203497  1
  H+  H22  1  0.50509645  0.79413688  0.72113926  1
  H+  H23  1  0.86776369  0.99025137  0.50707165  1
  H+  H24  1  0.12021193  0.87532463  0.16864812  1
  H+  H25  1  0.61784876  0.84783814  0.85650818  1
  H+  H26  1  0.00334111  0.62191374  0.34001072  1
  H+  H27  1  0.13752441  0.10524743  0.49437185  1
  H+  H28  1  0.36281493  0.46357453  0.80771830  1
  H+  H29  1  0.06838532  0.66430790  -0.03371300  1
  H+  H30  1  0.14114181  0.01824548  0.17040647  1
  H+  H31  1  0.80262216  0.47292895  0.80257751  1
  H+  H32  1  0.91440387  0.56210441  0.96226881  1
  H+  H33  1  0.96922749  0.61912696  0.49302604  1
  H+  H34  1  0.01931680  0.37785148  0.16414267  1
  H+  H35  1  0.64766695  0.27978680  0.22744788  1
  H+  H36  1  0.73894649  0.37009033  0.65635473  1
  H+  H37  1  0.79174057  0.64160982  0.65948802  1
  H+  H38  1  0.31905133  0.39834726  0.40603161  1
  H+  H39  1  0.89258148  0.49425588  0.87190959  1
  H+  H40  1  0.30995134  0.82804084  0.67576520  1
  H+  H41  1  0.35552778  0.71768190  0.50036684  1
  H+  H42  1  0.11154417  0.98397044  0.81996524  1
  H+  H43  1  0.35556391  0.47331941  0.16256465  1
  H+  H44  1  0.12223548  0.27833553  0.82817127  1
  H+  H45  1  0.36257252  0.37369830  0.81836883  1
  H+  H46  1  0.46568335  0.92344523  0.21514927  1
  H+  H47  1  0.06520265  0.66055373  0.69738308  1
  H+  H48  1  0.60960055  0.87814558  0.15869209  1
  H+  H49  1  0.97465626  0.87498797  0.65153129  1
  H+  H50  1  0.14206903  0.35429594  0.33598134  1
  H+  H51  1  0.51187919  0.48242847  0.44716848  1
  H+  H52  1  0.83434740  0.41012579  0.73204634  1
  H+  H53  1  0.12331513  0.52110051  0.51189364  1
  H+  H54  1  0.73146317  0.09335800  0.16438440  1
  H+  H55  1  0.05771166  0.96257506  0.05197150  1
  H+  H56  1  0.26858899  0.88966448  0.01019018  1
  H+  H57  1  0.87116105  0.10903732  0.15816657  1
  H+  H58  1  0.97826641  0.58583133  0.86985329  1
  H+  H59  1  0.55950724  0.43724226  0.41848069  1
  H+  H60  1  0.72679816  0.62197469  0.32086759  1
  H+  H61  1  0.39982969  0.52026423  0.65963253  1
  H+  H62  1  0.93393737  0.85529741  0.27650462  1
  H+  H63  1  0.11201972  0.47422600  0.01837102  1
  H+  H64  1  0.75643520  0.38171865  0.83281845  1
  H+  H65  1  0.62954482  0.39337591  0.65357314  1
  H+  H66  1  0.61097430  0.88791313  0.34006148  1
  H+  H67  1  0.22031889  0.12168597  0.82853655  1
  H+  H68  1  0.10290254  0.63321515  0.49511075  1
  H+  H69  1  0.59044093  0.85150884  0.68562672  1
  H+  H70  1  0.08338792  0.38801318  0.52480124  1
  H+  H71  1  1.10800853  0.64452512  0.85489261  1
  H+  H72  1  0.12184674  0.60179408  0.33037681  1
  H+  H73  1  0.71586380  0.36098267  0.49513736  1
  H+  H74  1  0.83858640  0.90139528  0.09878258  1
  H+  H75  1  0.78530027  0.14848710  0.50285675  1
  H+  H76  1  0.60395482  0.63175156  0.17254024  1
  H+  H77  1  0.08679188  0.89448939  0.10691265  1
  H+  H78  1  0.60739789  0.13208486  0.82704348  1
  H+  H79  1  0.42094908  0.82943523  0.26590477  1
  H+  H80  1  0.13060851  0.25561425  0.00867483  1
  H+  H81  1  0.11578839  0.22265721  0.16178126  1
  H+  H82  1  0.51834110  0.13431170  0.82557533  1
  H+  H83  1  0.76452742  0.37570721  0.01957613  1
  H+  H84  1  0.12029191  0.77795512  0.85466563  1
  H+  H85  1  0.38255801  0.76614616  0.84046789  1
  H+  H86  1  0.84811107  0.88540179  0.66540399  1
  H+  H87  1  0.88437087  0.28106422  0.50297842  1
  H+  H88  1  0.71893767  0.86356531  0.66686053  1
  H+  H89  1  0.36286953  0.22482458  0.15641300  1
  H+  H90  1  0.61077129  0.24338255  0.29147715  1
  H+  H91  1  0.36925203  0.62941554  0.66258044  1
  H+  H92  1  0.22623493  0.11391562  0.32403570  1
  H+  H93  1  0.76041750  0.41032394  0.30491142  1
  H+  H94  1  0.63877080  0.77865916  0.31756266  1
  H+  H95  1  0.12986402  0.87017298  0.84337410  1
  H+  H96  1  0.97987095  0.11230956  0.33316159  1
  H+  H97  1  0.42515066  0.08474357  0.26740710  1
  H+  H98  1  0.16726302  0.72943523  0.70960361  1
  H+  H99  1  0.86622615  0.13385187  0.34628767  1
  H+  H100  1  0.56496062  0.66894677  0.37144173  1
  H+  H101  1  0.39198808  0.11230216  0.17119522  1
  H+  H102  1  0.77597337  0.73145977  0.12412837  1
  H+  H103  1  0.36127456  0.50335541  0.50814833  1
  H+  H104  1  0.63859335  1.01958873  0.32651899  1
  H+  H105  1  0.36711281  0.22696304  0.66219214  1
  H+  H106  1  0.36290264  -0.02945888  1.01297226  1
  H+  H107  1  0.52044172  0.88379964  0.33851908  1
  H+  H108  1  0.14256263  0.02090646  0.47815320  1
  H+  H109  1  0.85836950  0.45137872  0.17204682  1
  H+  H110  1  0.23000029  0.85601813  0.18153007  1
  H+  H111  1  0.64075710  0.51489010  0.98934441  1
  H+  H112  1  0.89317730  0.77897481  0.65021971  1
  H+  H113  1  0.14325065  1.03830305  0.64948090  1
  H+  H114  1  0.37678754  0.26592900  0.83730024  1
  H+  H115  1  0.88944921  0.34862085  0.83752463  1
  H+  H116  1  0.48375523  0.11253261  0.32623882  1
  H+  H117  1  0.36532584  -0.03304691  0.48985089  1
  H+  H118  1  0.85227368  0.74286473  0.16327399  1
  H+  H119  1  0.52884250  0.13657579  0.48549329  1
  H+  H120  1  0.38166525  0.26971061  -0.00551416  1
  H+  H121  1  0.51700787  0.88280544  1.00917778  1
  H+  H122  1  0.97552776  0.60886476  0.16344608  1
  H+  H123  1  0.13104057  0.36077004  1.00706987  1
  H+  H124  1  0.97426923  0.36501457  0.99814456  1
  H+  H125  1  0.22995149  0.61813236  1.01548248  1
  H+  H126  1  0.00750058  0.12599277  0.83201977  1
  H+  H127  1  0.35759407  0.38224089  0.01011311  1
  H+  H128  1  0.51553866  0.64120446  1.03020174  1
  H+  H129  1  0.37777097  0.61633181  1.02192047  1
  H+  H130  1  0.37747717  0.37616697  0.66229868  1
  H+  H131  1  0.88001313  0.47729689  0.67984101  1
  H+  H132  1  0.62602227  0.63794215  0.66494727  1
  H+  H133  1  0.88688109  0.25659265  0.16281455  1
  H+  H134  1  0.19509998  0.37938590  0.48423365  1
  H+  H135  1  0.46745031  0.61367404  0.17565240  1
  H+  H136  1  0.10790239  0.90757440  0.66231192  1
  H+  H137  1  0.37735962  0.59856176  0.81292472  1
  H+  H138  1  0.36851970  0.13597899  0.33401247  1
  H+  H139  1  0.88124994  0.59434772  0.15733946  1
  H+  H140  1  0.46587418  0.84236262  0.49998054  1
  H+  H141  1  0.82607718  0.40691909  0.41881752  1
  H+  H142  1  0.87938632  0.25781034  0.32731731  1
  H+  H143  1  0.36215401  0.22183253  0.48872531  1
  H+  H144  1  0.26432110  0.36738801  0.34405668  1
  H+  H145  1  0.88508566  0.36580715  0.99925382  1
  H+  H146  1  0.60808172  0.48106511  0.33361794  1
  H+  H147  1  0.22409085  0.36362755  0.00484446  1
  H+  H148  1  0.12377162  0.46982866  0.35522276  1
  H+  H149  1  0.35448167  0.13637793  0.81529128  1
  H+  H150  1  0.84746803  0.09461221  0.09046260  1
  H+  H151  1  0.64370095  0.13672912  0.66876850  1
  H+  H152  1  0.21976550  0.34954421  0.82192957  1
  H+  H153  1  0.89312464  0.86407875  0.83564092  1
  H+  H154  1  0.38286711  0.02324154  0.82638917  1
  H+  H155  1  0.64589968  0.28445957  0.66048703  1
  H+  H156  1  0.60379283  0.37529968  0.01507964  1
  H+  H157  1  0.13493522  0.88799101  0.46135600  1
  H+  H158  1  0.45721672  0.36749274  0.49873932  1
  H+  H159  1  0.48753927  0.10855783  0.99705466  1
  H+  H160  1  1.00663142  0.89266093  1.00066992  1
  H+  H161  1  0.37742179  0.49729967  0.32429555  1
  H+  H162  1  0.86536249  0.74716640  0.33275548  1
  H+  H163  1  0.38217978  0.36239386  0.17460852  1
  H+  H164  1  0.86376717  0.12485184  0.68129889  1
  H+  H165  1  0.62915625  0.26601229  1.00761043  1
  H+  H166  1  0.31779612  0.89765060  0.76662240  1
  H+  H167  1  0.14362550  0.62253683  0.01105443  1
  H+  H168  1  0.53590151  0.13826606  0.16334463  1
  H+  H169  1  0.11413146  0.13015788  0.34106827  1
  H+  H170  1  0.13252099  0.52040317  0.17411091  1
  H+  H171  1  0.86152123  0.65516857  0.32953067  1
  H+  H172  1  0.64081846  0.78759983  0.52302276  1
  H+  H173  1  0.91317747  0.36112226  0.67287715  1
  H+  H174  1  0.13478619  0.03467387  0.98078903  1
  H+  H175  1  0.88988967  0.77793661  0.98930199  1
  H+  H176  1  0.25587609  0.62360769  0.50392305  1
  H+  H177  1  0.28140987  0.38158156  0.66313115  1
  H+  H178  1  0.63095317  0.14203402  0.33922391  1
  H+  H179  1  0.73073003  0.62915278  0.48946376  1
  H+  H180  1  0.36330045  0.73131257  0.01781002  1
  H+  H181  1  0.71959669  0.10507639  0.84048422  1
  H+  H182  1  0.37946536  0.61624675  0.17596251  1
  H+  H183  1  0.85208154  0.23382577  0.99784389  1
  H+  H184  1  0.52263387  0.64306949  0.51578721  1
  H+  H185  1  0.60683951  0.97088787  0.83419479  1
  H+  H186  1  0.87841748  0.78659039  0.49632234  1
  H+  H187  1  0.61378264  0.75702488  0.01241189  1
  H+  H188  1  0.87275688  0.88109516  0.50661870  1
  H+  H189  1  0.10149627  0.79196776  0.63330066  1
  H+  H190  1  0.10931383  0.63092869  0.15474993  1
  H+  H191  1  0.71137977  0.60736354  0.16982878  1
  H+  H192  1  0.63507126  0.76988581  0.65925689  1
  H+  H193  1  0.61366185  0.64845568  0.51886839  1
  H+  H194  1  0.04674528  0.38605018  0.67895335  1
  H+  H195  1  0.96474591  0.60218687  0.62692081  1
  H+  H196  1  0.72896348  0.60487097  0.98697541  1
  H+  H197  1  0.37836411  0.85787567  0.99735686  1
  H+  H198  1  1.01888342  0.17745101  0.66429075  1
  H+  H199  1  0.68518112  0.11517696  0.57066341  1
  H+  H200  1  0.09471135  0.70840620  0.34018422  1
  H+  H201  1  0.91249265  0.62710635  0.67286895  1
  H+  H202  1  0.85023339  0.47567015  0.47173788  1
  H+  H203  1  0.52397520  0.38748095  0.33139623  1
  H+  H204  1  0.61393894  0.72699743  0.17439112  1
  H+  H205  1  0.86844947  0.96297814  0.16191043  1
  H+  H206  1  -0.12769462  0.09122207  0.85810245  1
  H+  H207  1  0.62088258  0.13170587  0.15838260  1
  H+  H208  1  0.89683543  0.12076104  0.51838027  1
  H+  H209  1  0.83057710  0.53516930  0.30121102  1
  H+  H210  1  0.15495870  0.57979579  0.23269010  1
  H+  H211  1  0.98107385  0.87122904  0.34218637  1
  H+  H212  1  0.64324419  1.04880467  0.66350239  1
  H+  H213  1  0.61221732  0.23075955  0.49071771  1
  H+  H214  1  0.77505190  0.86353804  1.02274718  1
  H+  H215  1  0.87878415  0.34170493  0.17168331  1
  H+  H216  1  0.51320595  0.61956329  0.31499097  1
  H+  H217  1  0.72741832  0.86673454  0.33056809  1
  H+  H218  1  0.63537817  0.54250215  0.49073554  1
  H+  H219  1  0.48522325  0.36807816  0.64549677  1
  H+  H220  1  0.51615596  0.37974458  1.00913128  1
  H+  H221  1  0.13563229  0.88149663  0.99856812  1
  H+  H222  1  0.63399649  0.61516187  0.31689110  1
  H+  H223  1  0.91196336  0.27255722  0.68151941  1
  H+  H224  1  0.38750791  0.02154579  0.17326158  1
  H+  H225  1  0.48738712  0.61005541  0.65553498  1
  H+  H226  1  0.89655902  0.86689816  0.17974554  1
  H+  H227  1  -0.03507533  0.60793266  0.02214815  1
  H+  H228  1  0.98572484  0.10514751  0.17891270  1
  H+  H229  1  0.35981729  0.13080327  -0.00113148  1
  H+  H230  1  0.38954468  0.12124958  0.65319874  1
  H+  H231  1  0.61013697  0.46907811  0.83911501  1
  H+  H232  1  0.86559224  0.89656636  0.35022306  1
  H+  H233  1  0.11771508  0.24021845  0.67084451  1
  H+  H234  1  0.87576561  0.36638095  0.49427691  1
  H+  H235  1  0.92658052  0.07807156  0.23964982  1
  H+  H236  1  0.22893734  0.10845365  0.16796714  1
  H+  H237  1  0.77292500  0.90092703  0.50659943  1
  H+  H238  1  0.07256984  0.65746970  0.43320777  1
  H+  H239  1  0.23447325  0.85028447  0.67049732  1
  H+  H240  1  0.20366103  0.35609342  0.59199943  1
  H+  H241  1  0.38593130  0.10533862  0.49564906  1
  H+  H242  1  0.16176324  0.42434013  0.81654170  1
  H+  H243  1  0.16928528  0.59360115  0.92438749  1
  H+  H244  1  0.94312035  0.07106523  0.67590765  1
  H+  H245  1  0.77498089  0.12871157  0.34564644  1
  H+  H246  1  0.88012487  0.86322177  0.99984004  1
  H+  H247  1  0.27673191  0.62613642  0.66112398  1
  H+  H248  1  0.71587310  0.60702846  0.83310382  1
  H+  H249  1  0.52406485  0.62931316  0.81442948  1
  H+  H250  1  0.11929841  0.75153292  1.00120626  1
  H+  H251  1  0.85223158  0.46521553  1.02722464  1
  H+  H252  1  0.36931113  0.89050434  0.82246760  1
  H+  H253  1  0.38219951  0.35414620  0.32710880  1
  H+  H254  1  0.88806444  0.02606015  0.33366881  1
  H+  H255  1  0.85449762  0.95694017  0.82845010  1
  H+  H256  1  0.62881116  0.34974580  0.85865247  1
  H+  H257  1  0.14944278  0.61014696  0.67071494  1
  H+  H258  1  0.12848288  0.22679145  0.49724693  1
  H+  H259  1  0.11023832  0.38217157  0.16720194  1
  H+  H260  1  0.42403354  0.73471022  0.35243288  1
  H+  H261  1  0.83147981  0.06377213  0.99697108  1
  H+  H262  1  0.22430335  0.63487812  0.86437475  1
  H+  H263  1  0.63887150  0.01226609  0.16905179  1
  H+  H264  1  0.66696243  0.57242715  0.89819671  1
  H+  H265  1  0.60872575  0.13480312  0.00983009  1
  H+  H266  1  0.82575735  0.67698836  0.06246577  1
  H+  H267  1  0.35995989  0.73892661  0.17661510  1
  H+  H268  1  0.61020106  0.62663159  0.82643595  1
  H+  H269  1  0.27020932  0.64932344  0.17183260  1
  H+  H270  1  0.88893818  0.58109529  0.53866602  1
  H+  H271  1  0.13279297  0.26063074  0.33012957  1
  H+  H272  1  0.62838405  1.02108374  -0.00619945  1
  H+  H273  1  0.99927610  0.38876090  0.50125278  1
  H+  H274  1  0.85643182  0.20820691  0.83785655  1
  H+  H275  1  0.13953045  0.76763787  0.17657614  1
  H+  H276  1  0.86077103  0.63597797  0.01354407  1
  H+  H277  1  0.38101617  0.84328174  0.32699354  1
  H+  H278  1  0.50385446  0.38065878  0.16306997  1
  H+  H279  1  0.88573417  0.46462617  0.33479497  1
  H+  H280  1  0.26005883  0.57501971  0.79560633  1
  H+  H281  1  0.41358474  0.64316951  0.35200227  1
  H+  H282  1  0.73336530  0.85975209  0.17227886  1
  H+  H283  1  0.21537844  0.84342685  0.33329952  1
  H+  H284  1  0.35475011  0.95993528  0.33783458  1
  H+  H285  1  0.84534313  0.97552512  0.66781369  1
  H+  H286  1  0.36841969  0.88691683  0.16784973  1
  H+  H287  1  0.86636849  0.66196626  0.47671636  1
  H+  H288  1  0.41611551  0.33444134  0.58953310  1
  H+  H289  1  0.60173707  0.17752334  0.39588444  1
  H+  H290  1  0.32747665  0.90275429  0.39749173  1
  H+  H291  1  0.85815024  0.99252815  0.01672961  1
  H+  H292  1  0.64152763  0.81337227  0.94115877  1
  H+  H293  1  0.66842574  0.33481827  0.55831203  1
  H+  H294  1  0.07886374  0.93019781  0.72539061  1
  H+  H295  1  0.32984802  0.17082368  0.75622318  1
  H+  H296  1  0.77405891  0.72906550  0.78194239  1
  H+  H297  1  0.58176105  0.17884636  0.73581850  1
  H+  H298  1  0.46614728  0.35365035  0.84903897  1
  H+  H299  1  0.91279185  0.32747439  0.90172882  1
  H+  H300  1  0.33805795  0.16633346  0.39224624  1
  H+  H301  1  0.67627419  0.84141382  0.23259870  1
  H+  H302  1  0.68676566  0.60079047  0.58609478  1
  H+  H303  1  0.40720285  0.82496196  0.93836040  1
  H+  H304  1  0.12859191  0.11837751  0.83234473  1
  H+  H305  1  0.78757946  0.14756652  0.68442850  1
  H+  H306  1  0.16915905  0.09689655  0.92300126  1
  H+  H307  1  0.83249822  0.90974153  0.76390194  1
  H+  H308  1  0.56184461  0.74464573  0.42546153  1
  H+  H309  1  0.58192720  0.67677111  0.08544647  1
  H+  H310  1  0.32496068  0.64945648  0.75228586  1
  H+  H311  1  0.16090455  0.85084542  0.93637141  1
  H+  H312  1  0.66230770  0.32465842  0.94828810  1
  H+  H313  1  0.40225939  0.56836778  0.56531939  1
  H+  H314  1  0.82282123  0.39339348  0.11392635  1
  H+  H315  1  0.66929540  0.85359212  0.57513226  1
  H+  H316  1  0.39757487  0.03704153  0.65502306  1
  H+  H317  1  0.59349261  0.66020589  0.72734529  1
  H+  H318  1  0.16014500  0.84904657  0.58030050  1
  H+  H319  1  0.41687191  0.59524884  0.96538291  1
  H+  H320  1  0.83570027  0.69391350  0.41952498  1
  H+  H321  1  0.56686638  0.90395772  0.43517783  1
  H+  H322  1  0.40412846  0.81728622  0.56034678  1
  H+  H323  1  0.91746836  0.08252909  0.57894483  1
  H+  H324  1  0.81988874  0.17325207  0.05545869  1
  H+  H325  1  0.92077828  0.83567442  0.89704326  1
  H+  H326  1  0.08094925  0.66432047  0.79263528  1
  H+  H327  1  0.58174003  0.16079245  0.07392920  1
  H+  H328  1  0.41823360  0.08125563  0.55547820  1
  H+  H329  1  0.15955984  0.58516737  0.56885307  1
  H+  H330  1  0.41373315  0.33050961  0.23297978  1
  H+  H331  1  0.09565154  0.17244560  0.06855980  1
  H+  H332  1  0.12537250  0.43772033  0.72695914  1
  H+  H333  1  0.90823588  0.59064187  0.25877016  1
  H+  H334  1  0.09539363  0.41505718  0.41627661  1
  H+  H335  1  0.33530952  0.68157237  0.08289775  1
  H+  H336  1  0.32808877  0.90812863  0.10841908  1
  H+  H337  1  0.57287624  0.39090439  0.79145771  1
  H+  H338  1  0.90999035  0.84036337  0.56369249  1
  H+  H339  1  0.47170726  0.85399073  0.84623773  1
  H+  H340  1  0.40165855  0.08121198  0.88631387  1
  H+  H341  1  0.15587898  0.81780681  0.27486962  1
  H+  H342  1  0.83241521  0.15029192  0.77862188  1
  H+  H343  1  0.13741831  0.77364915  0.49713712  1
  H+  H344  1  0.52063872  0.88430878  0.16266906  1
  H+  H345  1  0.62237925  0.76027285  0.85223230  1
  H+  H346  1  0.15937739  0.32325968  0.23748358  1
  H+  H347  1  0.56824300  0.41005036  0.09783894  1
  H+  H348  1  0.66043372  0.57198591  0.23279643  1
  H+  H349  1  0.32533696  0.40827791  0.10644381  1
  H+  H350  1  0.67652668  0.07709776  0.26644173  1
  H+  H351  1  0.21532659  0.61425749  0.32663478  1
  H+  H352  1  0.45446078  0.03767938  0.94708353  1
  H+  H353  1  0.08508676  0.16016743  0.40219182  1
  H+  H354  1  0.27735133  0.13703781  0.65817237  1
  H+  H355  1  0.57756723  0.91136159  0.06895227  1
  H+  H356  1  0.35729563  0.47167669  0.01813319  1
  H+  H357  1  0.14071351  0.50067344  0.82790237  1
  H+  H358  1  0.27532302  0.13186020  0.48318445  1
  H+  H359  1  0.33494456  0.16541593  0.09699905  1
  H+  H360  1  0.65285940  0.13200312  0.50772484  1
  H+  H361  1  0.16506874  0.08483135  0.26687539  1
  H+  H362  1  0.60510183  0.44038250  0.70430535  1
  H+  H363  1  0.40487777  0.56554853  0.87008998  1
  H+  H364  1  0.34141279  0.40129598  0.73031319  1
  H+  H365  1  0.02506879  0.89249488  0.82171760  1
  H+  H366  1  0.83754344  0.67992470  0.72249895  1
  H+  H367  1  0.84230030  0.16862456  0.44273108  1
  H+  H368  1  0.07904160  0.41110070  0.07513480  1
  H+  H369  1  0.40588102  0.32904646  0.93622766  1
  H+  H370  1  0.86914331  0.36785365  0.33035393  1
  H+  H371  1  0.08654327  0.66860587  0.09583967  1
  H+  H372  1  0.52735828  0.15263924  0.67311854  1
  H+  H373  1  0.03261082  0.14465170  0.50494688  1
  H+  H374  1  0.18004480  0.08106895  0.58532769  1
  H+  H375  1  0.23169708  0.85975517  0.49699159  1
  H+  H376  1  0.71333321  0.11492386  0.98971986  1
  H+  H377  1  0.57246938  0.89955586  0.78037499  1
  H+  H378  1  0.83057493  0.92447075  0.40799029  1
  H+  H379  1  0.90638238  0.30883282  0.26373794  1
  H+  H380  1  0.38759563  0.26830855  0.32189399  1
  H+  H381  1  0.60936694  0.76115059  0.42852181  1
  H+  H382  1  0.65614238  0.07888604  0.89776514  1
  H+  H383  1  0.05790853  0.16325564  0.76860709  1
  O2-  O384  1  0.08805714  0.16410884  0.14269459  1
  O2-  O385  1  0.08975940  0.16724880  0.48431107  1
  O2-  O386  1  0.06534265  0.16103759  0.81319510  1
  O2-  O387  1  0.08117495  0.41350398  0.15142089  1
  O2-  O388  1  0.06817652  0.41916192  0.49588779  1
  O2-  O389  1  0.16666879  0.47883070  0.79858921  1
  O2-  O390  1  0.08058278  0.66352138  0.14019785  1
  O2-  O391  1  0.07368357  0.66388717  0.47854150  1
  O2-  O392  1  0.07091194  0.66580570  0.83691669  1
  O2-  O393  1  0.08854811  0.90374826  0.15086508  1
  O2-  O394  1  0.12285656  0.92497193  0.43344252  1
  O2-  O395  1  0.08419204  0.92429247  0.80351718  1
  O2-  O396  1  0.33414183  0.16427255  0.14207566  1
  O2-  O397  1  0.33747054  0.16308301  0.47134520  1
  O2-  O398  1  0.32747949  0.17052742  0.80176214  1
  O2-  O399  1  0.32731457  0.41093230  0.15181281  1
  O2-  O400  1  0.31260375  0.40063562  0.48740126  1
  O2-  O401  1  0.33526959  0.40213525  0.79448617  1
  O2-  O402  1  0.33175418  0.68086971  0.15865190  1
  O2-  O403  1  0.31876171  0.65144120  0.49066225  1
  O2-  O404  1  0.31422238  0.63286612  0.79649275  1
  O2-  O405  1  0.32877057  0.90999116  0.15349184  1
  O2-  O406  1  0.33203875  0.90573564  0.47570388  1
  O2-  O407  1  0.35684604  0.93060351  0.80019902  1
  O2-  O408  1  0.59247057  0.16300552  0.14279736  1
  O2-  O409  1  0.59020088  0.17089597  0.47407268  1
  O2-  O410  1  0.58044390  0.16693932  0.81404400  1
  O2-  O411  1  0.56668562  0.41247671  0.14495956  1
  O2-  O412  1  0.54376707  0.45406663  0.45923740  1
  O2-  O413  1  0.57558191  0.40333154  0.83466150  1
  O2-  O414  1  0.57698220  0.66594069  0.15977184  1
  O2-  O415  1  0.58194596  0.67843266  0.52998471  1
  O2-  O416  1  0.58713471  0.66171049  0.80764064  1
  O2-  O417  1  0.58062920  0.90868551  0.14232391  1
  O2-  O418  1  0.55671271  0.89605922  0.47975609  1
  O2-  O419  1  0.57491657  0.90743100  0.82534136  1
  O2-  O420  1  0.83867804  0.12227125  0.12645720  1
  O2-  O421  1  0.84700089  0.17458361  0.48783933  1
  O2-  O422  1  0.82409768  0.14684917  0.82399877  1
  O2-  O423  1  0.82848483  0.39109681  0.15878431  1
  O2-  O424  1  0.82107151  0.41346429  0.46403592  1
  O2-  O425  1  0.81162612  0.42501464  0.81197281  1
  O2-  O426  1  0.80298720  0.69886000  0.13779693  1
  O2-  O427  1  0.83667640  0.69438628  0.46566087  1
  O2-  O428  1  0.80346729  0.69759311  0.79276870  1
  O2-  O429  1  0.83820143  0.90211854  0.14840799  1
  O2-  O430  1  0.83426857  0.92875259  0.49072111  1
  O2-  O431  1  0.83575327  0.90109933  0.80828916  1
  O2-  O432  1  0.16790672  0.07954556  0.18214423  1
  O2-  O433  1  0.16913368  0.07388841  0.50286572  1
  O2-  O434  1  0.16212024  0.09102425  0.84742176  1
  O2-  O435  1  0.15885846  0.32507137  0.19170578  1
  O2-  O436  1  0.22086476  0.35403096  0.51031446  1
  O2-  O437  1  0.16377406  0.33972606  0.83627844  1
  O2-  O438  1  0.15938607  0.58198062  0.18744448  1
  O2-  O439  1  0.15830691  0.58431292  0.52318816  1
  O2-  O440  1  0.16548056  0.60028437  0.87927715  1
  O2-  O441  1  0.16807488  0.82528984  0.19593299  1
  O2-  O442  1  0.16911384  0.83578193  0.50835723  1
  O2-  O443  1  0.15312980  0.83919280  0.86704590  1
  O2-  O444  1  0.42183024  0.08249148  0.18686513  1
  O2-  O445  1  0.41508410  0.07385781  0.51082083  1
  O2-  O446  1  0.40765295  0.08460764  0.84188194  1
  O2-  O447  1  0.41517681  0.33303886  0.18672493  1
  O2-  O448  1  0.40212054  0.32777553  0.51961572  1
  O2-  O449  1  0.40311341  0.32472441  0.85665948  1
  O2-  O450  1  0.40466899  0.57919916  0.18471424  1
  O2-  O451  1  0.39286339  0.56643871  0.52064568  1
  O2-  O452  1  0.41170309  0.56979189  0.82616248  1
  O2-  O453  1  0.43675809  0.86666998  0.19602599  1
  O2-  O454  1  0.40211485  0.81008777  0.51532302  1
  O2-  O455  1  0.40934512  0.82316949  0.85912400  1
  O2-  O456  1  0.67471021  0.07317935  0.18331624  1
  O2-  O457  1  0.68875816  0.11026904  0.52638743  1
  O2-  O458  1  0.65683534  0.07728206  0.85229143  1
  O2-  O459  1  0.60298991  0.27243533  0.25582836  1
  O2-  O460  1  0.65800247  0.33100929  0.51419036  1
  O2-  O461  1  0.66366218  0.32227053  0.86832916  1
  O2-  O462  1  0.65330416  0.56850175  0.18684108  1
  O2-  O463  1  0.67481309  0.59787652  0.51137983  1
  O2-  O464  1  0.65868702  0.56915785  0.85160908  1
  O2-  O465  1  0.67246431  0.83246694  0.18749119  1
  O2-  O466  1  0.67303250  0.85135145  0.52989815  1
  O2-  O467  1  0.63965032  0.81280023  0.87660917  1
  O2-  O468  1  0.92571743  0.07176642  0.19428121  1
  O2-  O469  1  0.92572947  0.08839097  0.53265250  1
  O2-  O470  1  0.90466207  0.06213125  0.87108312  1
  O2-  O471  1  0.91435185  0.31321256  0.18205926  1
  O2-  O472  1  0.91050727  0.34352586  0.51336172  1
  O2-  O473  1  0.91124262  0.31516106  0.85744910  1
  O2-  O474  1  0.91588876  0.57658566  0.18043423  1
  O2-  O475  1  0.90470642  0.59334305  0.49605098  1
  O2-  O476  1  0.93602827  0.54039872  0.89749530  1
  O2-  O477  1  0.92461890  0.83533314  0.19883612  1
  O2-  O478  1  0.90516870  0.84538307  0.51733754  1
  O2-  O479  1  0.92386771  0.83344505  0.85169334  1
  O2-  O480  1  0.16496915  0.08648363  0.31171386  1
  O2-  O481  1  0.18585306  0.09254294  0.62954543  1
  O2-  O482  1  0.17147361  0.09589483  0.96899524  1
  O2-  O483  1  0.16519445  0.32100560  0.31407451  1
  O2-  O484  1  0.19899228  0.35223520  0.63713332  1
  O2-  O485  1  0.16197778  0.33008846  0.99235052  1
  O2-  O486  1  0.15631650  0.57677993  0.31321960  1
  O2-  O487  1  0.17315885  0.58189867  0.64406967  1
  O2-  O488  1  0.16919063  0.58674566  1.00005303  1
  O2-  O489  1  0.15357115  0.81253543  0.32010906  1
  O2-  O490  1  0.15035667  0.84896472  0.62585819  1
  O2-  O491  1  0.16514967  0.85146570  0.98338464  1
  O2-  O492  1  0.42260057  0.08110848  0.31269801  1
  O2-  O493  1  0.42564373  0.09529898  0.63890707  1
  O2-  O494  1  0.43338591  0.06797271  0.97230713  1
  O2-  O495  1  0.41507943  0.32959847  0.30701030  1
  O2-  O496  1  0.42246663  0.33739595  0.63620844  1
  O2-  O497  1  0.41030400  0.33116711  0.98150598  1
  O2-  O498  1  0.41062334  0.55573243  0.30597629  1
  O2-  O499  1  0.42494914  0.57913901  0.64351037  1
  O2-  O500  1  0.40773212  0.58353338  1.00865339  1
  O2-  O501  1  0.41795491  0.82095521  0.31173682  1
  O2-  O502  1  0.39432085  0.81991458  0.63933069  1
  O2-  O503  1  0.41024510  0.82826103  0.98369986  1
  O2-  O504  1  0.67628858  0.07972640  0.31153264  1
  O2-  O505  1  0.67820197  0.10992022  0.65502841  1
  O2-  O506  1  0.65135595  0.07945481  0.97620989  1
  O2-  O507  1  0.73930478  0.44734201  0.28778362  1
  O2-  O508  1  0.67810205  0.34343803  0.64238293  1
  O2-  O509  1  0.65939885  0.32770274  0.99336067  1
  O2-  O510  1  0.66671827  0.58533409  0.30570159  1
  O2-  O511  1  0.68880249  0.59669216  0.63168772  1
  O2-  O512  1  0.67147024  0.57028574  0.96778754  1
  O2-  O513  1  0.67055776  0.84119815  0.30953403  1
  O2-  O514  1  0.65664123  0.83210392  0.65213291  1
  O2-  O515  1  0.64526569  0.81914730  0.98955774  1
  O2-  O516  1  0.91997040  0.08506700  0.31619547  1
  O2-  O517  1  0.89623665  0.06654118  0.65092804  1
  O2-  O518  1  0.87984397  0.05595905  1.00732539  1
  O2-  O519  1  0.90789761  0.31614546  0.30833675  1
  O2-  O520  1  0.94866587  0.33389851  0.66925100  1
  O2-  O521  1  0.91572210  0.33806348  0.98014621  1
  O2-  O522  1  0.89237797  0.58485009  0.30261362  1
  O2-  O523  1  0.94979425  0.59989934  0.66968634  1
  O2-  O524  1  0.90611445  0.57323722  1.00656407  1
  O2-  O525  1  0.92568269  0.85368261  0.32163176  1
  O2-  O526  1  0.91518949  0.83821659  0.63407182  1
  O2-  O527  1  0.91639586  0.83897166  0.97643763  1
  O2-  O528  1  0.09963771  0.18131008  0.02282193  1
  O2-  O529  1  0.08189833  0.15935673  0.35721049  1
  O2-  O530  1  0.06892590  0.18929983  0.68902509  1
  O2-  O531  1  0.08079363  0.41233782  0.02930445  1
  O2-  O532  1  0.12110281  0.42007993  0.37578820  1
  O2-  O533  1  0.11259473  0.42338818  0.68297216  1
  O2-  O534  1  0.09002639  0.68632429  0.00704296  1
  O2-  O535  1  0.06284078  0.64726141  0.35531577  1
  O2-  O536  1  0.11876033  0.66940925  0.71635041  1
  O2-  O537  1  0.06803409  0.93227725  0.01920376  1
  O2-  O538  1  0.06133763  0.86237354  0.38985957  1
  O2-  O539  1  0.07471289  0.93291815  0.67995298  1
  O2-  O540  1  0.33189458  0.16157297  0.01472416  1
  O2-  O541  1  0.33771304  0.16694234  0.34684578  1
  O2-  O542  1  0.33747514  0.16726308  0.67780099  1
  O2-  O543  1  0.32559393  0.40936260  0.02812722  1
  O2-  O544  1  0.32463747  0.39842046  0.36074183  1
  O2-  O545  1  0.34447734  0.40617338  0.68176523  1
  O2-  O546  1  0.33370623  0.67289397  0.03756097  1
  O2-  O547  1  0.43209425  0.69415718  0.37773354  1
  O2-  O548  1  0.33774428  0.65921820  0.67656768  1
  O2-  O549  1  0.32766841  0.90993836  0.02640258  1
  O2-  O550  1  0.32260056  0.89954386  0.35214167  1
  O2-  O551  1  0.26213940  0.82833387  0.69865847  1
  O2-  O552  1  0.57777477  0.16353485  0.02707354  1
  O2-  O553  1  0.59877253  0.17152507  0.35067182  1
  O2-  O554  1  0.58655688  0.18418090  0.69048689  1
  O2-  O555  1  0.57438791  0.40799156  0.02830700  1
  O2-  O556  1  0.58103772  0.42230403  0.35141169  1
  O2-  O557  1  0.59600629  0.42518813  0.66148129  1
  O2-  O558  1  0.57748512  0.67772491  0.03979222  1
  O2-  O559  1  0.57435402  0.66015622  0.32891313  1
  O2-  O560  1  0.59009816  0.66093087  0.68209344  1
  O2-  O561  1  0.57825213  0.91171110  0.02264451  1
  O2-  O562  1  0.58041239  0.91759405  0.35509152  1
  O2-  O563  1  0.54144244  0.85352520  0.70809024  1
  O2-  O564  1  0.81162889  0.17352155  0.01152193  1
  O2-  O565  1  0.83429739  0.16144357  0.36306990  1
  O2-  O566  1  0.84464027  0.16439937  0.70165725  1
  O2-  O567  1  0.82476123  0.40243757  0.03512584  1
  O2-  O568  1  0.84453653  0.40567942  0.34635019  1
  O2-  O569  1  0.84343318  0.41505234  0.68751836  1
  O2-  O570  1  0.83162390  0.67065330  0.01826571  1
  O2-  O571  1  0.83156251  0.68535084  0.34580861  1
  O2-  O572  1  0.85000562  0.67309602  0.67912168  1
  O2-  O573  1  0.83527560  0.89689565  0.03462796  1
  O2-  O574  1  0.82964739  0.92196168  0.36287043  1
  O2-  O575  1  0.81671308  0.91127571  0.68447428  1
