# generated using pymatgen
data_H2O
_symmetry_space_group_name_H-M   'P 1'
_cell_length_a   17.99811844
_cell_length_b   17.98698595
_cell_length_c   21.99891918
_cell_angle_alpha   89.96983164
_cell_angle_beta   90.00770959
_cell_angle_gamma   120.00372692
_symmetry_Int_Tables_number   1
_chemical_formula_structural   H2O
_chemical_formula_sum   'H384 O192'
_cell_volume   6167.38557555
_cell_formula_units_Z   192
loop_
 _symmetry_equiv_pos_site_id
 _symmetry_equiv_pos_as_xyz
  1  'x, y, z'
loop_
 _atom_type_symbol
 _atom_type_oxidation_number
  H+  1.0
  O2-  -2.0
loop_
 _atom_site_type_symbol
 _atom_site_label
 _atom_site_symmetry_multiplicity
 _atom_site_fract_x
 _atom_site_fract_y
 _atom_site_fract_z
 _atom_site_occupancy
  H+  H0  1  0.12221516  0.38027314  0.67307814  1
  H+  H1  1  0.10980025  0.72678642  0.49605573  1
  H+  H2  1  0.52596574  0.14508169  0.83661352  1
  H+  H3  1  0.09557293  0.17314089  0.76546718  1
  H+  H4  1  0.09159595  0.59702609  0.52805043  1
  H+  H5  1  0.60727933  0.64480513  0.15908796  1
  H+  H6  1  0.65319272  0.33066769  0.41698261  1
  H+  H7  1  1.01776738  0.87926517  0.67762405  1
  H+  H8  1  0.13565439  0.50066460  0.33254482  1
  H+  H9  1  0.14886552  0.52027356  0.17424431  1
  H+  H10  1  0.86633162  0.13957773  0.33527181  1
  H+  H11  1  0.39056718  0.52912040  0.50286911  1
  H+  H12  1  0.87301391  0.46871222  0.85611618  1
  H+  H13  1  0.72639187  0.86988331  0.17282229  1
  H+  H14  1  0.71292739  0.60455255  0.99302898  1
  H+  H15  1  0.71134601  0.10902133  0.99530291  1
  H+  H16  1  0.59117468  0.36659679  0.67039257  1
  H+  H17  1  0.22754927  0.36279945  0.31773091  1
  H+  H18  1  1.05277333  0.64009074  0.99921564  1
  H+  H19  1  0.95471904  0.62580031  0.17973494  1
  H+  H20  1  0.27533764  0.39477775  0.15558246  1
  H+  H21  1  0.48803168  0.87244262  0.66625698  1
  H+  H22  1  0.78706127  0.37794886  0.33549590  1
  H+  H23  1  0.66554537  0.28330846  1.00430723  1
  H+  H24  1  0.37286157  0.51241233  0.82203626  1
  H+  H25  1  0.29969545  0.16268431  0.30407684  1
  H+  H26  1  0.26771020  0.63861898  0.83495443  1
  H+  H27  1  0.63219138  0.61938838  0.99130568  1
  H+  H28  1  0.74848018  0.14141797  0.83795034  1
  H+  H29  1  0.64262276  0.85627946  0.66614632  1
  H+  H30  1  0.87829311  0.38411385  0.33852524  1
  H+  H31  1  0.07724006  0.88882310  0.10188550  1
  H+  H32  1  0.59246033  0.66832233  0.73968182  1
  H+  H33  1  0.11111572  0.23787452  0.15374106  1
  H+  H34  1  0.85313287  0.63554103  0.48060404  1
  H+  H35  1  0.12840997  0.85591568  0.66293437  1
  H+  H36  1  0.88632443  0.11659593  0.65563383  1
  H+  H37  1  0.24335916  0.87048054  0.99376244  1
  H+  H38  1  0.63142852  0.62617144  0.83116151  1
  H+  H39  1  0.99401355  0.36221009  0.65923407  1
  H+  H40  1  0.09674860  0.13095033  0.33018556  1
  H+  H41  1  0.27596510  0.88674587  0.33792034  1
  H+  H42  1  0.12391481  0.13805576  0.82302686  1
  H+  H43  1  0.87968783  1.04314524  0.16125860  1
  H+  H44  1  0.46610706  0.09780879  0.66973408  1
  H+  H45  1  0.13689857  0.36139794  0.31439791  1
  H+  H46  1  0.11331315  0.22768715  0.32848245  1
  H+  H47  1  0.86436067  0.27229233  1.06219855  1
  H+  H48  1  0.41768350  0.07374148  0.13354728  1
  H+  H49  1  0.39386245  1.03533551  0.00018122  1
  H+  H50  1  0.87012934  0.25876405  0.15702677  1
  H+  H51  1  0.39258362  0.29392179  0.52722776  1
  H+  H52  1  0.12827299  0.76724539  0.66036176  1
  H+  H53  1  0.10317144  -0.01046263  0.31554202  1
  H+  H54  1  0.38376115  0.85539264  0.31709639  1
  H+  H55  1  0.28451299  0.63576493  0.05489227  1
  H+  H56  1  0.14766053  0.66107697  0.67048517  1
  H+  H57  1  0.09581021  0.92692944  0.16954108  1
  H+  H58  1  0.86020875  0.11203953  0.99274947  1
  H+  H59  1  0.85161252  0.47779177  0.17472147  1
  H+  H60  1  0.03460895  0.62971430  0.34772267  1
  H+  H61  1  0.75493671  0.65514048  0.82293272  1
  H+  H62  1  0.86198258  0.22552259  0.49400385  1
  H+  H63  1  0.64911005  0.36432190  0.17621778  1
  H+  H64  1  0.12514920  0.14046129  0.00591349  1
  H+  H65  1  0.63823096  0.28357155  0.84783731  1
  H+  H66  1  1.00290550  0.37560572  1.02191440  1
  H+  H67  1  0.88617519  0.77610076  0.65705241  1
  H+  H68  1  0.42860829  0.58769052  0.56286294  1
  H+  H69  1  0.15788612  0.77691507  -0.00813665  1
  H+  H70  1  0.63226445  0.25075837  0.16707467  1
  H+  H71  1  0.10894379  0.13445197  0.67369636  1
  H+  H72  1  0.71911434  0.86580983  -0.01577012  1
  H+  H73  1  0.14124247  0.52564112  0.84143967  1
  H+  H74  1  0.04261581  0.59901533  0.13714690  1
  H+  H75  1  0.77421045  0.14133711  0.67378920  1
  H+  H76  1  0.85392108  0.87251489  0.34503089  1
  H+  H77  1  0.28046139  0.42475061  0.81356275  1
  H+  H78  1  0.64363348  0.37469604  0.85088186  1
  H+  H79  1  0.38854518  0.53041057  0.16740159  1
  H+  H80  1  0.63413899  0.78327071  0.17282916  1
  H+  H81  1  0.59648297  0.95856789  0.79847138  1
  H+  H82  1  0.37178186  0.64593965  0.49593249  1
  H+  H83  1  0.02659681  0.88787623  0.48109556  1
  H+  H84  1  0.63414322  0.90995761  0.16004447  1
  H+  H85  1  0.76038627  0.63738006  0.33553375  1
  H+  H86  1  0.22288925  0.86486187  0.50418890  1
  H+  H87  1  0.89220395  0.64631032  0.33201844  1
  H+  H88  1  0.24202316  0.12756877  1.00057874  1
  H+  H89  1  0.84283284  0.72525947  0.16312414  1
  H+  H90  1  0.86840552  0.98117764  0.66936487  1
  H+  H91  1  0.52855047  0.39584677  0.15850118  1
  H+  H92  1  0.86100343  0.13577287  0.82760976  1
  H+  H93  1  0.61033652  0.73069571  1.00248226  1
  H+  H94  1  0.13752235  0.74487612  0.17039766  1
  H+  H95  1  0.52591888  0.88680220  0.01849311  1
  H+  H96  1  0.39394079  0.03087960  0.84398567  1
  H+  H97  1  0.36811053  0.13679354  0.84644780  1
  H+  H98  1  0.60800574  0.73252950  0.33971731  1
  H+  H99  1  0.38624687  0.52708617  0.98706850  1
  H+  H100  1  0.33876775  0.43514960  0.72453471  1
  H+  H101  1  0.52660396  0.64165651  0.49140920  1
  H+  H102  1  0.37161754  0.89295749  0.01339719  1
  H+  H103  1  0.34657222  0.75355710  0.52358230  1
  H+  H104  1  0.34954103  0.38474218  0.00255195  1
  H+  H105  1  0.26586988  0.86738963  0.16462775  1
  H+  H106  1  0.13789533  0.36713008  0.17086328  1
  H+  H107  1  0.49050207  0.10455767  0.31453443  1
  H+  H108  1  0.12886529  0.27052066  0.99512833  1
  H+  H109  1  0.99416039  0.36034380  0.32674259  1
  H+  H110  1  0.66867280  0.05740223  0.86556936  1
  H+  H111  1  0.85181078  0.00203208  0.84309551  1
  H+  H112  1  0.34991498  0.12096565  0.66913524  1
  H+  H113  1  0.89763505  0.77112387  0.84749748  1
  H+  H114  1  0.14075177  0.75875368  0.33054771  1
  H+  H115  1  0.61528868  0.64098889  0.49182062  1
  H+  H116  1  0.21194817  0.10269924  0.66038299  1
  H+  H117  1  0.11817664  0.61821729  0.34521023  1
  H+  H118  1  0.78923157  0.41487467  0.62411355  1
  H+  H119  1  0.39201263  0.78054523  1.02132210  1
  H+  H120  1  0.03398216  0.87940309  0.84495710  1
  H+  H121  1  0.51366616  0.16818873  0.52930733  1
  H+  H122  1  0.15028733  0.26507117  0.83788158  1
  H+  H123  1  0.84249664  0.63635616  0.17078610  1
  H+  H124  1  0.85819267  0.72772534  0.49070311  1
  H+  H125  1  0.77242872  0.88658746  0.49398217  1
  H+  H126  1  0.72188599  0.60334922  0.65778606  1
  H+  H127  1  0.28205778  0.89936883  0.83030561  1
  H+  H128  1  0.14426952  0.27243724  0.65520686  1
  H+  H129  1  0.35264196  0.48666611  0.33711888  1
  H+  H130  1  0.52838359  0.40049519  0.82768719  1
  H+  H131  1  0.89891597  0.81379968  1.02889481  1
  H+  H132  1  0.40009636  0.61211331  0.65916386  1
  H+  H133  1  0.16218934  0.83391501  0.56321805  1
  H+  H134  1  0.89608523  0.28454144  0.66052045  1
  H+  H135  1  0.62242685  0.88944319  0.49548704  1
  H+  H136  1  0.38804353  0.61899115  0.16374468  1
  H+  H137  1  0.60433549  0.12287450  0.68359438  1
  H+  H138  1  0.38019825  0.34967023  0.69318490  1
  H+  H139  1  0.47628858  0.61391138  -0.01055337  1
  H+  H140  1  0.50806763  0.38903213  0.00816400  1
  H+  H141  1  0.09739519  1.05122899  0.57580669  1
  H+  H142  1  0.09770606  0.86605551  0.32961064  1
  H+  H143  1  0.89852434  0.27477491  0.32626673  1
  H+  H144  1  0.13043416  0.36755034  0.50504239  1
  H+  H145  1  0.47974453  0.85077158  0.85611520  1
  H+  H146  1  0.12742947  0.98281460  0.84235575  1
  H+  H147  1  0.58870903  0.41452965  0.73268252  1
  H+  H148  1  0.39132284  0.37751708  0.50431671  1
  H+  H149  1  0.42363825  0.08390867  0.25982661  1
  H+  H150  1  0.33203881  0.42585494  0.09501427  1
  H+  H151  1  0.64115288  0.12506019  0.16323030  1
  H+  H152  1  0.61919512  0.15297484  0.83378507  1
  H+  H153  1  0.60982192  0.15486651  0.01614750  1
  H+  H154  1  0.35306965  0.14867939  0.53227476  1
  H+  H155  1  0.27973049  0.64049259  0.66455348  1
  H+  H156  1  0.59512639  0.47716026  0.00255106  1
  H+  H157  1  0.84892269  0.19391236  -0.00570358  1
  H+  H158  1  0.10869761  0.87696409  0.48003372  1
  H+  H159  1  0.12946789  0.88309525  0.84059659  1
  H+  H160  1  0.26114904  0.71590485  0.59662992  1
  H+  H161  1  0.76576845  0.87920355  0.82119304  1
  H+  H162  1  0.88707317  0.60631147  0.84401467  1
  H+  H163  1  0.76381170  0.87987525  0.34235596  1
  H+  H164  1  0.63266594  0.85040695  0.82957075  1
  H+  H165  1  0.33480540  0.92705709  0.76941073  1
  H+  H166  1  0.61718294  0.48848234  0.82695226  1
  H+  H167  1  0.16791447  0.07615231  0.90524725  1
  H+  H168  1  0.62251180  0.52325133  0.16960644  1
  H+  H169  1  0.87765630  0.52117118  0.48221245  1
  H+  H170  1  0.38442844  0.84893907  0.17025630  1
  H+  H171  1  0.64486747  0.76793621  0.66731308  1
  H+  H172  1  -0.00825240  0.10629733  -0.00736159  1
  H+  H173  1  0.73475107  0.13736821  0.15367677  1
  H+  H174  1  0.49310745  0.61960910  0.66108756  1
  H+  H175  1  0.35670967  0.22015992  0.84750675  1
  H+  H176  1  0.92653426  0.63272119  0.99220624  1
  H+  H177  1  0.61097223  0.48673863  0.48773348  1
  H+  H178  1  0.94076861  0.43455700  0.67037911  1
  H+  H179  1  0.84048648  0.17460540  0.72894655  1
  H+  H180  1  0.09799509  0.51215780  0.53260846  1
  H+  H181  1  1.00706781  0.38355494  0.49689850  1
  H+  H182  1  0.26347184  0.39070415  1.00545563  1
  H+  H183  1  0.87727411  0.10942280  0.50204902  1
  H+  H184  1  0.63188576  0.51351474  0.65898732  1
  H+  H185  1  0.65018864  0.88112321  0.32404264  1
  H+  H186  1  0.33474989  0.18451133  0.08765684  1
  H+  H187  1  0.66335681  0.59308921  0.89223415  1
  H+  H188  1  0.95749683  0.84628360  0.17605810  1
  H+  H189  1  0.29236291  0.19713192  0.31738165  1
  H+  H190  1  0.52671724  0.32223755  0.35555302  1
  H+  H191  1  0.77480552  0.36794171  0.62594605  1
  H+  H192  1  0.88067615  0.23348284  0.82923337  1
  H+  H193  1  0.23220713  0.10340113  0.84856457  1
  H+  H194  1  0.02577971  0.39704184  0.16773532  1
  H+  H195  1  0.40542532  0.33033445  0.78798034  1
  H+  H196  1  0.63505934  0.62219980  0.32491541  1
  H+  H197  1  1.03742363  0.86929347  1.01215875  1
  H+  H198  1  0.16924050  0.61127591  1.00369187  1
  H+  H199  1  0.64163850  0.77240443  0.50844627  1
  H+  H200  1  0.15117764  0.03255106  1.00023039  1
  H+  H201  1  0.89028892  0.38171826  0.18000184  1
  H+  H202  1  0.13659058  0.62259470  0.15667631  1
  H+  H203  1  0.37050974  0.73833594  0.15772962  1
  H+  H204  1  0.35867533  0.15224150  0.00945780  1
  H+  H205  1  0.37573571  0.47830527  0.66118003  1
  H+  H206  1  0.37649370  0.76375152  0.32167845  1
  H+  H207  1  0.46736723  0.34803034  0.69798622  1
  H+  H208  1  0.26879478  0.62980016  0.34616793  1
  H+  H209  1  0.92367467  0.55836875  0.64815133  1
  H+  H210  1  0.10715549  0.14792608  0.15761291  1
  H+  H211  1  0.77177039  0.38443861  0.47649286  1
  H+  H212  1  0.50212976  0.41254771  0.31534904  1
  H+  H213  1  0.89315292  0.86881626  0.65914369  1
  H+  H214  1  0.28692336  0.16655457  0.15540583  1
  H+  H215  1  0.53605368  0.64614579  0.82141568  1
  H+  H216  1  0.86020710  -0.01973564  0.48846421  1
  H+  H217  1  0.60420502  0.93144321  0.09074220  1
  H+  H218  1  0.37847488  0.02641392  0.51158486  1
  H+  H219  1  0.61579487  0.12015254  0.33298830  1
  H+  H220  1  0.58633260  0.90594066  0.62692122  1
  H+  H221  1  0.12270024  1.01561459  0.66877925  1
  H+  H222  1  0.23422400  0.36217408  0.65229257  1
  H+  H223  1  -0.03023338  0.12939984  0.15921832  1
  H+  H224  1  1.02506310  0.14316982  0.67200107  1
  H+  H225  1  1.03067884  0.64579920  0.82581570  1
  H+  H226  1  0.76325033  0.38275326  0.16781006  1
  H+  H227  1  0.90048230  0.53828210  0.99999028  1
  H+  H228  1  0.38929319  0.76823272  0.85860244  1
  H+  H229  1  0.62333040  0.21226232  0.32463008  1
  H+  H230  1  -0.02744429  0.12536737  0.31383878  1
  H+  H231  1  0.42167416  0.59270102  0.89890584  1
  H+  H232  1  0.72401461  0.61870092  0.50555760  1
  H+  H233  1  0.86677342  0.76402281  0.32963602  1
  H+  H234  1  0.64804303  0.35063163  0.31991405  1
  H+  H235  1  0.61216326  0.88321772  0.00640162  1
  H+  H236  1  0.53724923  0.16090028  0.16864890  1
  H+  H237  1  0.85870835  0.89405474  0.16107411  1
  H+  H238  1  0.70815716  0.61388483  0.17167070  1
  H+  H239  1  0.09055933  0.37342458  0.01046972  1
  H+  H240  1  0.16073302  0.05943742  0.15392194  1
  H+  H241  1  0.35781076  0.88052737  0.67873097  1
  H+  H242  1  0.34106117  0.87619121  0.50175049  1
  H+  H243  1  0.63728303  1.02145617  0.66696641  1
  H+  H244  1  0.87876863  0.35902387  0.50642837  1
  H+  H245  1  0.98424506  0.65201360  0.62733691  1
  H+  H246  1  0.39284758  0.37853204  0.16419748  1
  H+  H247  1  0.10264408  0.22979947  0.48670592  1
  H+  H248  1  0.13925117  0.77646402  0.84200328  1
  H+  H249  1  0.39523378  0.29071293  0.16617125  1
  H+  H250  1  0.86544439  0.64392383  0.66657697  1
  H+  H251  1  0.78145815  0.88906564  0.67185714  1
  H+  H252  1  0.17393073  0.83566608  0.90398454  1
  H+  H253  1  0.26535226  0.87595777  0.67441290  1
  H+  H254  1  0.12429138  0.82613349  0.17111366  1
  H+  H255  1  0.89980249  0.36009588  0.86572500  1
  H+  H256  1  0.36713337  0.26684168  -0.00470877  1
  H+  H257  1  0.57362299  0.15457362  0.74286357  1
  H+  H258  1  0.12899337  0.38839699  0.83397945  1
  H+  H259  1  0.78241882  0.38255125  0.86154985  1
  H+  H260  1  0.42250159  0.20882672  0.40184974  1
  H+  H261  1  0.27016961  0.39526489  0.48827938  1
  H+  H262  1  0.61733723  0.63379290  0.67715211  1
  H+  H263  1  0.52057148  0.39756787  0.48980590  1
  H+  H264  1  0.89295686  0.86808387  0.50421833  1
  H+  H265  1  0.43397583  0.17259181  0.33940747  1
  H+  H266  1  0.44332727  0.38807069  0.25683366  1
  H+  H267  1  0.77333190  0.42052012  0.01833318  1
  H+  H268  1  0.07140091  0.07976602  0.51654072  1
  H+  H269  1  0.17990559  0.61939922  0.59520664  1
  H+  H270  1  0.64244799  1.02142425  0.51933631  1
  H+  H271  1  0.91672236  0.47406494  0.72594479  1
  H+  H272  1  0.31673731  0.17560923  0.58628041  1
  H+  H273  1  0.37343189  0.41322331  0.33297316  1
  H+  H274  1  0.38255822  0.13098688  0.16085865  1
  H+  H275  1  0.03845298  0.38296946  0.83677637  1
  H+  H276  1  0.47273973  0.61968130  0.32357258  1
  H+  H277  1  0.36599856  0.97458381  0.33509036  1
  H+  H278  1  0.84390587  0.88078821  -0.00510665  1
  H+  H279  1  0.64214684  1.01153362  0.15151520  1
  H+  H280  1  0.63326731  0.37721380  0.46936813  1
  H+  H281  1  0.88562000  0.72608190  1.00744532  1
  H+  H282  1  0.59858242  0.24798059  0.66928711  1
  H+  H283  1  0.80704306  0.56432558  0.03534949  1
  H+  H284  1  0.39687059  0.78387312  0.67844171  1
  H+  H285  1  0.37582028  1.00968606  0.66751442  1
  H+  H286  1  0.39090564  0.62972094  0.84311468  1
  H+  H287  1  0.38677802  0.38940824  0.82810290  1
  H+  H288  1  0.10338933  0.38998944  0.38557673  1
  H+  H289  1  0.08754446  0.16992165  0.06273610  1
  H+  H290  1  0.05028275  0.59626191  0.68792334  1
  H+  H291  1  0.57990552  0.67231168  0.39837471  1
  H+  H292  1  0.16900239  0.56928554  0.27602836  1
  H+  H293  1  0.91282063  0.10503972  0.25513763  1
  H+  H294  1  0.66980282  0.08511805  0.61045246  1
  H+  H295  1  0.77942057  0.41412006  0.75018203  1
  H+  H296  1  0.77498663  0.37019265  0.74941665  1
  H+  H297  1  0.32775595  0.66860043  0.77564019  1
  H+  H298  1  0.91572369  0.33441465  0.56656830  1
  H+  H299  1  0.07006469  0.89648110  0.39085970  1
  H+  H300  1  0.42392354  0.08728264  0.90671328  1
  H+  H301  1  0.96009505  0.85073778  0.32627525  1
  H+  H302  1  0.67420571  0.82941117  0.56973944  1
  H+  H303  1  0.07281507  0.17079918  0.42697977  1
  H+  H304  1  0.17044319  0.33326362  0.22666136  1
  H+  H305  1  0.32988122  0.42545591  0.42912702  1
  H+  H306  1  0.81747095  0.66776424  0.39919429  1
  H+  H307  1  0.91457989  0.08402551  0.59694718  1
  H+  H308  1  0.47894578  0.12840551  1.00150930  1
  H+  H309  1  0.83330405  0.92136558  0.76592120  1
  H+  H310  1  0.67217239  0.84330005  0.26583832  1
  H+  H311  1  0.81223062  0.63968470  0.07589554  1
  H+  H312  1  0.82341590  0.45600626  0.08213540  1
  H+  H313  1  0.09004287  0.66313139  0.43947968  1
  H+  H314  1  0.58339080  0.18709381  0.07582061  1
  H+  H315  1  0.69926666  0.33680414  0.94350235  1
  H+  H316  1  0.86842283  0.97733688  0.00442586  1
  H+  H317  1  0.82926798  0.67074882  0.72590481  1
  H+  H318  1  0.92463297  0.83928329  0.56184604  1
  H+  H319  1  0.27653069  0.56626568  0.70474098  1
  H+  H320  1  0.98586995  0.70525963  0.30791775  1
  H+  H321  1  0.09610962  0.67454387  0.76931224  1
  H+  H322  1  0.77644558  0.13393018  0.34382212  1
  H+  H323  1  0.33826677  0.67479819  0.43883798  1
  H+  H324  1  0.41485932  0.59243281  0.26323960  1
  H+  H325  1  0.23784389  0.33023571  0.87115924  1
  H+  H326  1  0.42071142  0.82507549  0.95466340  1
  H+  H327  1  0.58419502  0.42465998  0.09844888  1
  H+  H328  1  0.13117927  0.88327128  0.01174868  1
  H+  H329  1  0.15120895  0.51857176  1.01962543  1
  H+  H330  1  0.84191832  0.40955902  0.42610825  1
  H+  H331  1  0.58313328  0.67600938  0.06466221  1
  H+  H332  1  0.92387737  0.34693396  0.23709735  1
  H+  H333  1  0.93424236  0.80759609  0.91452456  1
  H+  H334  1  0.59504720  0.27206367  0.60244529  1
  H+  H335  1  0.66027232  0.83007330  0.92414475  1
  H+  H336  1  0.15410966  0.33040652  0.93707099  1
  H+  H337  1  0.79750972  0.74341280  0.78807612  1
  H+  H338  1  0.33443900  0.91420724  0.43629439  1
  H+  H339  1  0.96441540  0.61293112  0.48658422  1
  H+  H340  1  0.82439798  0.90884498  0.41156625  1
  H+  H341  1  0.65978211  0.58968235  0.26513266  1
  H+  H342  1  0.82843896  0.91796406  0.09966366  1
  H+  H343  1  0.60407358  0.93351783  0.44011790  1
  H+  H344  1  0.38068988  0.81763315  0.58255269  1
  H+  H345  1  0.86694371  0.17207814  0.13791377  1
  H+  H346  1  0.92378726  0.07107835  0.93543992  1
  H+  H347  1  0.07947491  0.41635470  0.10590066  1
  H+  H348  1  0.23958481  0.61032356  0.17019072  1
  H+  H349  1  0.33469506  0.91893143  0.06983085  1
  H+  H350  1  0.83361731  0.16722594  0.43374766  1
  H+  H351  1  0.39965039  0.32847774  0.93448867  1
  H+  H352  1  0.59951862  0.25068796  0.50517314  1
  H+  H353  1  0.07751361  0.90642181  0.73786902  1
  H+  H354  1  0.81356995  0.04091709  0.89164645  1
  H+  H355  1  0.89917094  0.82820655  0.23576957  1
  H+  H356  1  0.16191152  0.80978396  0.26750832  1
  H+  H357  1  0.23953032  0.07375745  0.42901746  1
  H+  H358  1  0.06923862  0.43755963  0.44240033  1
  H+  H359  1  0.93418919  0.31703258  0.91239636  1
  H+  H360  1  0.63489966  0.76009393  0.83139005  1
  H+  H361  1  0.58191854  0.40821908  0.39260739  1
  H+  H362  1  0.11325681  0.66825997  0.05731320  1
  H+  H363  1  0.40272931  0.07386984  0.57577705  1
  H+  H364  1  0.09158592  0.40618167  0.73399240  1
  H+  H365  1  0.28199124  0.07638342  0.42343603  1
  H+  H366  1  0.68082940  0.32757757  0.25870761  1
  H+  H367  1  0.16471890  0.33475078  0.56004716  1
  H+  H368  1  0.15329292  0.07659866  0.22525535  1
  H+  H369  1  0.91333451  0.60720396  0.24496914  1
  H+  H370  1  0.83566296  0.31647909  1.01181670  1
  H+  H371  1  0.72903616  0.11032589  0.51671704  1
  H+  H372  1  0.34912823  0.20751666  0.68899974  1
  H+  H373  1  0.93109254  0.59068304  0.90186507  1
  H+  H374  1  0.36134849  0.63974627  0.34046763  1
  H+  H375  1  0.18736318  0.08024957  0.31769673  1
  H+  H376  1  0.13819716  0.61304966  0.84162190  1
  H+  H377  1  0.96623633  0.11007431  0.49992878  1
  H+  H378  1  0.34910204  0.95849936  0.17392941  1
  H+  H379  1  0.40707149  0.81344166  0.23112566  1
  H+  H380  1  0.66310846  0.58373892  0.56513478  1
  H+  H381  1  0.67012085  0.12780745  0.94069532  1
  H+  H382  1  0.52126825  0.64878627  0.15751485  1
  H+  H383  1  0.57124980  0.89135961  0.74768455  1
  O2-  O384  1  0.07786090  0.17637282  0.13870146  1
  O2-  O385  1  0.06793149  0.16956957  0.47198590  1
  O2-  O386  1  0.10115500  0.17562731  0.81088601  1
  O2-  O387  1  0.08585356  0.42139129  0.15124431  1
  O2-  O388  1  0.06997930  0.42011114  0.48442436  1
  O2-  O389  1  0.09653232  0.41471984  0.81794260  1
  O2-  O390  1  0.10115287  0.64720889  0.13596934  1
  O2-  O391  1  0.07763680  0.66503726  0.48336173  1
  O2-  O392  1  0.09243827  0.67853994  0.81453311  1
  O2-  O393  1  0.06361335  0.87366956  0.14688425  1
  O2-  O394  1  0.07876513  0.90211816  0.45722603  1
  O2-  O395  1  0.09515620  0.91596927  0.82665552  1
  O2-  O396  1  0.34369525  0.18797842  0.13692390  1
  O2-  O397  1  0.32664431  0.18429032  0.54194311  1
  O2-  O398  1  0.32849355  0.15943982  0.83620645  1
  O2-  O399  1  0.33583305  0.42746371  0.14061705  1
  O2-  O400  1  0.33114175  0.42702093  0.47466095  1
  O2-  O401  1  0.34081853  0.45202784  0.80138253  1
  O2-  O402  1  0.33658583  0.67076505  0.13764355  1
  O2-  O403  1  0.33859816  0.67405415  0.48399525  1
  O2-  O404  1  0.32974647  0.67258253  0.82031853  1
  O2-  O405  1  0.32692760  0.90450715  0.15134132  1
  O2-  O406  1  0.32724073  0.91723318  0.48088421  1
  O2-  O407  1  0.34037489  0.93522539  0.81424811  1
  O2-  O408  1  0.59436460  0.18466497  0.15044089  1
  O2-  O409  1  0.57298932  0.21179006  0.54014320  1
  O2-  O410  1  0.58567534  0.17951347  0.81917061  1
  O2-  O411  1  0.58944091  0.42690847  0.14403808  1
  O2-  O412  1  0.57990148  0.42765330  0.47029621  1
  O2-  O413  1  0.58968314  0.42574506  0.81639456  1
  O2-  O414  1  0.58278135  0.68098166  0.14387010  1
  O2-  O415  1  0.58754011  0.67389920  0.47614576  1
  O2-  O416  1  0.59599800  0.67336644  0.80721281  1
  O2-  O417  1  0.61198968  0.94450801  0.13876156  1
  O2-  O418  1  0.59321016  0.92152889  0.48359099  1
  O2-  O419  1  0.57369911  0.89730828  0.79291455  1
  O2-  O420  1  0.84115140  0.20833784  0.12842710  1
  O2-  O421  1  0.83280862  0.16493931  0.47926294  1
  O2-  O422  1  0.84373299  0.17629505  0.80985880  1
  O2-  O423  1  0.83025490  0.42340350  0.15251913  1
  O2-  O424  1  0.83499182  0.41006802  0.47231653  1
  O2-  O425  1  0.84573427  0.40627786  0.86205869  1
  O2-  O426  1  0.81457902  0.66446067  0.14857632  1
  O2-  O427  1  0.82150416  0.66884521  0.47364209  1
  O2-  O428  1  0.81258332  0.70152577  0.80311133  1
  O2-  O429  1  0.82967629  0.92452290  0.14454656  1
  O2-  O430  1  0.83071004  0.91803028  0.47372834  1
  O2-  O431  1  0.82802213  0.91760389  0.81107521  1
  O2-  O432  1  0.17013321  0.10336650  0.18354786  1
  O2-  O433  1  0.05707611  0.02898702  0.54142736  1
  O2-  O434  1  0.16772245  0.06874586  0.85975874  1
  O2-  O435  1  0.16912603  0.33560862  0.18054031  1
  O2-  O436  1  0.16202331  0.33688293  0.51462610  1
  O2-  O437  1  0.18361669  0.32535370  0.85853663  1
  O2-  O438  1  0.18082855  0.58175560  0.18888115  1
  O2-  O439  1  0.10048212  0.55938823  0.55717957  1
  O2-  O440  1  0.17046120  0.58554513  0.85649784  1
  O2-  O441  1  0.16131578  0.80410901  0.18705587  1
  O2-  O442  1  0.16155492  0.83155958  0.51808697  1
  O2-  O443  1  0.16860404  0.83731417  0.85827906  1
  O2-  O444  1  0.40785010  0.09272841  0.17267384  1
  O2-  O445  1  0.40272770  0.08366049  0.53092641  1
  O2-  O446  1  0.42617612  0.09118970  0.86121184  1
  O2-  O447  1  0.42483836  0.35116649  0.18127677  1
  O2-  O448  1  0.42885773  0.35737369  0.52169317  1
  O2-  O449  1  0.40877904  0.34852196  0.83178024  1
  O2-  O450  1  0.41836308  0.59102753  0.18289376  1
  O2-  O451  1  0.42597440  0.58978798  0.51762853  1
  O2-  O452  1  0.42191163  0.59789296  0.85256393  1
  O2-  O453  1  0.40902405  0.81337967  0.18395060  1
  O2-  O454  1  0.33797327  0.79577273  0.54897393  1
  O2-  O455  1  0.42809650  0.82151316  0.88131180  1
  O2-  O456  1  0.67646522  0.09654150  0.16966562  1
  O2-  O457  1  0.67319934  0.07964928  0.53787976  1
  O2-  O458  1  0.68886665  0.11722727  0.85602095  1
  O2-  O459  1  0.67979166  0.33420874  0.18841714  1
  O2-  O460  1  0.66166614  0.34177456  0.46055142  1
  O2-  O461  1  0.67138031  0.34218554  0.86606813  1
  O2-  O462  1  0.64759645  0.58426237  0.18567284  1
  O2-  O463  1  0.66273643  0.58808019  0.51981032  1
  O2-  O464  1  0.66523959  0.59344470  0.84698926  1
  O2-  O465  1  0.66663202  0.84367770  0.18928442  1
  O2-  O466  1  0.67544724  0.83282366  0.52441272  1
  O2-  O467  1  0.66406491  0.82428460  0.84852197  1
  O2-  O468  1  0.90855622  0.10495113  0.17155605  1
  O2-  O469  1  0.90609836  0.07646781  0.51602256  1
  O2-  O470  1  0.86509701  0.05675861  0.86774094  1
  O2-  O471  1  0.92410998  0.35296817  0.19144040  1
  O2-  O472  1  0.91101121  0.32982982  0.52122539  1
  O2-  O473  1  0.93453152  0.32931863  0.86917026  1
  O2-  O474  1  0.89977323  0.59270006  0.20021216  1
  O2-  O475  1  0.90113706  0.58432709  0.48340544  1
  O2-  O476  1  0.92667256  0.58693055  0.85623888  1
  O2-  O477  1  0.89856959  0.82832098  0.18997893  1
  O2-  O478  1  0.91827773  0.83278461  0.51691901  1
  O2-  O479  1  0.94821927  0.81497300  0.87099279  1
  O2-  O480  1  0.13043310  0.05082842  0.29904030  1
  O2-  O481  1  0.14843582  0.07502970  0.65300951  1
  O2-  O482  1  0.17660629  0.09029925  0.98241565  1
  O2-  O483  1  0.16833234  0.32914959  0.30022827  1
  O2-  O484  1  0.17338058  0.33211943  0.63803534  1
  O2-  O485  1  0.15096092  0.33166252  0.98201458  1
  O2-  O486  1  0.16408485  0.56615001  0.32073445  1
  O2-  O487  1  0.22451522  0.66565714  0.62364121  1
  O2-  O488  1  0.19780676  0.57823873  1.01386839  1
  O2-  O489  1  0.15974631  0.81662180  0.31220422  1
  O2-  O490  1  0.15849832  0.82671517  0.64507265  1
  O2-  O491  1  0.18213152  0.83833037  0.97842326  1
  O2-  O492  1  0.42714287  0.08051331  0.30418864  1
  O2-  O493  1  0.40617406  0.07069362  0.65317569  1
  O2-  O494  1  0.41960602  0.09450541  0.98381764  1
  O2-  O495  1  0.45495722  0.41754332  0.29667087  1
  O2-  O496  1  0.40547089  0.31662518  0.71135148  1
  O2-  O497  1  0.39674151  0.33010778  0.97873582  1
  O2-  O498  1  0.41231386  0.59205635  0.30856517  1
  O2-  O499  1  0.43432339  0.58814995  0.64161248  1
  O2-  O500  1  0.41875765  0.58594653  0.97020414  1
  O2-  O501  1  0.40670979  0.82012434  0.29984492  1
  O2-  O502  1  0.41970391  0.83935030  0.65847855  1
  O2-  O503  1  0.41980360  0.83615333  0.99980613  1
  O2-  O504  1  0.66101857  0.04118896  0.32796585  1
  O2-  O505  1  0.66874813  0.08481946  0.65688361  1
  O2-  O506  1  0.65856488  0.10937681  0.98332104  1
  O2-  O507  1  0.68000026  0.32195964  0.30570208  1
  O2-  O508  1  0.61217723  0.29903552  0.64395976  1
  O2-  O509  1  0.71828750  0.33061997  0.98469819  1
  O2-  O510  1  0.66982045  0.59723673  0.30977642  1
  O2-  O511  1  0.66104968  0.57431509  0.64390533  1
  O2-  O512  1  0.65759982  0.58610694  0.97259800  1
  O2-  O513  1  0.67345111  0.84384523  0.31169899  1
  O2-  O514  1  0.67552169  0.82885056  0.65095346  1
  O2-  O515  1  0.65908762  0.83240033  0.97010483  1
  O2-  O516  1  0.91205914  0.09812378  0.29984763  1
  O2-  O517  1  0.91681680  0.08576397  0.64238431  1
  O2-  O518  1  0.92958013  0.06990472  0.98042445  1
  O2-  O519  1  0.93229937  0.33481572  0.31114412  1
  O2-  O520  1  0.93391187  0.34354188  0.64403204  1
  O2-  O521  1  0.88075372  0.30287294  1.02197455  1
  O2-  O522  1  0.94322778  0.64467636  0.31273518  1
  O2-  O523  1  0.92365601  0.60979658  0.63174354  1
  O2-  O524  1  0.94456999  0.59257992  0.97790929  1
  O2-  O525  1  0.89839306  0.82607690  0.31357703  1
  O2-  O526  1  0.92299908  0.83747645  0.64473887  1
  O2-  O527  1  0.92078881  0.78925084  0.99917036  1
  O2-  O528  1  0.08992326  0.16800695  0.01719851  1
  O2-  O529  1  0.07574878  0.16842209  0.34571825  1
  O2-  O530  1  0.08517523  0.17226064  0.68746665  1
  O2-  O531  1  0.06530117  0.40621637  0.02975775  1
  O2-  O532  1  0.09207542  0.40637091  0.34599194  1
  O2-  O533  1  0.08971423  0.40755083  0.68912681  1
  O2-  O534  1  0.11379949  0.67397215  0.01228147  1
  O2-  O535  1  0.09490991  0.65601422  0.36058202  1
  O2-  O536  1  0.09667660  0.65687931  0.69252639  1
  O2-  O537  1  0.09494173  0.90654353  0.02952734  1
  O2-  O538  1  0.06485526  0.89424413  0.34308375  1
  O2-  O539  1  0.07882726  0.90697001  0.69323609  1
  O2-  O540  1  0.32519547  0.17871716  0.02369408  1
  O2-  O541  1  0.43957817  0.22463505  0.35978176  1
  O2-  O542  1  0.31524881  0.15042388  0.66945643  1
  O2-  O543  1  0.32451731  0.42015428  0.01823596  1
  O2-  O544  1  0.32866234  0.42574382  0.35034380  1
  O2-  O545  1  0.33866942  0.42105831  0.68053977  1
  O2-  O546  1  0.34265521  0.68146196  0.07079145  1
  O2-  O547  1  0.33011053  0.66785140  0.35802375  1
  O2-  O548  1  0.31493857  0.62626694  0.69417807  1
  O2-  O549  1  0.33969809  0.92378666  0.02489791  1
  O2-  O550  1  0.33594557  0.91539689  0.35260082  1
  O2-  O551  1  0.32394855  0.90818636  0.69209072  1
  O2-  O552  1  0.58025181  0.18687254  0.03005058  1
  O2-  O553  1  0.58563848  0.15213562  0.33922301  1
  O2-  O554  1  0.56597893  0.14475149  0.69815150  1
  O2-  O555  1  0.56839461  0.42003907  0.02224558  1
  O2-  O556  1  0.57740005  0.38165354  0.35195055  1
  O2-  O557  1  0.57529568  0.40956861  0.68855548  1
  O2-  O558  1  0.58328430  0.67123448  0.01932401  1
  O2-  O559  1  0.57672814  0.67175623  0.35279812  1
  O2-  O560  1  0.59095062  0.66782784  0.69169997  1
  O2-  O561  1  0.58827384  0.91469355  0.02886111  1
  O2-  O562  1  0.62653712  0.96595810  0.35141288  1
  O2-  O563  1  0.58001724  0.91176341  0.67047029  1
  O2-  O564  1  0.81921889  0.13225018  -0.01570583  1
  O2-  O565  1  0.83678180  0.16879946  0.35608695  1
  O2-  O566  1  0.83749739  0.17441426  0.68384692  1
  O2-  O567  1  0.81631760  0.47518980  0.04029175  1
  O2-  O568  1  0.84512235  0.41096774  0.35401518  1
  O2-  O569  1  0.94985693  0.49013343  0.68842789  1
  O2-  O570  1  0.81449501  0.62377695  0.03226280  1
  O2-  O571  1  0.82196796  0.66925695  0.35323356  1
  O2-  O572  1  0.82939120  0.66904508  0.68093813  1
  O2-  O573  1  0.82693365  0.91572632  0.01831277  1
  O2-  O574  1  0.82297419  0.90283692  0.36211495  1
  O2-  O575  1  0.84255152  0.92139778  0.68601359  1
