# generated using pymatgen
data_H2O
_symmetry_space_group_name_H-M   'P 1'
_cell_length_a   18.00452729
_cell_length_b   17.99478688
_cell_length_c   21.99910525
_cell_angle_alpha   89.99833311
_cell_angle_beta   89.98579963
_cell_angle_gamma   120.00919977
_symmetry_Int_Tables_number   1
_chemical_formula_structural   H2O
_chemical_formula_sum   'H384 O192'
_cell_volume   6171.96979613
_cell_formula_units_Z   192
loop_
 _symmetry_equiv_pos_site_id
 _symmetry_equiv_pos_as_xyz
  1  'x, y, z'
loop_
 _atom_type_symbol
 _atom_type_oxidation_number
  H+  1.0
  O2-  -2.0
loop_
 _atom_site_type_symbol
 _atom_site_label
 _atom_site_symmetry_multiplicity
 _atom_site_fract_x
 _atom_site_fract_y
 _atom_site_fract_z
 _atom_site_occupancy
  H+  H0  1  -0.03128033  0.12572039  0.66128762  1
  H+  H1  1  0.38619776  0.27599310  0.17591387  1
  H+  H2  1  0.26635182  0.62433823  0.33865853  1
  H+  H3  1  0.13299747  0.76817503  0.83429331  1
  H+  H4  1  0.53590923  0.64364632  0.67144281  1
  H+  H5  1  1.01836660  0.39272680  0.68519559  1
  H+  H6  1  0.14838958  0.02891097  0.18013080  1
  H+  H7  1  0.09401591  0.05112022  0.56076745  1
  H+  H8  1  0.25390970  0.61121832  0.67202961  1
  H+  H9  1  0.91570779  0.59745584  0.27024118  1
  H+  H10  1  0.01935195  0.63208317  0.15749254  1
  H+  H11  1  0.97045672  0.36856938  0.19834757  1
  H+  H12  1  0.72303367  0.64012852  0.32431191  1
  H+  H13  1  0.73763450  0.35710113  -0.00285849  1
  H+  H14  1  0.39241266  0.60810773  0.65278055  1
  H+  H15  1  0.39966607  0.61577880  0.99438695  1
  H+  H16  1  0.93929762  0.84855483  0.99984967  1
  H+  H17  1  0.64485276  0.62262158  0.66114949  1
  H+  H18  1  0.89073924  0.41659957  0.51136439  1
  H+  H19  1  0.95601953  0.85226764  0.65126035  1
  H+  H20  1  0.46711914  0.13573522  0.98438724  1
  H+  H21  1  0.10788871  0.71442762  1.00153912  1
  H+  H22  1  0.35663912  0.23913991  1.00380936  1
  H+  H23  1  0.75393981  0.11184358  0.96253387  1
  H+  H24  1  0.34318597  0.69087203  0.49428717  1
  H+  H25  1  0.61034116  0.64880122  0.81949840  1
  H+  H26  1  0.86147359  0.74363878  0.46981991  1
  H+  H27  1  0.96926273  0.16376157  0.50938497  1
  H+  H28  1  0.55147369  0.09766217  -0.00727911  1
  H+  H29  1  0.89565431  0.52471409  0.67292615  1
  H+  H30  1  0.51205594  0.88343578  0.82716087  1
  H+  H31  1  0.06473686  0.96023318  0.62739996  1
  H+  H32  1  0.34868277  0.91993073  0.49662494  1
  H+  H33  1  0.26921465  0.15344860  0.34743297  1
  H+  H34  1  0.23529765  0.37755284  0.84088801  1
  H+  H35  1  0.40707434  0.12952379  0.67758696  1
  H+  H36  1  0.62619925  0.89030874  0.32293197  1
  H+  H37  1  0.75153871  0.38753439  0.49896126  1
  H+  H38  1  0.87856065  0.15437452  0.83184414  1
  H+  H39  1  0.02688755  0.63948427  0.66669654  1
  H+  H40  1  0.37660595  0.36086271  0.50646496  1
  H+  H41  1  0.44596206  0.39859964  0.65496365  1
  H+  H42  1  0.11857879  0.15203873  0.82753289  1
  H+  H43  1  0.14695190  0.84655161  0.31630193  1
  H+  H44  1  0.52129954  0.85610643  0.48965141  1
  H+  H45  1  0.36789333  0.39140496  0.16057532  1
  H+  H46  1  0.53960754  0.14776980  0.67759623  1
  H+  H47  1  0.49186557  0.62986348  0.83330897  1
  H+  H48  1  1.03718948  0.88513553  0.17415287  1
  H+  H49  1  0.77669213  0.14808163  0.68778963  1
  H+  H50  1  0.62567374  0.88591762  1.00758744  1
  H+  H51  1  0.35275698  0.14529418  0.34966006  1
  H+  H52  1  0.06910483  0.93902282  0.88974390  1
  H+  H53  1  0.64052326  0.61790470  0.99718135  1
  H+  H54  1  0.27327414  0.64455269  0.83434495  1
  H+  H55  1  0.77803542  0.38950907  0.14262811  1
  H+  H56  1  0.66169866  0.82444789  0.92512786  1
  H+  H57  1  0.42426274  0.30107975  0.66243243  1
  H+  H58  1  0.86480343  0.39276332  0.16467166  1
  H+  H59  1  0.47464930  0.36309986  0.17462244  1
  H+  H60  1  0.07938333  0.40886726  0.24160156  1
  H+  H61  1  0.52010263  0.62823094  0.49051765  1
  H+  H62  1  0.13770305  0.10789931  0.98463239  1
  H+  H63  1  0.84843573  0.71704583  0.82012627  1
  H+  H64  1  0.37557374  0.49421372  0.82874215  1
  H+  H65  1  0.75344596  0.89068629  -0.00115584  1
  H+  H66  1  0.87341568  0.03718338  0.28853502  1
  H+  H67  1  0.23740817  0.11915891  0.17363550  1
  H+  H68  1  0.88871399  0.14797922  0.98468407  1
  H+  H69  1  0.09895075  0.13503927  0.34161804  1
  H+  H70  1  0.27996971  0.85708859  0.99439480  1
  H+  H71  1  0.57565420  0.66050213  0.39983589  1
  H+  H72  1  -0.00254583  0.37645946  -0.00311125  1
  H+  H73  1  0.13198207  0.61677942  0.83687098  1
  H+  H74  1  0.92360483  0.88430170  0.20587986  1
  H+  H75  1  0.88426374  1.03109883  0.83665531  1
  H+  H76  1  0.92527912  0.08620051  0.92658169  1
  H+  H77  1  0.60359274  0.74984943  0.17581702  1
  H+  H78  1  0.66327101  0.30541079  0.52037370  1
  H+  H79  1  0.63457625  0.35627129  0.84299962  1
  H+  H80  1  0.38646417  0.87065418  0.84459521  1
  H+  H81  1  0.65342521  0.12486987  0.66950234  1
  H+  H82  1  0.84421791  0.90065409  0.01045588  1
  H+  H83  1  0.38463289  0.78066982  0.84420452  1
  H+  H84  1  0.72763632  0.61280912  -0.00607030  1
  H+  H85  1  0.87440217  0.47194108  1.00034457  1
  H+  H86  1  0.62158733  0.09919686  0.82604213  1
  H+  H87  1  0.39957629  0.62467846  0.84298755  1
  H+  H88  1  1.00213360  0.40351960  0.53075730  1
  H+  H89  1  0.36593059  0.76369348  0.66173782  1
  H+  H90  1  0.50041308  0.86244662  0.15185950  1
  H+  H91  1  0.86270515  1.01562130  0.18294510  1
  H+  H92  1  0.38619665  0.13913219  0.51803984  1
  H+  H93  1  0.85825091  0.86225443  0.83089500  1
  H+  H94  1  0.21261663  0.81393633  0.50067400  1
  H+  H95  1  0.66146268  0.37486781  0.67503132  1
  H+  H96  1  0.47504027  0.62088155  0.18039708  1
  H+  H97  1  0.13925084  0.35966325  0.18401140  1
  H+  H98  1  0.11852610  0.26213198  0.32980805  1
  H+  H99  1  0.37508578  0.85578930  0.65703751  1
  H+  H100  1  0.10879840  0.38054217  0.32722984  1
  H+  H101  1  0.03206379  0.96658773  0.39033341  1
  H+  H102  1  0.99031025  0.83013494  0.95026337  1
  H+  H103  1  0.84440424  0.44056723  0.40988116  1
  H+  H104  1  0.38886184  0.28388825  0.33440135  1
  H+  H105  1  0.12070153  0.84739444  0.85172521  1
  H+  H106  1  -0.00593825  0.86392062  0.48443864  1
  H+  H107  1  0.90821180  0.55664092  0.60421037  1
  H+  H108  1  0.78260847  0.91366575  0.31021576  1
  H+  H109  1  0.97189010  0.60035938  0.98631369  1
  H+  H110  1  0.07541917  0.65441770  0.06189801  1
  H+  H111  1  0.61405972  0.39228049  0.00298579  1
  H+  H112  1  0.64417325  0.86641905  0.50477005  1
  H+  H113  1  0.36780292  0.02085232  0.13814645  1
  H+  H114  1  0.22265995  0.05054819  0.66252924  1
  H+  H115  1  0.13812048  0.04304694  0.32826460  1
  H+  H116  1  0.98686805  0.38039796  0.33096639  1
  H+  H117  1  0.14466580  0.40084338  0.51380856  1
  H+  H118  1  0.64408118  0.77546019  0.65597032  1
  H+  H119  1  0.62501980  0.00916372  0.50857425  1
  H+  H120  1  0.11541115  0.57105569  0.50256835  1
  H+  H121  1  0.88358475  0.61458991  0.17411844  1
  H+  H122  1  0.73252700  0.61820045  0.66019506  1
  H+  H123  1  0.76568452  0.36319052  0.32005440  1
  H+  H124  1  0.78424907  0.70421774  0.42526684  1
  H+  H125  1  0.62135013  0.49481523  0.83346658  1
  H+  H126  1  0.63706048  0.49759869  0.68116486  1
  H+  H127  1  0.31465105  0.91760132  0.07195730  1
  H+  H128  1  0.83828366  0.09258955  0.37531215  1
  H+  H129  1  0.86040715  0.90321563  0.67905000  1
  H+  H130  1  0.25263168  0.59965266  0.49151430  1
  H+  H131  1  0.37979265  0.59559955  0.50472349  1
  H+  H132  1  0.31102420  0.17406846  0.67719075  1
  H+  H133  1  0.72554593  0.60727974  0.83971450  1
  H+  H134  1  0.94541320  0.09680837  0.20853730  1
  H+  H135  1  0.01774255  0.90507079  0.33660550  1
  H+  H136  1  0.76850720  0.12045135  0.37663676  1
  H+  H137  1  0.13541375  0.52276503  -0.01331289  1
  H+  H138  1  0.73393165  0.62385042  0.50276230  1
  H+  H139  1  0.41134140  0.88659410  0.31979478  1
  H+  H140  1  0.86787469  0.90082128  0.47229026  1
  H+  H141  1  0.14107295  0.60989997  0.32702288  1
  H+  H142  1  0.10116815  0.92004072  0.11630487  1
  H+  H143  1  0.50705268  0.86206772  0.67479677  1
  H+  H144  1  0.77096224  0.64433192  0.16225439  1
  H+  H145  1  0.37801982  0.13100606  0.98572493  1
  H+  H146  1  0.52341071  0.40014552  0.82667739  1
  H+  H147  1  0.58512105  0.18576211  0.38443642  1
  H+  H148  1  0.90633954  0.28451783  -0.01742370  1
  H+  H149  1  0.31916690  0.64024143  0.40506575  1
  H+  H150  1  0.13815839  0.85091411  0.17984393  1
  H+  H151  1  0.44680950  0.09943471  0.36253303  1
  H+  H152  1  0.66582540  0.91203397  0.18347043  1
  H+  H153  1  0.63508142  -0.02224995  1.00278438  1
  H+  H154  1  0.12888700  0.39315811  0.00407357  1
  H+  H155  1  0.76034683  0.88979167  0.82672274  1
  H+  H156  1  0.22041871  0.60224918  0.16868745  1
  H+  H157  1  0.00114180  0.11182736  0.34684526  1
  H+  H158  1  0.11520181  0.23868807  0.82913225  1
  H+  H159  1  0.67022832  0.32922886  0.08112760  1
  H+  H160  1  0.21079059  0.37213377  0.66424613  1
  H+  H161  1  0.50326924  0.82294519  0.15827126  1
  H+  H162  1  0.21490411  0.10189610  0.50151813  1
  H+  H163  1  0.35876996  0.98122027  0.82526104  1
  H+  H164  1  0.06336827  0.18550357  0.44009114  1
  H+  H165  1  0.86219928  0.71710641  0.67962955  1
  H+  H166  1  1.02803606  0.63067564  0.33856461  1
  H+  H167  1  0.88490002  0.60917686  0.83212394  1
  H+  H168  1  0.38629189  0.05251678  0.52719877  1
  H+  H169  1  0.37120997  0.48525160  0.00425428  1
  H+  H170  1  0.34113046  0.65840651  0.06455353  1
  H+  H171  1  0.22309550  0.85488149  0.16171667  1
  H+  H172  1  0.37361095  0.86916474  0.00787530  1
  H+  H173  1  0.33676995  0.70588122  0.16481861  1
  H+  H174  1  0.14952959  0.27733240  0.16918353  1
  H+  H175  1  0.23648576  0.37531005  0.99562908  1
  H+  H176  1  0.33966966  0.42545827  0.06455509  1
  H+  H177  1  0.87960319  0.59236987  0.98878391  1
  H+  H178  1  0.52915582  0.15422339  0.50803876  1
  H+  H179  1  0.51445290  0.62874257  0.34105989  1
  H+  H180  1  0.84621007  0.88511102  0.14242803  1
  H+  H181  1  0.05102250  0.14275294  0.14100668  1
  H+  H182  1  0.12133696  0.36756773  0.66341172  1
  H+  H183  1  0.86797285  0.49551110  0.34800709  1
  H+  H184  1  0.88503211  0.64068399  0.38289908  1
  H+  H185  1  0.67070404  0.11652910  0.97111915  1
  H+  H186  1  0.37423667  0.15437756  0.82687467  1
  H+  H187  1  0.55694815  0.40312017  0.67736645  1
  H+  H188  1  0.36392226  0.48272383  0.66735640  1
  H+  H189  1  0.26404386  0.39064125  0.49688938  1
  H+  H190  1  0.59674304  0.06742894  0.34789765  1
  H+  H191  1  0.07480554  0.92358236  0.69147005  1
  H+  H192  1  0.22505450  0.86931946  0.65374182  1
  H+  H193  1  0.36606906  0.98009414  0.67457415  1
  H+  H194  1  0.73283186  0.87513884  0.19151461  1
  H+  H195  1  0.27604042  0.87108953  0.33750968  1
  H+  H196  1  0.84292752  0.18093091  0.76921889  1
  H+  H197  1  0.61050493  -0.00974603  0.82079357  1
  H+  H198  1  0.35609786  0.38493139  0.34139002  1
  H+  H199  1  0.61410621  0.49298339  0.34306152  1
  H+  H200  1  0.16671353  0.81805820  0.92975305  1
  H+  H201  1  0.47261493  0.11496445  0.83437994  1
  H+  H202  1  0.09323037  0.68412169  0.49662318  1
  H+  H203  1  0.02234316  0.63527215  0.81808740  1
  H+  H204  1  0.88727402  1.03258371  -0.01081294  1
  H+  H205  1  0.38806804  0.37430319  0.99051921  1
  H+  H206  1  0.36170284  0.83588438  0.16919385  1
  H+  H207  1  0.65066517  0.00841112  0.16466173  1
  H+  H208  1  0.62710230  -0.02815250  0.34770458  1
  H+  H209  1  0.25252167  0.95318028  0.09149056  1
  H+  H210  1  0.62263565  0.46119778  0.15294139  1
  H+  H211  1  0.38085143  0.72238498  0.00847606  1
  H+  H212  1  0.26943968  0.14646804  0.00442075  1
  H+  H213  1  0.72712811  0.87107578  0.66017296  1
  H+  H214  1  0.20680046  0.08143540  0.65563910  1
  H+  H215  1  0.61097391  0.63490358  0.49010132  1
  H+  H216  1  0.13188702  0.60585857  0.16925274  1
  H+  H217  1  0.03593251  0.14316450  -0.00232217  1
  H+  H218  1  0.85960648  0.99261052  0.67278109  1
  H+  H219  1  0.86462137  0.62863959  0.67183720  1
  H+  H220  1  0.35379902  0.62599998  0.16343007  1
  H+  H221  1  0.15868384  0.85644257  -0.00590514  1
  H+  H222  1  0.66305983  0.27653770  0.34608511  1
  H+  H223  1  0.51704269  0.12712100  0.14472309  1
  H+  H224  1  0.62708339  0.76055480  0.83060913  1
  H+  H225  1  0.11938044  0.71442048  0.34138985  1
  H+  H226  1  0.12263575  0.39937334  0.82990261  1
  H+  H227  1  0.59939199  0.86847704  0.67457372  1
  H+  H228  1  0.26247741  0.37679275  0.34213274  1
  H+  H229  1  0.84797887  0.13597543  0.19547762  1
  H+  H230  1  0.90457284  0.10961527  0.60536028  1
  H+  H231  1  0.64606557  0.26902228  -0.00638817  1
  H+  H232  1  0.32622075  0.37972643  0.66901588  1
  H+  H233  1  0.63354934  0.49493294  0.49231860  1
  H+  H234  1  0.33300365  0.17727334  0.09850957  1
  H+  H235  1  0.89724576  0.39057727  0.34477638  1
  H+  H236  1  0.15807364  0.04963055  0.82076018  1
  H+  H237  1  0.86724823  0.14998702  0.68512161  1
  H+  H238  1  0.14248062  0.98165262  0.01593090  1
  H+  H239  1  0.14747753  0.28408728  0.99122128  1
  H+  H240  1  0.61048536  0.21593901  0.83220206  1
  H+  H241  1  0.63049143  0.23756271  0.68100937  1
  H+  H242  1  0.89582921  0.36940988  0.81764386  1
  H+  H243  1  0.10052113  0.25645151  0.49281202  1
  H+  H244  1  0.13405357  0.86469213  0.64020843  1
  H+  H245  1  0.86315899  0.72657068  0.15786875  1
  H+  H246  1  0.11557705  0.85074991  0.48629383  1
  H+  H247  1  0.63738561  0.76939409  0.98917502  1
  H+  H248  1  0.88731369  0.28141004  0.67620675  1
  H+  H249  1  0.52525948  0.40306906  0.34654536  1
  H+  H250  1  -0.01493577  0.37278738  0.83245256  1
  H+  H251  1  0.87667094  0.70711605  0.00781724  1
  H+  H252  1  0.06796683  0.07940615  0.62317225  1
  H+  H253  1  0.87500718  0.48279751  0.79747134  1
  H+  H254  1  0.56749933  0.90008216  0.76268234  1
  H+  H255  1  0.84389924  0.81197464  0.33014429  1
  H+  H256  1  0.10233195  0.23107724  0.67045509  1
  H+  H257  1  0.37098239  0.51164859  0.32924602  1
  H+  H258  1  0.28050850  0.39326091  0.16072937  1
  H+  H259  1  0.11866996  0.47768967  0.32471149  1
  H+  H260  1  0.35488439  0.23281250  0.50223433  1
  H+  H261  1  0.06701519  0.88579345  0.02567132  1
  H+  H262  1  0.61986911  0.56102787  0.18289291  1
  H+  H263  1  0.63959493  0.40499889  0.48263425  1
  H+  H264  1  0.87839511  0.39506216  0.70049466  1
  H+  H265  1  0.52857950  0.63820148  0.00929217  1
  H+  H266  1  0.60751840  0.21670181  0.13748696  1
  H+  H267  1  -0.01751322  0.86213655  0.86351928  1
  H+  H268  1  0.47474325  0.36950899  0.98967209  1
  H+  H269  1  0.38347580  0.50974644  0.50579403  1
  H+  H270  1  0.89919650  0.37681109  -0.00146121  1
  H+  H271  1  0.11498753  0.73003480  0.66587874  1
  H+  H272  1  0.13713842  0.14238700  0.15252441  1
  H+  H273  1  0.35297116  0.96664419  0.34741967  1
  H+  H274  1  0.12117387  0.60916312  0.98968490  1
  H+  H275  1  0.74409166  0.36843264  0.68309861  1
  H+  H276  1  0.39641442  0.38324586  0.83713823  1
  H+  H277  1  0.11137662  0.71662087  0.15468801  1
  H+  H278  1  0.39190043  0.52573516  0.17496784  1
  H+  H279  1  0.63340747  0.35367562  0.13689885  1
  H+  H280  1  0.36573591  0.14138664  0.15282922  1
  H+  H281  1  0.57888796  0.02757435  0.56031720  1
  H+  H282  1  0.07598686  0.17079363  0.72873829  1
  H+  H283  1  0.37958565  0.82113214  0.49963257  1
  H+  H284  1  0.27168982  0.89043298  0.82642465  1
  H+  H285  1  0.88566786  0.52716615  0.17484128  1
  H+  H286  1  0.13518360  0.52746707  0.83965331  1
  H+  H287  1  0.14414518  1.00372786  0.49343796  1
  H+  H288  1  0.24327866  0.13518771  0.83559960  1
  H+  H289  1  0.92044595  0.34920625  0.61935300  1
  H+  H290  1  0.32933186  0.67088632  0.77478740  1
  H+  H291  1  0.43276640  0.58959212  0.93368915  1
  H+  H292  1  0.87924190  0.28085198  0.19992373  1
  H+  H293  1  0.17890025  0.81556261  0.26021233  1
  H+  H294  1  0.17419002  0.08048472  0.92823655  1
  H+  H295  1  0.11509221  0.94057633  0.77316853  1
  H+  H296  1  0.62584090  0.62430114  0.32975650  1
  H+  H297  1  0.42537171  0.35209266  0.89721265  1
  H+  H298  1  0.16285906  0.31986147  0.27051436  1
  H+  H299  1  0.49671505  0.88139354  0.31212650  1
  H+  H300  1  0.60891797  0.13920478  0.50392984  1
  H+  H301  1  0.40438351  0.57565129  0.27005515  1
  H+  H302  1  0.08586972  0.66740173  0.76036452  1
  H+  H303  1  0.74682201  0.88097085  0.50092796  1
  H+  H304  1  0.62000138  0.67188261  0.17265931  1
  H+  H305  1  0.62497625  0.11325273  0.18286674  1
  H+  H306  1  0.89908531  0.80230553  0.24212104  1
  H+  H307  1  0.33015658  0.91681675  0.73077460  1
  H+  H308  1  0.58386822  0.89347770  0.43108344  1
  H+  H309  1  0.88430859  0.25542896  0.82865584  1
  H+  H310  1  0.07404364  0.94297658  0.77228271  1
  H+  H311  1  0.85570135  0.16937669  0.46565349  1
  H+  H312  1  0.59601663  0.43603279  0.42447783  1
  H+  H313  1  0.82460133  0.65138024  0.76496088  1
  H+  H314  1  0.36017945  0.20033127  0.74038900  1
  H+  H315  1  0.15319823  0.56612966  0.59648553  1
  H+  H316  1  0.10333672  0.43100715  0.06193640  1
  H+  H317  1  0.91367220  0.57083984  0.88659514  1
  H+  H318  1  0.80985278  0.92573787  0.09668456  1
  H+  H319  1  0.49576328  0.86508796  -0.00252837  1
  H+  H320  1  0.32551783  0.88251519  0.42989002  1
  H+  H321  1  0.35715774  0.61486930  0.33988294  1
  H+  H322  1  0.41847115  0.33951328  0.27304998  1
  H+  H323  1  0.16286027  0.35055802  0.56677541  1
  H+  H324  1  0.09783688  0.89544321  0.42786155  1
  H+  H325  1  0.69060439  0.09289913  0.61634131  1
  H+  H326  1  0.13348151  0.61437693  0.65214265  1
  H+  H327  1  0.58988797  0.67803814  0.73458932  1
  H+  H328  1  0.40464575  0.04851389  0.20342617  1
  H+  H329  1  0.71616474  0.12628812  0.20246244  1
  H+  H330  1  0.17386249  0.58834119  0.26431006  1
  H+  H331  1  0.82143877  0.17135524  0.13969608  1
  H+  H332  1  0.84442207  0.80202856  0.88663230  1
  H+  H333  1  0.10734664  0.48151888  0.67601831  1
  H+  H334  1  0.59507363  0.43395604  0.76548252  1
  H+  H335  1  0.17592963  0.34782447  0.90001917  1
  H+  H336  1  0.84270438  0.17295152  0.03574376  1
  H+  H337  1  0.42728601  0.10380003  0.61429146  1
  H+  H338  1  0.41098433  0.09358799  0.89260302  1
  H+  H339  1  0.68458257  0.84679423  0.56981589  1
  H+  H340  1  0.17416881  0.10107582  0.26865571  1
  H+  H341  1  0.95838452  0.56352742  0.50217709  1
  H+  H342  1  0.63232793  0.26420583  0.42666047  1
  H+  H343  1  0.57943237  0.14727489  0.05638650  1
  H+  H344  1  0.57702408  0.41626858  0.09080152  1
  H+  H345  1  0.93735330  0.86579595  0.53680393  1
  H+  H346  1  0.58639012  0.67785206  0.06938461  1
  H+  H347  1  0.38557592  0.81896031  0.23392296  1
  H+  H348  1  0.66105480  0.32983899  0.90351624  1
  H+  H349  1  0.66903749  0.61025857  0.24232711  1
  H+  H350  1  0.97844079  0.11861985  0.83711602  1
  H+  H351  1  0.37790735  0.24750333  0.83048400  1
  H+  H352  1  0.87117174  0.73889297  0.32848395  1
  H+  H353  1  0.32836385  0.17170995  0.44440266  1
  H+  H354  1  0.92003939  0.30791259  0.52762416  1
  H+  H355  1  0.62971117  0.85420730  0.83979407  1
  H+  H356  1  0.69346870  0.31895882  0.26722619  1
  H+  H357  1  0.42124483  0.57669834  0.59370647  1
  H+  H358  1  0.85295402  0.41825671  0.06439465  1
  H+  H359  1  0.10331056  0.17309357  0.05300619  1
  H+  H360  1  0.66593952  0.58183271  0.90079983  1
  H+  H361  1  0.64926619  0.08715560  0.28659833  1
  H+  H362  1  0.83077706  0.65147175  0.06579031  1
  H+  H363  1  0.28982905  0.56777570  0.71438086  1
  H+  H364  1  0.09072442  0.42863919  0.77026219  1
  H+  H365  1  0.07072317  0.63441923  0.43405471  1
  H+  H366  1  0.43757350  0.10694589  0.29343560  1
  H+  H367  1  0.42910167  0.34350601  0.55788937  1
  H+  H368  1  0.15487844  0.58353887  0.92079161  1
  H+  H369  1  0.58710902  0.16683811  0.76796634  1
  H+  H370  1  0.67802291  0.58975479  0.56544340  1
  H+  H371  1  0.32187552  0.41074440  0.43632997  1
  H+  H372  1  0.66892385  0.07019026  0.87704642  1
  H+  H373  1  0.86363167  0.80656141  0.61788566  1
  H+  H374  1  0.15975591  0.80462571  0.56119742  1
  H+  H375  1  0.43481192  0.83688614  0.93797076  1
  H+  H376  1  0.61502249  0.48244332  0.00167742  1
  H+  H377  1  0.82286075  0.92408878  0.41985480  1
  H+  H378  1  0.33888679  0.43167283  0.77042038  1
  H+  H379  1  0.90893433  0.34786583  0.27966110  1
  H+  H380  1  0.10756014  0.47214348  0.18662275  1
  H+  H381  1  0.40825145  0.80229907  0.56285138  1
  H+  H382  1  0.82226088  0.92828351  0.76755898  1
  H+  H383  1  0.63812402  0.94861337  0.10395270  1
  O2-  O384  1  0.11210245  0.17573781  0.13194969  1
  O2-  O385  1  0.06026775  0.19478182  0.48384734  1
  O2-  O386  1  0.08330603  0.17761192  0.81511832  1
  O2-  O387  1  0.07554678  0.40844344  0.19622385  1
  O2-  O388  1  0.09710674  0.45409457  0.50336050  1
  O2-  O389  1  0.09123843  0.42945003  0.81630027  1
  O2-  O390  1  0.07754579  0.65656919  0.13887879  1
  O2-  O391  1  0.06344635  0.62511672  0.47882128  1
  O2-  O392  1  0.08445364  0.66644853  0.80601086  1
  O2-  O393  1  0.09824334  0.91821005  0.16170136  1
  O2-  O394  1  0.09309092  0.88907111  0.47219311  1
  O2-  O395  1  0.03808984  0.87679340  0.88414336  1
  O2-  O396  1  0.33523378  0.17351471  0.14413060  1
  O2-  O397  1  0.32743598  0.16953145  0.48964302  1
  O2-  O398  1  0.34578949  0.18812087  0.81311292  1
  O2-  O399  1  0.34012548  0.42344612  0.14419146  1
  O2-  O400  1  0.32458315  0.41235754  0.48155550  1
  O2-  O401  1  0.34239631  0.43166587  0.81546016  1
  O2-  O402  1  0.31917976  0.64916277  0.14459481  1
  O2-  O403  1  0.31267682  0.63254532  0.47502680  1
  O2-  O404  1  0.33352686  0.67649855  0.81948290  1
  O2-  O405  1  0.29213231  0.93729076  0.10982699  1
  O2-  O406  1  0.31972879  0.86587445  0.47448289  1
  O2-  O407  1  0.33188599  0.92002142  0.81159680  1
  O2-  O408  1  0.57868419  0.15298030  0.13268585  1
  O2-  O409  1  0.58682136  0.17679849  0.48975761  1
  O2-  O410  1  0.57994097  0.15723946  0.81357062  1
  O2-  O411  1  0.57775007  0.40698365  0.13640053  1
  O2-  O412  1  0.60541106  0.43482904  0.47292478  1
  O2-  O413  1  0.58709710  0.43016516  0.81358913  1
  O2-  O414  1  0.58290110  0.69366964  0.15615934  1
  O2-  O415  1  0.57875445  0.66101574  0.47309465  1
  O2-  O416  1  0.58247684  0.68010834  0.80466994  1
  O2-  O417  1  0.66705031  0.96868777  0.14438158  1
  O2-  O418  1  0.58196186  0.89397141  0.47670089  1
  O2-  O419  1  0.57234504  0.91172057  0.80950666  1
  O2-  O420  1  0.82506475  0.17481469  0.18387924  1
  O2-  O421  1  0.87422837  0.19103083  0.50825017  1
  O2-  O422  1  0.84948684  0.18659648  0.81737385  1
  O2-  O423  1  0.84198365  0.42362820  0.14005746  1
  O2-  O424  1  0.86095492  0.44591480  0.49095553  1
  O2-  O425  1  0.85025950  0.42247309  0.78228528  1
  O2-  O426  1  0.82952331  0.66604329  0.14490817  1
  O2-  O427  1  0.81849275  0.68834770  0.45074393  1
  O2-  O428  1  0.82404069  0.65517266  0.81078108  1
  O2-  O429  1  0.81894563  0.92033287  0.14134175  1
  O2-  O430  1  0.82695887  0.92101951  0.46460793  1
  O2-  O431  1  0.82276879  0.92450374  0.81311313  1
  O2-  O432  1  0.17658314  0.09152434  0.18940168  1
  O2-  O433  1  0.15216205  0.06124827  0.50077199  1
  O2-  O434  1  0.18100571  0.09923529  0.84805566  1
  O2-  O435  1  0.17590816  0.33331623  0.19077677  1
  O2-  O436  1  0.16780578  0.35981686  0.52208610  1
  O2-  O437  1  0.17407330  0.34651812  0.85471136  1
  O2-  O438  1  0.16132364  0.57695193  0.18796016  1
  O2-  O439  1  0.14941939  0.54646402  0.52128811  1
  O2-  O440  1  0.16220182  0.58824078  0.85659293  1
  O2-  O441  1  0.16997619  0.81912801  0.18593909  1
  O2-  O442  1  0.15343360  0.79138276  0.51655165  1
  O2-  O443  1  0.16187170  0.82654727  0.85381829  1
  O2-  O444  1  0.40995227  0.07335604  0.16320341  1
  O2-  O445  1  0.42108887  0.11326217  0.53673010  1
  O2-  O446  1  0.41116108  0.09032970  0.84671685  1
  O2-  O447  1  0.41598806  0.33615366  0.19178643  1
  O2-  O448  1  0.40858339  0.33015938  0.51580105  1
  O2-  O449  1  0.42918584  0.35416916  0.85136317  1
  O2-  O450  1  0.41483867  0.58345869  0.19447874  1
  O2-  O451  1  0.41503145  0.57146779  0.52056472  1
  O2-  O452  1  0.43106785  0.59449252  0.85328292  1
  O2-  O453  1  0.34329995  0.79100921  0.19979181  1
  O2-  O454  1  0.41093247  0.79423455  0.51821445  1
  O2-  O455  1  0.41825500  0.84148463  0.85880089  1
  O2-  O456  1  0.65336184  0.08822516  0.20801211  1
  O2-  O457  1  0.62838918  0.05667037  0.53355558  1
  O2-  O458  1  0.65089208  0.06354504  0.83352340  1
  O2-  O459  1  0.66862430  0.32650097  0.12618107  1
  O2-  O460  1  0.68816985  0.35313384  0.49132135  1
  O2-  O461  1  0.65456257  0.31882731  0.85971026  1
  O2-  O462  1  0.67006431  0.61459646  0.19527926  1
  O2-  O463  1  0.67559652  0.58648228  0.51998080  1
  O2-  O464  1  0.66454601  0.57716930  0.85528505  1
  O2-  O465  1  0.67609761  0.86283975  0.20897032  1
  O2-  O466  1  0.68686722  0.85030571  0.52285603  1
  O2-  O467  1  0.66206084  0.82571953  0.85213676  1
  O2-  O468  1  0.88295786  0.06676423  0.21005712  1
  O2-  O469  1  0.90881918  0.13648431  0.52899679  1
  O2-  O470  1  0.91810564  0.09099966  0.85334014  1
  O2-  O471  1  0.90781294  0.34348345  0.20985412  1
  O2-  O472  1  0.93834309  0.36633113  0.54310584  1
  O2-  O473  1  0.92193847  0.34082442  0.84136169  1
  O2-  O474  1  0.91509040  0.58683301  0.19118138  1
  O2-  O475  1  0.89900800  0.53145648  0.52043647  1
  O2-  O476  1  0.91750977  0.57912554  0.84187884  1
  O2-  O477  1  0.92580616  0.83137791  0.20225108  1
  O2-  O478  1  0.93338654  0.85019039  0.49405060  1
  O2-  O479  1  0.87698639  0.82131738  0.84879537  1
  O2-  O480  1  0.17081627  0.10336031  0.31392403  1
  O2-  O481  1  0.05451845  0.02972729  0.59731399  1
  O2-  O482  1  0.16771514  0.07566494  0.97326004  1
  O2-  O483  1  0.15615308  0.32243088  0.31542199  1
  O2-  O484  1  0.15243118  0.33813690  0.64742654  1
  O2-  O485  1  0.17505958  0.34628336  0.98024865  1
  O2-  O486  1  0.17526337  0.58414891  0.31000117  1
  O2-  O487  1  0.16003669  0.57866749  0.64135434  1
  O2-  O488  1  0.15368028  0.58136822  0.96956729  1
  O2-  O489  1  0.17708221  0.81565664  0.30639545  1
  O2-  O490  1  0.16671194  0.83386405  0.63558402  1
  O2-  O491  1  0.16872181  0.81243049  0.97516576  1
  O2-  O492  1  0.40410600  0.08145848  0.33019222  1
  O2-  O493  1  0.42928035  0.09430632  0.65886388  1
  O2-  O494  1  0.40930767  0.10390628  0.96736345  1
  O2-  O495  1  0.41944658  0.34390157  0.31828040  1
  O2-  O496  1  0.46248848  0.35737147  0.64129611  1
  O2-  O497  1  0.41535408  0.34173000  0.97321538  1
  O2-  O498  1  0.40018601  0.57376525  0.31584020  1
  O2-  O499  1  0.42305536  0.57801882  0.64003478  1
  O2-  O500  1  0.43127794  0.58520268  0.97908206  1
  O2-  O501  1  0.44859279  0.88069508  0.28972119  1
  O2-  O502  1  0.39930114  0.81954305  0.64208097  1
  O2-  O503  1  0.43573504  0.83067219  0.98294826  1
  O2-  O504  1  0.65423626  0.08814874  0.33198731  1
  O2-  O505  1  0.68793892  0.09662858  0.66063889  1
  O2-  O506  1  0.69112450  0.07938548  0.95416096  1
  O2-  O507  1  0.71789943  0.30737028  0.30322872  1
  O2-  O508  1  0.68766008  0.34052650  0.66255070  1
  O2-  O509  1  0.67426382  0.33246153  0.99549178  1
  O2-  O510  1  0.66415609  0.59945160  0.31195178  1
  O2-  O511  1  0.67210746  0.58938689  0.64478957  1
  O2-  O512  1  0.66722509  0.58551909  0.97899722  1
  O2-  O513  1  0.69616155  0.88832987  0.27425421  1
  O2-  O514  1  0.67031190  0.83598149  0.63961079  1
  O2-  O515  1  0.66555212  0.82888647  0.97169214  1
  O2-  O516  1  0.88222605  0.02824121  0.33206467  1
  O2-  O517  1  0.90628785  0.09697736  0.64962750  1
  O2-  O518  1  0.92778219  0.09066232  0.97269687  1
  O2-  O519  1  0.91986813  0.35374762  0.32623010  1
  O2-  O520  1  0.91775105  0.34403597  0.66495119  1
  O2-  O521  1  0.93676343  0.34955789  0.98008084  1
  O2-  O522  1  0.92195223  0.59491919  0.31593498  1
  O2-  O523  1  0.91827417  0.57700113  0.64693500  1
  O2-  O524  1  0.91156387  0.56522178  0.97113107  1
  O2-  O525  1  0.84162998  0.76462816  0.30645795  1
  O2-  O526  1  0.89134024  0.82186554  0.65757072  1
  O2-  O527  1  0.96648466  0.81411693  0.99280187  1
  O2-  O528  1  0.09826496  0.17363731  0.00785441  1
  O2-  O529  1  0.06074481  0.15679317  0.35575310  1
  O2-  O530  1  0.07082463  0.16979891  0.68391879  1
  O2-  O531  1  0.09699989  0.42513736  0.01777929  1
  O2-  O532  1  0.07817329  0.41414942  0.32146882  1
  O2-  O533  1  0.08133575  0.42385254  0.69608198  1
  O2-  O534  1  0.07460408  0.65280849  0.01597287  1
  O2-  O535  1  0.08682675  0.65377171  0.35552088  1
  O2-  O536  1  0.08743335  0.66994053  0.68163232  1
  O2-  O537  1  0.12681313  0.92735314  0.03836253  1
  O2-  O538  1  0.06181235  0.94593475  0.36402270  1
  O2-  O539  1  0.06081631  0.90635010  0.64883775  1
  O2-  O540  1  0.32827817  0.18011109  0.02186268  1
  O2-  O541  1  0.32899424  0.18087336  0.36430464  1
  O2-  O542  1  0.36884955  0.20408309  0.69452889  1
  O2-  O543  1  0.33704275  0.42376628  0.01908745  1
  O2-  O544  1  0.32302740  0.41274098  0.35609741  1
  O2-  O545  1  0.32492205  0.42674242  0.68996566  1
  O2-  O546  1  0.34997283  0.66078750  0.01987192  1
  O2-  O547  1  0.32554551  0.64703984  0.35840313  1
  O2-  O548  1  0.30762871  0.62315012  0.69512231  1
  O2-  O549  1  0.33570532  0.89433708  0.01443804  1
  O2-  O550  1  0.33262064  0.90625536  0.35840535  1
  O2-  O551  1  0.33125222  0.91801349  0.68523797  1
  O2-  O552  1  0.58595082  0.15455327  0.01069979  1
  O2-  O553  1  0.61156698  0.24840926  0.38367118  1
  O2-  O554  1  0.59901423  0.17525658  0.69413683  1
  O2-  O555  1  0.58252854  0.42112887  0.01666989  1
  O2-  O556  1  0.58601605  0.43436951  0.36112476  1
  O2-  O557  1  0.61157233  0.43859179  0.70056459  1
  O2-  O558  1  0.58977704  0.67096550  0.02499414  1
  O2-  O559  1  0.57516109  0.65976025  0.35367451  1
  O2-  O560  1  0.59528300  0.67607527  0.68718104  1
  O2-  O561  1  0.60649236  0.92413085  0.02676123  1
  O2-  O562  1  0.59549076  0.90884322  0.35261524  1
  O2-  O563  1  0.56316270  0.88766391  0.69554611  1
  O2-  O564  1  0.85598626  0.18080406  -0.00757702  1
  O2-  O565  1  0.82622322  0.13677717  0.39084325  1
  O2-  O566  1  0.83906283  0.18097342  0.70408580  1
  O2-  O567  1  0.85049840  0.41173745  0.01858161  1
  O2-  O568  1  0.84267353  0.43570216  0.36454337  1
  O2-  O569  1  0.85179669  0.43047490  0.71564735  1
  O2-  O570  1  0.83266715  0.64847192  0.02044578  1
  O2-  O571  1  0.90737221  0.66284200  0.34180783  1
  O2-  O572  1  0.83210695  0.65493779  0.69015288  1
  O2-  O573  1  0.81236595  0.92997629  0.01957935  1
  O2-  O574  1  0.83735962  0.93295672  0.33616009  1
  O2-  O575  1  0.82871109  0.93291583  0.69040236  1
