# generated using pymatgen
data_H2O
_symmetry_space_group_name_H-M   'P 1'
_cell_length_a   17.99815803
_cell_length_b   17.99319542
_cell_length_c   22.00645107
_cell_angle_alpha   90.00938445
_cell_angle_beta   89.99666547
_cell_angle_gamma   120.00084364
_symmetry_Int_Tables_number   1
_chemical_formula_structural   H2O
_chemical_formula_sum   'H384 O192'
_cell_volume   6171.82071564
_cell_formula_units_Z   192
loop_
 _symmetry_equiv_pos_site_id
 _symmetry_equiv_pos_as_xyz
  1  'x, y, z'
loop_
 _atom_type_symbol
 _atom_type_oxidation_number
  H+  1.0
  O2-  -2.0
loop_
 _atom_site_type_symbol
 _atom_site_label
 _atom_site_symmetry_multiplicity
 _atom_site_fract_x
 _atom_site_fract_y
 _atom_site_fract_z
 _atom_site_occupancy
  H+  H0  1  0.83768400  0.67863954  0.43399592  1
  H+  H1  1  0.11173417  0.87580968  0.67106651  1
  H+  H2  1  0.66161736  0.58289791  0.60102256  1
  H+  H3  1  0.78343136  0.15014738  0.49277632  1
  H+  H4  1  0.13225242  0.38861598  0.00181918  1
  H+  H5  1  0.96973610  0.91120101  0.27990024  1
  H+  H6  1  0.11995318  0.23197914  0.15418029  1
  H+  H7  1  0.36324806  0.36692496  0.17989354  1
  H+  H8  1  0.11637702  -0.02385226  0.82249050  1
  H+  H9  1  0.47659950  0.09930972  0.84496814  1
  H+  H10  1  0.60821690  0.87044992  0.67624598  1
  H+  H11  1  0.37950028  0.60622465  0.33421198  1
  H+  H12  1  0.38405529  0.85564024  0.66067041  1
  H+  H13  1  0.60249604  0.63243043  0.16256981  1
  H+  H14  1  0.27140528  0.38385306  0.49999967  1
  H+  H15  1  0.52387993  0.14465684  0.33718255  1
  H+  H16  1  0.62261165  0.75486539  0.65671569  1
  H+  H17  1  0.24096185  0.60187077  0.51209186  1
  H+  H18  1  0.35985961  0.64416688  0.17086160  1
  H+  H19  1  0.86493785  0.63750723  0.81385057  1
  H+  H20  1  0.14014257  0.12912714  -0.01389177  1
  H+  H21  1  0.52800294  0.14482599  0.14323503  1
  H+  H22  1  0.10665882  0.37930984  0.78566148  1
  H+  H23  1  0.13671757  0.51554576  0.67198131  1
  H+  H24  1  0.60759817  0.37954597  0.82520793  1
  H+  H25  1  0.35972879  0.89208535  0.15811102  1
  H+  H26  1  0.75642219  0.86814042  0.18702309  1
  H+  H27  1  0.86960348  0.23059813  -0.00229622  1
  H+  H28  1  0.41075672  0.11007792  0.65871096  1
  H+  H29  1  0.89219113  0.26533325  0.32047463  1
  H+  H30  1  0.22432345  0.61015641  0.82801253  1
  H+  H31  1  0.61018805  0.64039220  1.01344322  1
  H+  H32  1  0.35215048  0.13788187  0.00678882  1
  H+  H33  1  0.04364816  0.90567033  0.35051975  1
  H+  H34  1  0.11409133  0.63365174  0.84265644  1
  H+  H35  1  0.28075220  0.13512938  0.50676147  1
  H+  H36  1  0.00140620  0.38636769  0.34054575  1
  H+  H37  1  0.50746774  0.87668862  0.16124921  1
  H+  H38  1  0.35878561  0.98032676  0.15348351  1
  H+  H39  1  0.25236430  0.60583019  0.34402612  1
  H+  H40  1  0.27048770  0.89139205  0.00273387  1
  H+  H41  1  0.98194010  0.11103936  0.51675342  1
  H+  H42  1  0.77079496  0.38293598  0.82183342  1
  H+  H43  1  0.17480906  0.82719802  0.57019559  1
  H+  H44  1  0.42159895  0.33357550  0.59990555  1
  H+  H45  1  0.13684310  1.04356739  0.32525754  1
  H+  H46  1  0.14451622  0.72629451  0.34168739  1
  H+  H47  1  0.61920233  0.14844688  0.49082961  1
  H+  H48  1  0.39139798  0.11000807  0.50971091  1
  H+  H49  1  0.26762991  0.38083240  0.82238983  1
  H+  H50  1  0.71361700  0.84791816  0.66157746  1
  H+  H51  1  0.90771970  0.86469137  0.82692136  1
  H+  H52  1  0.11754148  0.50079755  0.98184077  1
  H+  H53  1  0.13239166  0.37147938  0.32819125  1
  H+  H54  1  0.36181052  0.71906585  0.67199667  1
  H+  H55  1  0.64755327  0.04075116  0.50060739  1
  H+  H56  1  0.47774472  0.60802781  -0.00945293  1
  H+  H57  1  0.27486426  0.38880393  0.01306552  1
  H+  H58  1  0.22249048  0.11936101  0.98975641  1
  H+  H59  1  0.86756474  0.72337996  0.33636119  1
  H+  H60  1  0.97297368  0.60971704  0.83735677  1
  H+  H61  1  0.40801866  0.06707782  0.89908633  1
  H+  H62  1  0.87633018  0.73415516  0.99508129  1
  H+  H63  1  0.90248969  0.36513069  0.98082135  1
  H+  H64  1  0.77516328  0.63965208  0.33897710  1
  H+  H65  1  0.13413988  0.35799121  0.50986580  1
  H+  H66  1  0.41522003  0.80535243  0.32032338  1
  H+  H67  1  0.89532338  0.37899880  0.65993615  1
  H+  H68  1  0.61616367  0.47245961  0.82231557  1
  H+  H69  1  0.35747885  0.47459974  0.50293604  1
  H+  H70  1  0.55291153  0.37106225  0.16038210  1
  H+  H71  1  0.53518323  0.13922699  0.67612920  1
  H+  H72  1  0.52406318  0.13746833  0.49309094  1
  H+  H73  1  0.13568244  0.76985902  0.85218173  1
  H+  H74  1  0.02874239  0.13473734  0.81729278  1
  H+  H75  1  0.69222134  0.85709210  0.82469372  1
  H+  H76  1  0.11376905  0.48088846  0.15410183  1
  H+  H77  1  0.38046133  0.27455047  0.98944965  1
  H+  H78  1  0.13491195  0.76863842  0.66046730  1
  H+  H79  1  0.59800966  0.71434070  0.81876543  1
  H+  H80  1  0.14711564  1.01371173  0.51665157  1
  H+  H81  1  0.36803884  0.72846138  1.00997851  1
  H+  H82  1  0.39200149  0.87956073  0.32699648  1
  H+  H83  1  0.35266810  0.48215498  0.16268628  1
  H+  H84  1  0.92433523  0.06074589  0.98075987  1
  H+  H85  1  0.78986485  0.64319864  -0.00848862  1
  H+  H86  1  0.86962740  0.85622009  0.50704795  1
  H+  H87  1  0.28544227  0.15545699  0.82172732  1
  H+  H88  1  0.85794935  0.14744313  0.67633303  1
  H+  H89  1  0.38158126  0.36541163  -0.00374782  1
  H+  H90  1  0.14011365  0.10050423  0.51861178  1
  H+  H91  1  0.22145629  0.62000303  0.17117936  1
  H+  H92  1  0.88222288  -0.01701109  0.82920937  1
  H+  H93  1  0.37404615  0.23761137  0.35506008  1
  H+  H94  1  0.53678072  0.91014312  0.34070442  1
  H+  H95  1  0.11801908  0.12027280  0.31656898  1
  H+  H96  1  0.61530822  0.47476011  0.15839857  1
  H+  H97  1  0.61914427  0.39377058  0.34547260  1
  H+  H98  1  0.86061114  0.48223326  0.66472459  1
  H+  H99  1  0.87335229  0.60339865  0.16216036  1
  H+  H100  1  0.46656292  0.85412307  0.84023537  1
  H+  H101  1  0.61401423  0.48077229  0.67046411  1
  H+  H102  1  0.62455134  0.26693316  0.50596500  1
  H+  H103  1  0.38382031  0.77846593  0.17537979  1
  H+  H104  1  0.86606068  0.22503670  0.82788048  1
  H+  H105  1  0.64140993  0.12396125  0.32686170  1
  H+  H106  1  0.38073441  0.51894342  0.33126548  1
  H+  H107  1  0.29023326  0.63393704  0.02231164  1
  H+  H108  1  0.77527037  0.14188487  0.34071375  1
  H+  H109  1  0.63914075  0.36725735  0.65683153  1
  H+  H110  1  0.35153187  0.61506993  0.50819481  1
  H+  H111  1  0.88792853  0.53753215  0.49085169  1
  H+  H112  1  0.14084292  0.11669414  0.16241777  1
  H+  H113  1  0.51408856  0.54451062  0.45566789  1
  H+  H114  1  0.47088951  0.60241424  0.83366717  1
  H+  H115  1  0.60946748  0.63173099  0.81886124  1
  H+  H116  1  0.97526772  0.36266151  0.81946150  1
  H+  H117  1  0.89152819  0.28168666  0.16358274  1
  H+  H118  1  0.27242925  0.87833557  0.81757447  1
  H+  H119  1  0.62074748  0.76614426  0.33081272  1
  H+  H120  1  0.90818059  0.96597202  0.05899180  1
  H+  H121  1  0.09650270  0.79522235  0.31588661  1
  H+  H122  1  0.39538154  0.52733735  0.65966380  1
  H+  H123  1  0.91101200  0.58550644  0.59191035  1
  H+  H124  1  0.90040823  0.13519098  0.98422220  1
  H+  H125  1  0.71190534  0.85116855  0.32509247  1
  H+  H126  1  -0.01130149  0.61141007  0.34948623  1
  H+  H127  1  0.37280645  1.01207036  0.32528629  1
  H+  H128  1  0.86573157  0.09577124  0.32931404  1
  H+  H129  1  0.89184499  0.11387282  0.82800190  1
  H+  H130  1  0.13255013  0.50435215  0.51349164  1
  H+  H131  1  0.60735914  0.97316577  0.01334937  1
  H+  H132  1  0.36903232  0.47563182  1.01051640  1
  H+  H133  1  0.37305880  0.85428758  0.99226965  1
  H+  H134  1  0.87454924  0.84890905  0.99959683  1
  H+  H135  1  0.59894095  -0.02794493  0.82679551  1
  H+  H136  1  0.18488096  0.60018683  0.96679374  1
  H+  H137  1  0.83070826  0.16906600  0.76859218  1
  H+  H138  1  0.78068363  0.38529095  0.15486654  1
  H+  H139  1  0.87262473  0.64890164  0.49147574  1
  H+  H140  1  0.39023628  0.38357424  0.84171569  1
  H+  H141  1  0.46541376  0.86108173  0.99440701  1
  H+  H142  1  0.64057872  0.28622172  0.33402489  1
  H+  H143  1  1.02298964  0.88508808  0.16317549  1
  H+  H144  1  0.89791959  0.28540316  0.50890044  1
  H+  H145  1  1.02011537  0.63816498  0.66498456  1
  H+  H146  1  0.22095400  0.36796115  0.17306626  1
  H+  H147  1  0.64559170  0.88058266  0.51050686  1
  H+  H148  1  0.53557368  0.90262082  0.49673858  1
  H+  H149  1  0.39023922  0.27427079  0.50958371  1
  H+  H150  1  0.60490023  0.85600456  0.83107031  1
  H+  H151  1  0.64589145  0.52069426  0.50622309  1
  H+  H152  1  0.64572093  0.03711573  0.33071104  1
  H+  H153  1  0.76176254  0.63732730  0.66713871  1
  H+  H154  1  0.62187137  0.10549403  0.65939265  1
  H+  H155  1  0.13248789  0.86407526  0.17901014  1
  H+  H156  1  0.13418256  0.88931223  0.50084798  1
  H+  H157  1  0.90014860  0.76850840  0.81920657  1
  H+  H158  1  0.14099589  0.25784112  0.00391397  1
  H+  H159  1  0.84205455  0.95954378  0.46679167  1
  H+  H160  1  0.10521315  0.72503169  0.16401837  1
  H+  H161  1  0.49180089  0.62029699  0.65752853  1
  H+  H162  1  0.52424855  0.38604941  0.49352182  1
  H+  H163  1  0.35916240  0.23186545  0.16194859  1
  H+  H164  1  0.13526498  0.91501050  0.34255461  1
  H+  H165  1  0.81265834  0.88721754  0.39396802  1
  H+  H166  1  0.89842681  0.60337310  0.34979052  1
  H+  H167  1  0.66335441  0.36919840  0.15096862  1
  H+  H168  1  0.51532951  0.39009033  0.00016119  1
  H+  H169  1  0.56529117  0.14566363  -0.05408787  1
  H+  H170  1  0.63623942  0.26987091  0.84053511  1
  H+  H171  1  0.75491139  0.87790055  0.49738892  1
  H+  H172  1  0.39144065  1.02027789  0.50384999  1
  H+  H173  1  0.87179903  0.48948725  0.16343056  1
  H+  H174  1  0.18235351  0.11612658  0.67345156  1
  H+  H175  1  0.82005011  0.95299808  0.03593439  1
  H+  H176  1  0.99744637  0.13303474  0.33862746  1
  H+  H177  1  0.32458022  0.69637626  0.36583780  1
  H+  H178  1  0.72935825  0.36841693  0.65297953  1
  H+  H179  1  0.26713324  0.38679690  0.34571245  1
  H+  H180  1  0.59835592  0.60620477  0.48963699  1
  H+  H181  1  0.63855204  0.61288915  0.32243805  1
  H+  H182  1  0.89968336  0.02577103  0.53562776  1
  H+  H183  1  0.38513981  0.36733395  0.33771643  1
  H+  H184  1  0.36569256  0.38063519  0.67075899  1
  H+  H185  1  0.72983605  0.61440320  0.50515960  1
  H+  H186  1  0.69298208  0.60062956  1.04829029  1
  H+  H187  1  0.84329403  0.95665941  0.33960298  1
  H+  H188  1  0.11951580  -0.03198415  0.67160097  1
  H+  H189  1  0.61350068  0.76247354  0.17975811  1
  H+  H190  1  1.02363609  0.38285546  0.50182654  1
  H+  H191  1  0.27947871  0.88076858  0.49755026  1
  H+  H192  1  0.36897802  0.96711593  0.66877222  1
  H+  H193  1  0.13760878  0.85777150  0.83406117  1
  H+  H194  1  0.21656925  0.95623219  0.95684777  1
  H+  H195  1  0.72934166  0.10427249  0.84138351  1
  H+  H196  1  0.89383878  0.87183217  0.32579918  1
  H+  H197  1  0.71583229  0.60569463  0.16566051  1
  H+  H198  1  0.60764673  -0.03995163  0.67430992  1
  H+  H199  1  0.08634458  0.13466227  0.64763339  1
  H+  H200  1  0.86899004  0.84192197  0.18048196  1
  H+  H201  1  0.57621345  0.41619066  1.05909779  1
  H+  H202  1  0.88993421  0.61324505  0.98134280  1
  H+  H203  1  0.11330406  0.39126530  0.15711848  1
  H+  H204  1  0.96780959  0.12333946  0.67294170  1
  H+  H205  1  0.45617841  0.38526007  0.18644174  1
  H+  H206  1  0.11751280  0.23204010  0.66684719  1
  H+  H207  1  1.04712956  0.17225868  0.99773906  1
  H+  H208  1  0.13820649  0.10503068  0.83349409  1
  H+  H209  1  0.38826931  0.36318420  0.50670029  1
  H+  H210  1  0.69881819  0.85171928  0.97586227  1
  H+  H211  1  0.38004020  0.74822675  0.83768197  1
  H+  H212  1  0.22635684  0.85812254  0.66137039  1
  H+  H213  1  0.12899101  0.23338849  0.49469245  1
  H+  H214  1  0.48817002  0.38441947  0.84242251  1
  H+  H215  1  0.36272308  0.96318610  0.81963288  1
  H+  H216  1  0.52826125  0.39347774  0.34392250  1
  H+  H217  1  0.11173121  -0.02382957  0.16716695  1
  H+  H218  1  0.59923348  0.72328453  1.00533950  1
  H+  H219  1  0.36640871  0.63197474  0.82438344  1
  H+  H220  1  0.64315316  0.10885535  0.99444861  1
  H+  H221  1  0.86122936  0.47403251  0.98139631  1
  H+  H222  1  1.01207778  0.62984398  1.00991003  1
  H+  H223  1  0.12424602  0.51252856  0.32106736  1
  H+  H224  1  0.09051591  0.91675828  0.75874503  1
  H+  H225  1  0.37213914  1.01512481  0.00011279  1
  H+  H226  1  0.89807682  0.06592169  0.27118442  1
  H+  H227  1  0.14208765  0.35782708  0.66953957  1
  H+  H228  1  0.86928286  0.14522667  0.49591554  1
  H+  H229  1  0.66693162  0.83890538  0.56868225  1
  H+  H230  1  0.61608252  0.89392053  0.34303352  1
  H+  H231  1  0.11140960  0.62687666  0.49940938  1
  H+  H232  1  0.38612134  0.22361560  0.66728440  1
  H+  H233  1  0.85384175  0.72533535  0.66544077  1
  H+  H234  1  0.62668580  0.36409670  0.99283484  1
  H+  H235  1  0.89023420  0.86890546  0.65918777  1
  H+  H236  1  0.45641610  0.10670670  0.99639634  1
  H+  H237  1  0.40101419  0.77781888  0.51087394  1
  H+  H238  1  0.59564448  0.87962165  0.00626420  1
  H+  H239  1  0.60480815  0.22594104  -0.01136821  1
  H+  H240  1  0.39192255  0.61053638  0.99136932  1
  H+  H241  1  -0.00562180  0.13431561  0.17098613  1
  H+  H242  1  0.14665407  0.76818160  0.51000017  1
  H+  H243  1  0.62389533  0.36269005  0.50479477  1
  H+  H244  1  0.09626953  -0.01175919  1.00422958  1
  H+  H245  1  0.84826551  0.71347666  0.14712761  1
  H+  H246  1  0.02615582  0.46676745  0.38201925  1
  H+  H247  1  0.64645359  1.03696757  0.17572380  1
  H+  H248  1  0.56660623  0.91147407  0.76608857  1
  H+  H249  1  0.10591648  0.63442178  0.67117530  1
  H+  H250  1  0.72533656  0.37124432  0.35015333  1
  H+  H251  1  0.47265808  0.85265029  0.66371707  1
  H+  H252  1  0.08796067  0.61261624  1.01292218  1
  H+  H253  1  0.87836755  0.61351916  0.65065548  1
  H+  H254  1  0.88305819  0.52150307  0.82621102  1
  H+  H255  1  0.38887838  0.12058632  0.16473062  1
  H+  H256  1  0.36712404  0.63255154  0.67314362  1
  H+  H257  1  0.86120096  0.38436665  0.81885764  1
  H+  H258  1  0.96585587  0.61195887  0.17182918  1
  H+  H259  1  0.73351742  0.61620568  0.82907375  1
  H+  H260  1  0.13478331  0.63325720  0.33785384  1
  H+  H261  1  0.71579089  0.36164095  0.99103720  1
  H+  H262  1  -0.01735187  0.36955650  0.16579364  1
  H+  H263  1  0.38287835  0.15450547  0.35839742  1
  H+  H264  1  0.35471622  0.47238674  0.82405151  1
  H+  H265  1  0.59960110  0.86662745  0.16640054  1
  H+  H266  1  0.97783249  0.86384852  0.65641050  1
  H+  H267  1  0.51835217  0.63176058  0.33669886  1
  H+  H268  1  0.48134976  0.36351261  0.65875323  1
  H+  H269  1  0.46614778  0.61378046  0.17801980  1
  H+  H270  1  0.65451582  0.27621776  0.14908782  1
  H+  H271  1  0.07688480  0.65195568  0.90158814  1
  H+  H272  1  0.30498326  0.12941274  0.67024619  1
  H+  H273  1  0.26802713  0.87823217  0.34514630  1
  H+  H274  1  0.01781323  0.37640733  0.68747724  1
  H+  H275  1  0.23331045  0.36031318  0.66314137  1
  H+  H276  1  1.09845986  0.90310639  1.01023505  1
  H+  H277  1  0.84324821  0.17374349  0.05918971  1
  H+  H278  1  0.87972868  0.39594501  0.16334649  1
  H+  H279  1  0.87952404  0.15518410  0.15249189  1
  H+  H280  1  0.73206962  0.10904307  0.99694124  1
  H+  H281  1  0.81405396  0.89028280  0.85266393  1
  H+  H282  1  0.22555261  0.60351257  0.66582576  1
  H+  H283  1  0.08078149  0.41522636  0.44066972  1
  H+  H284  1  0.62548096  0.61568437  0.65659373  1
  H+  H285  1  0.46225971  0.60322722  0.51158004  1
  H+  H286  1  0.33483591  0.41056656  0.72943019  1
  H+  H287  1  0.12919131  0.61494301  0.17326640  1
  H+  H288  1  0.93103138  0.09803052  0.88777507  1
  H+  H289  1  0.87572665  0.76300464  0.50539036  1
  H+  H290  1  0.32999145  0.42190622  0.10262681  1
  H+  H291  1  0.16550902  0.32988116  0.57016410  1
  H+  H292  1  0.82994070  0.66069455  0.08521075  1
  H+  H293  1  0.07300496  0.66207270  0.10565318  1
  H+  H294  1  0.32384303  0.90699741  0.06539019  1
  H+  H295  1  0.09441622  0.17970283  0.09148732  1
  H+  H296  1  0.77230860  0.15248680  0.67387318  1
  H+  H297  1  0.57329014  0.90354531  0.09952962  1
  H+  H298  1  0.09001306  0.16264375  0.75931758  1
  H+  H299  1  0.63332884  0.52585028  1.00470213  1
  H+  H300  1  0.90916010  0.80234231  0.22463089  1
  H+  H301  1  0.63378232  0.82216571  0.92186131  1
  H+  H302  1  0.40701779  0.58313094  0.23774022  1
  H+  H303  1  0.62229631  0.23002405  0.67588779  1
  H+  H304  1  0.32881406  0.17564898  0.06455310  1
  H+  H305  1  0.82053964  0.90657768  0.13301837  1
  H+  H306  1  0.41411675  0.57695732  0.89502397  1
  H+  H307  1  0.67136936  0.07277662  0.90150065  1
  H+  H308  1  0.67650825  0.58763726  0.88867783  1
  H+  H309  1  0.98019400  0.61930777  0.49861219  1
  H+  H310  1  0.12888529  0.26657264  0.82315219  1
  H+  H311  1  0.97247010  0.18134673  0.22042968  1
  H+  H312  1  0.96948674  0.86812099  0.99150301  1
  H+  H313  1  0.88798243  0.28728947  0.66296594  1
  H+  H314  1  0.63804803  0.82286156  0.24090006  1
  H+  H315  1  0.62064707  0.13416918  0.83129405  1
  H+  H316  1  0.59351489  0.93255153  0.43646440  1
  H+  H317  1  0.34116460  0.17048441  0.44699175  1
  H+  H318  1  0.42478361  0.83431062  0.57062372  1
  H+  H319  1  0.99050538  0.36206382  0.98543618  1
  H+  H320  1  0.56679068  0.02726948  0.61795849  1
  H+  H321  1  0.66072930  0.33293898  0.89756337  1
  H+  H322  1  0.16630761  0.57269277  0.25964868  1
  H+  H323  1  0.15149386  0.55636398  0.87618525  1
  H+  H324  1  0.16066340  0.18673176  0.45054053  1
  H+  H325  1  0.10804880  0.92725009  0.44426877  1
  H+  H326  1  0.67209043  0.09732190  0.55980976  1
  H+  H327  1  0.35011030  0.18670748  0.76836812  1
  H+  H328  1  0.12854040  0.33014675  0.87276073  1
  H+  H329  1  0.40764599  0.33519064  0.27745499  1
  H+  H330  1  0.33279211  0.90804838  0.72898767  1
  H+  H331  1  0.41314230  0.58303953  0.57782899  1
  H+  H332  1  0.42400620  0.35621323  0.90941655  1
  H+  H333  1  0.37090949  0.88563848  0.49481714  1
  H+  H334  1  0.64132763  0.52585679  0.32636932  1
  H+  H335  1  0.09156087  0.41663107  0.05828244  1
  H+  H336  1  0.91243861  0.09607473  0.61371502  1
  H+  H337  1  0.92913583  0.34422446  0.56877828  1
  H+  H338  1  0.16025069  0.33556646  0.23169030  1
  H+  H339  1  0.58490856  0.41697467  0.72799332  1
  H+  H340  1  0.22218093  0.86340581  0.17404160  1
  H+  H341  1  0.20340977  0.35419588  0.94474274  1
  H+  H342  1  0.83949508  0.17047475  0.39821521  1
  H+  H343  1  0.58640819  0.41629706  0.43380009  1
  H+  H344  1  0.34033131  0.06721996  0.29247593  1
  H+  H345  1  0.93360716  0.34106563  0.88697731  1
  H+  H346  1  0.16369855  0.83246441  0.26143111  1
  H+  H347  1  0.40692220  0.81535449  0.90413211  1
  H+  H348  1  0.81945565  0.39691702  0.93693173  1
  H+  H349  1  0.32626108  0.41711963  0.40588137  1
  H+  H350  1  0.06273935  0.16928843  0.39460167  1
  H+  H351  1  0.18421722  0.07891258  0.60653124  1
  H+  H352  1  0.85664247  0.97678341  0.67837115  1
  H+  H353  1  0.42443860  0.08796039  0.21879012  1
  H+  H354  1  0.30873159  0.63225079  0.44606261  1
  H+  H355  1  0.57249601  0.66544838  0.10496155  1
  H+  H356  1  0.92318291  0.32790954  0.26108685  1
  H+  H357  1  0.42089998  0.84990834  0.22957299  1
  H+  H358  1  1.00669992  0.86858981  0.81977733  1
  H+  H359  1  0.34096266  0.66724937  0.76378530  1
  H+  H360  1  0.83167972  0.66753421  0.75519501  1
  H+  H361  1  0.34112194  0.67783204  0.10926142  1
  H+  H362  1  0.90818000  0.83136430  0.56979809  1
  H+  H363  1  0.66340770  0.57833671  0.22893982  1
  H+  H364  1  0.78630304  0.14252618  0.15470614  1
  H+  H365  1  0.83139425  0.42172012  0.72442523  1
  H+  H366  1  0.43611518  0.07798226  0.59890330  1
  H+  H367  1  0.65736494  0.33170381  0.56989507  1
  H+  H368  1  0.59083358  0.16610791  0.77352782  1
  H+  H369  1  0.16388911  0.09088507  0.22598409  1
  H+  H370  1  0.83270676  0.91292416  0.73381559  1
  H+  H371  1  0.68849159  0.08799070  0.23651797  1
  H+  H372  1  0.09826984  0.66290086  0.43676391  1
  H+  H373  1  0.91380659  0.58138648  0.92066998  1
  H+  H374  1  0.12027278  0.27829634  0.32811802  1
  H+  H375  1  0.16312557  0.07666801  0.89509396  1
  H+  H376  1  0.27299600  0.14081170  0.15938390  1
  H+  H377  1  0.57633044  0.66137469  0.71744417  1
  H+  H378  1  0.57510621  0.65187267  0.39556748  1
  H+  H379  1  0.33035961  0.91014962  0.40397261  1
  H+  H380  1  0.17745960  0.86620583  0.92620208  1
  H+  H381  1  0.16342856  0.56501862  0.57691227  1
  H+  H382  1  0.58276054  0.16102773  0.08426240  1
  H+  H383  1  0.57939741  0.17069705  0.39792898  1
  O2-  O384  1  0.09074007  0.17260084  0.13709052  1
  O2-  O385  1  0.11008775  0.17604453  0.47404889  1
  O2-  O386  1  0.09041147  0.16506331  0.80434064  1
  O2-  O387  1  0.08423925  0.42073784  0.13832742  1
  O2-  O388  1  0.08692415  0.41290247  0.48548687  1
  O2-  O389  1  0.07012341  0.40207405  0.76959992  1
  O2-  O390  1  0.07414081  0.66344104  0.15144230  1
  O2-  O391  1  0.08889257  0.66201754  0.48171549  1
  O2-  O392  1  0.08014038  0.66167433  0.85769484  1
  O2-  O393  1  0.08591788  0.91291538  0.16355999  1
  O2-  O394  1  0.10704473  0.92387666  0.48918814  1
  O2-  O395  1  0.08717804  0.91472561  0.80507537  1
  O2-  O396  1  0.33454387  0.17349160  0.14457318  1
  O2-  O397  1  0.34165618  0.16787481  0.49306066  1
  O2-  O398  1  0.33615191  0.20671131  0.80597161  1
  O2-  O399  1  0.32296775  0.42128035  0.14843166  1
  O2-  O400  1  0.33159508  0.41608573  0.48425107  1
  O2-  O401  1  0.32911663  0.41103425  0.81032695  1
  O2-  O402  1  0.33368194  0.67808889  0.15410421  1
  O2-  O403  1  0.31240185  0.63870515  0.49158483  1
  O2-  O404  1  0.34081917  0.66780027  0.81007064  1
  O2-  O405  1  0.32589271  0.91787658  0.14256987  1
  O2-  O406  1  0.33865003  0.91315765  0.47872655  1
  O2-  O407  1  0.33047123  0.90586949  0.79955728  1
  O2-  O408  1  0.58767248  0.17354242  0.12758207  1
  O2-  O409  1  0.58454487  0.17531947  0.47764339  1
  O2-  O410  1  0.59060752  0.16559160  0.81890922  1
  O2-  O411  1  0.59488497  0.41861920  0.13584121  1
  O2-  O412  1  0.58594882  0.41358050  0.48004187  1
  O2-  O413  1  0.57848171  0.41137072  0.81024669  1
  O2-  O414  1  0.57192809  0.66366418  0.15039134  1
  O2-  O415  1  0.54791263  0.60449897  0.46814224  1
  O2-  O416  1  0.57134614  0.65379470  0.80572610  1
  O2-  O417  1  0.57059496  0.90069204  0.14613064  1
  O2-  O418  1  0.59582775  0.93639993  0.48192485  1
  O2-  O419  1  0.56189387  0.91158950  0.81197057  1
  O2-  O420  1  0.84410280  0.17822871  0.13470086  1
  O2-  O421  1  0.84407057  0.17755780  0.47785769  1
  O2-  O422  1  0.83522395  0.16397738  0.81347926  1
  O2-  O423  1  0.84765034  0.42520598  0.14717364  1
  O2-  O424  1  0.81915426  0.42628202  0.46083141  1
  O2-  O425  1  0.83036893  0.41473791  0.80531889  1
  O2-  O426  1  0.81524545  0.65410320  0.12956757  1
  O2-  O427  1  0.83994708  0.67941920  0.47991278  1
  O2-  O428  1  0.83726033  0.67190383  0.80112589  1
  O2-  O429  1  0.81797454  0.89558500  0.17695163  1
  O2-  O430  1  0.81699401  0.89859332  0.47578569  1
  O2-  O431  1  0.85325825  0.91922948  0.81895397  1
  O2-  O432  1  0.17032110  0.08751980  0.18071424  1
  O2-  O433  1  0.17417328  0.07559477  0.53416754  1
  O2-  O434  1  0.16219150  0.06988096  0.84974109  1
  O2-  O435  1  0.15946068  0.33452307  0.18660042  1
  O2-  O436  1  0.16551928  0.32820410  0.52473811  1
  O2-  O437  1  0.15264076  0.32951843  0.83310321  1
  O2-  O438  1  0.16114754  0.58420952  0.18530280  1
  O2-  O439  1  0.16655751  0.56643762  0.53034575  1
  O2-  O440  1  0.16160814  0.57899991  0.83437168  1
  O2-  O441  1  0.16342302  0.83140194  0.19180800  1
  O2-  O442  1  0.17998487  0.82868922  0.52449545  1
  O2-  O443  1  0.16930863  0.83394822  0.85573938  1
  O2-  O444  1  0.41917728  0.08776499  0.17418780  1
  O2-  O445  1  0.42458887  0.08027986  0.51974129  1
  O2-  O446  1  0.41625854  0.05924788  0.85584009  1
  O2-  O447  1  0.39788661  0.34076198  0.19631387  1
  O2-  O448  1  0.42275593  0.33695777  0.52063489  1
  O2-  O449  1  0.43885503  0.38354126  0.86616793  1
  O2-  O450  1  0.40544884  0.58648586  0.19231586  1
  O2-  O451  1  0.40442405  0.57913561  0.53023879  1
  O2-  O452  1  0.41036386  0.57560832  0.84955173  1
  O2-  O453  1  0.41836026  0.84237710  0.18441810  1
  O2-  O454  1  0.42867442  0.83764820  0.52448774  1
  O2-  O455  1  0.40855401  0.81147299  0.85808026  1
  O2-  O456  1  0.70099962  0.07689167  0.19444448  1
  O2-  O457  1  0.67788718  0.10227943  0.51493857  1
  O2-  O458  1  0.66861636  0.07305665  0.85631239  1
  O2-  O459  1  0.69050993  0.33641508  0.16466504  1
  O2-  O460  1  0.65157133  0.32842075  0.52299713  1
  O2-  O461  1  0.66418773  0.33216167  0.85237389  1
  O2-  O462  1  0.65658928  0.57505990  0.18343895  1
  O2-  O463  1  0.66944680  0.58143276  0.51951412  1
  O2-  O464  1  0.67271890  0.58332983  0.84445287  1
  O2-  O465  1  0.63795863  0.82335939  0.19464267  1
  O2-  O466  1  0.67414330  0.84793922  0.52349119  1
  O2-  O467  1  0.63644490  0.82490296  0.84455895  1
  O2-  O468  1  0.94500278  0.12869198  0.19641406  1
  O2-  O469  1  0.92397040  0.08801681  0.53354642  1
  O2-  O470  1  0.92503858  0.08595849  0.84303481  1
  O2-  O471  1  0.92240903  0.34042872  0.18222525  1
  O2-  O472  1  0.93385377  0.34499310  0.52378646  1
  O2-  O473  1  0.92056728  0.33544530  0.84244167  1
  O2-  O474  1  0.90345837  0.57606349  0.18152606  1
  O2-  O475  1  0.91889615  0.59404796  0.51134080  1
  O2-  O476  1  0.90920819  0.58190317  0.84142094  1
  O2-  O477  1  0.90329984  0.81121328  0.18133297  1
  O2-  O478  1  0.90132332  0.82690448  0.52319271  1
  O2-  O479  1  0.93726570  0.83089070  0.83409831  1
  O2-  O480  1  0.15160899  0.09497847  0.30061197  1
  O2-  O481  1  0.19135637  0.07386319  0.65204269  1
  O2-  O482  1  0.16328825  0.09125868  0.97249844  1
  O2-  O483  1  0.15966895  0.33902664  0.31488388  1
  O2-  O484  1  0.17089308  0.32959117  0.64925803  1
  O2-  O485  1  0.18907269  0.35046883  0.98765066  1
  O2-  O486  1  0.16959940  0.57014452  0.30543265  1
  O2-  O487  1  0.16522404  0.57112092  0.65007877  1
  O2-  O488  1  0.12612916  0.55503427  0.95997134  1
  O2-  O489  1  0.15820141  0.83013570  0.30860845  1
  O2-  O490  1  0.16588137  0.83064531  0.64595280  1
  O2-  O491  1  0.18917038  0.89544306  0.96731013  1
  O2-  O492  1  0.39331772  0.06874225  0.30467547  1
  O2-  O493  1  0.43939065  0.07713718  0.64417600  1
  O2-  O494  1  0.39519555  0.07520174  0.98497505  1
  O2-  O495  1  0.41670796  0.33881239  0.32211911  1
  O2-  O496  1  0.42010179  0.32968777  0.64521500  1
  O2-  O497  1  0.41156325  0.33647022  0.97584381  1
  O2-  O498  1  0.41085538  0.57963865  0.31564640  1
  O2-  O499  1  0.42241057  0.58719013  0.64472717  1
  O2-  O500  1  0.41809213  0.57844177  0.97355356  1
  O2-  O501  1  0.43240313  0.86315710  0.30652326  1
  O2-  O502  1  0.41443193  0.82465313  0.64490053  1
  O2-  O503  1  0.40619395  0.82523514  0.97798380  1
  O2-  O504  1  0.67520009  0.09651960  0.31388685  1
  O2-  O505  1  0.62489231  0.05939605  0.63464682  1
  O2-  O506  1  0.67021485  0.07417300  0.98423490  1
  O2-  O507  1  0.67149245  0.34894588  0.32720145  1
  O2-  O508  1  0.66729200  0.33537080  0.63984299  1
  O2-  O509  1  0.65429875  0.33066388  0.97861374  1
  O2-  O510  1  0.67097551  0.58485568  0.30778159  1
  O2-  O511  1  0.65985199  0.58438439  0.64606463  1
  O2-  O512  1  0.67030538  0.59055564  1.00677818  1
  O2-  O513  1  0.64981230  0.82660245  0.31451281  1
  O2-  O514  1  0.65465788  0.82182497  0.64562064  1
  O2-  O515  1  0.63737186  0.82328190  0.96755993  1
  O2-  O516  1  0.89266306  0.06044103  0.31588834  1
  O2-  O517  1  0.90706924  0.09217561  0.65864325  1
  O2-  O518  1  0.93956714  0.11667573  0.96407248  1
  O2-  O519  1  0.92647091  0.32557122  0.30603205  1
  O2-  O520  1  0.92676722  0.34747448  0.64989151  1
  O2-  O521  1  0.93101658  0.33293967  0.96734270  1
  O2-  O522  1  0.92751989  0.56998281  0.35394339  1
  O2-  O523  1  0.90941952  0.58350353  0.63716460  1
  O2-  O524  1  0.91537737  0.57812735  0.96599480  1
  O2-  O525  1  0.94164434  0.86401780  0.30893935  1
  O2-  O526  1  0.91737571  0.83728893  0.64080785  1
  O2-  O527  1  0.90820564  0.82907347  0.97700093  1
  O2-  O528  1  0.10417164  0.19254112  0.01593243  1
  O2-  O529  1  0.05880185  0.17264981  0.35009002  1
  O2-  O530  1  0.08002074  0.16887545  0.67939635  1
  O2-  O531  1  0.09228308  0.41320345  0.01305220  1
  O2-  O532  1  0.05273336  0.43486657  0.36588828  1
  O2-  O533  1  0.07893316  0.39968962  0.70287697  1
  O2-  O534  1  0.06898841  0.65139350  0.02920830  1
  O2-  O535  1  0.11580235  0.66906412  0.36047530  1
  O2-  O536  1  0.07924304  0.66899353  0.68160804  1
  O2-  O537  1  0.06235357  0.92839223  0.01970534  1
  O2-  O538  1  0.10454520  0.94046112  0.36321749  1
  O2-  O539  1  0.08166935  0.90776563  0.68563199  1
  O2-  O540  1  0.32761030  0.17472175  0.01911112  1
  O2-  O541  1  0.34945859  0.17967017  0.37401745  1
  O2-  O542  1  0.36567903  0.16424709  0.68284494  1
  O2-  O543  1  0.33971856  0.41709813  0.02858601  1
  O2-  O544  1  0.32756882  0.41768499  0.36032597  1
  O2-  O545  1  0.33408874  0.41060957  0.68419692  1
  O2-  O546  1  0.35099367  0.67180316  0.03053118  1
  O2-  O547  1  0.30761979  0.63603466  0.36966256  1
  O2-  O548  1  0.33352240  0.65965014  0.68925100  1
  O2-  O549  1  0.32835748  0.90728844  0.01993019  1
  O2-  O550  1  0.32879170  0.91063081  0.35777133  1
  O2-  O551  1  0.33389548  0.90642828  0.68217971  1
  O2-  O552  1  0.57595779  0.16105742  -0.01105349  1
  O2-  O553  1  0.58271779  0.17154213  0.35256565  1
  O2-  O554  1  0.59539655  0.17102740  0.69316734  1
  O2-  O555  1  0.57692116  0.42031392  0.01385774  1
  O2-  O556  1  0.58811479  0.42557201  0.35963878  1
  O2-  O557  1  0.58729676  0.41857243  0.68284693  1
  O2-  O558  1  0.57426807  0.66622348  0.02525705  1
  O2-  O559  1  0.57934350  0.66288713  0.35093660  1
  O2-  O560  1  0.57704223  0.66310996  0.67276885  1
  O2-  O561  1  0.57098293  0.91172181  0.02704185  1
  O2-  O562  1  0.59466452  0.93230555  0.35849310  1
  O2-  O563  1  0.57829066  0.90203797  0.69248012  1
  O2-  O564  1  0.84017310  0.16998864  0.01326256  1
  O2-  O565  1  0.83653477  0.16358699  0.35310094  1
  O2-  O566  1  0.83025516  0.18110602  0.69061893  1
  O2-  O567  1  0.82874718  0.40893976  -0.01960872  1
  O2-  O568  1  0.81906861  0.40222728  0.40721342  1
  O2-  O569  1  0.83152077  0.42084372  0.67911475  1
  O2-  O570  1  0.84864385  0.67056550  0.00773869  1
  O2-  O571  1  0.83319123  0.66990362  0.35855471  1
  O2-  O572  1  0.82408035  0.66540033  0.68055233  1
  O2-  O573  1  0.84834196  0.92261605  0.05114154  1
  O2-  O574  1  0.81691390  0.89365136  0.34899779  1
  O2-  O575  1  0.83242587  0.91524827  0.68903793  1
