# generated using pymatgen
data_H2O
_symmetry_space_group_name_H-M   'P 1'
_cell_length_a   17.99749075
_cell_length_b   18.00197977
_cell_length_c   22.00298842
_cell_angle_alpha   89.97082378
_cell_angle_beta   90.02746898
_cell_angle_gamma   119.98614731
_symmetry_Int_Tables_number   1
_chemical_formula_structural   H2O
_chemical_formula_sum   'H384 O192'
_cell_volume   6174.54649181
_cell_formula_units_Z   192
loop_
 _symmetry_equiv_pos_site_id
 _symmetry_equiv_pos_as_xyz
  1  'x, y, z'
loop_
 _atom_type_symbol
 _atom_type_oxidation_number
  H+  1.0
  O2-  -2.0
loop_
 _atom_site_type_symbol
 _atom_site_label
 _atom_site_symmetry_multiplicity
 _atom_site_fract_x
 _atom_site_fract_y
 _atom_site_fract_z
 _atom_site_occupancy
  H+  H0  1  0.86147034  0.58409560  0.31534964  1
  H+  H1  1  0.95774760  0.85982542  0.63938724  1
  H+  H2  1  0.86737486  0.98118907  0.00124159  1
  H+  H3  1  0.20851877  0.60333850  0.64911562  1
  H+  H4  1  0.54657548  0.15090034  0.62498716  1
  H+  H5  1  0.09575838  0.25480107  0.82262016  1
  H+  H6  1  0.76683266  0.37572031  0.81868735  1
  H+  H7  1  0.36248448  0.72921826  0.34939933  1
  H+  H8  1  0.86651763  0.89110898  0.00277396  1
  H+  H9  1  0.11842707  0.90876305  0.81697587  1
  H+  H10  1  0.96359660  0.34722263  0.98604412  1
  H+  H11  1  0.21189129  0.84035926  0.65272453  1
  H+  H12  1  0.62074256  0.47359169  0.48299893  1
  H+  H13  1  1.01289466  0.89639679  1.00684890  1
  H+  H14  1  0.89658792  0.61604891  0.17313014  1
  H+  H15  1  0.39295063  0.86342961  0.33593775  1
  H+  H16  1  0.76660376  0.13592769  0.51426691  1
  H+  H17  1  0.20717965  0.60438492  0.85563058  1
  H+  H18  1  0.14939642  0.04708477  0.84780568  1
  H+  H19  1  0.86487821  0.22253352  0.35048946  1
  H+  H20  1  0.61842809  0.39464255  1.00686979  1
  H+  H21  1  0.36198186  0.62248610  0.86201341  1
  H+  H22  1  0.26585679  0.91333620  0.04336297  1
  H+  H23  1  0.87452735  1.01430747  0.66878454  1
  H+  H24  1  0.86151377  0.60473324  0.47848781  1
  H+  H25  1  0.38131793  0.84725014  0.19232712  1
  H+  H26  1  0.39315036  0.28252944  0.50302438  1
  H+  H27  1  0.62216703  0.35040014  0.49205624  1
  H+  H28  1  0.10260629  0.90020015  1.01707995  1
  H+  H29  1  0.41125373  0.44482650  0.37032941  1
  H+  H30  1  0.61850973  0.93304075  0.10260508  1
  H+  H31  1  0.57163737  0.67587787  0.49155640  1
  H+  H32  1  0.52712697  0.37750440  0.66773351  1
  H+  H33  1  0.34310928  0.43647866  0.06989782  1
  H+  H34  1  0.96394439  0.61365402  0.64691174  1
  H+  H35  1  0.48642229  0.36791424  1.01312500  1
  H+  H36  1  0.53466167  0.39571651  0.87860213  1
  H+  H37  1  0.74167088  0.60379922  0.49104371  1
  H+  H38  1  0.42505416  0.60036380  0.27119873  1
  H+  H39  1  0.10152792  0.14171549  0.15745087  1
  H+  H40  1  0.13216096  0.36255320  0.50280927  1
  H+  H41  1  0.37752507  0.10118924  0.66849288  1
  H+  H42  1  0.39029760  0.10717713  0.33969395  1
  H+  H43  1  0.63765325  0.58395408  0.63661324  1
  H+  H44  1  0.64765960  0.27148880  0.64115428  1
  H+  H45  1  0.01669309  0.37851054  0.16902024  1
  H+  H46  1  0.88936751  0.35239638  0.54057391  1
  H+  H47  1  0.66430436  0.53984127  0.83301620  1
  H+  H48  1  0.53916209  0.64867551  0.84285534  1
  H+  H49  1  0.85990352  0.38224629  0.66242816  1
  H+  H50  1  0.24264421  0.37529568  0.32450024  1
  H+  H51  1  0.61891454  0.46140189  0.65683373  1
  H+  H52  1  0.08693959  0.36730600  0.81003321  1
  H+  H53  1  0.85103890  0.12328936  0.66300095  1
  H+  H54  1  0.64413190  0.86948511  0.83971841  1
  H+  H55  1  0.49237458  0.12047461  0.51999249  1
  H+  H56  1  0.17378451  0.56723159  1.04087028  1
  H+  H57  1  0.63891386  0.01998035  0.83259652  1
  H+  H58  1  0.64922380  0.60470394  0.25202089  1
  H+  H59  1  0.26028291  0.38100459  0.49898802  1
  H+  H60  1  0.78119707  0.48784988  0.10496959  1
  H+  H61  1  0.10500744  0.63614994  0.81947487  1
  H+  H62  1  0.12827879  0.78259070  1.02183580  1
  H+  H63  1  0.87843476  0.92384206  0.47366192  1
  H+  H64  1  0.11388536  0.14531159  1.00638782  1
  H+  H65  1  0.10380157  0.22586814  0.52286960  1
  H+  H66  1  0.11684121  0.12477674  0.65644977  1
  H+  H67  1  0.33918721  0.62897118  0.67707981  1
  H+  H68  1  0.76247127  0.88221320  0.68061461  1
  H+  H69  1  0.11521126  0.14058121  0.81801091  1
  H+  H70  1  0.12351499  0.00825532  0.49959218  1
  H+  H71  1  0.41628686  0.33034832  0.96119195  1
  H+  H72  1  0.63889121  0.10879761  0.82603569  1
  H+  H73  1  0.88139022  0.52043659  0.84140105  1
  H+  H74  1  0.84832909  0.21161251  0.65646083  1
  H+  H75  1  0.11054424  0.95945084  0.65436031  1
  H+  H76  1  0.89388394  0.52476848  -0.00714255  1
  H+  H77  1  0.37665112  0.21826468  0.82773908  1
  H+  H78  1  0.86704833  0.09062159  0.34016301  1
  H+  H79  1  0.74427430  0.13917642  0.17204418  1
  H+  H80  1  0.73609118  0.86825230  0.99496639  1
  H+  H81  1  0.37105586  0.13570132  0.00094134  1
  H+  H82  1  0.11930981  0.60788514  0.50196124  1
  H+  H83  1  0.37006642  0.22214407  0.01789794  1
  H+  H84  1  0.44915463  0.61221402  0.67678029  1
  H+  H85  1  0.53098182  0.13923618  0.16939028  1
  H+  H86  1  0.38966610  0.77772838  0.50287538  1
  H+  H87  1  0.79161951  0.91983331  0.45660587  1
  H+  H88  1  0.77061707  0.13887487  1.00153652  1
  H+  H89  1  0.12504678  0.74243441  0.33933364  1
  H+  H90  1  0.42503846  0.53624718  0.87244601  1
  H+  H91  1  0.64224629  0.87406922  0.32514560  1
  H+  H92  1  0.66155777  0.32954861  0.55593987  1
  H+  H93  1  0.96841502  0.60802043  0.83687482  1
  H+  H94  1  -0.02271560  0.87885355  0.84448733  1
  H+  H95  1  0.35342647  0.46593205  0.67410021  1
  H+  H96  1  0.21005001  0.10373020  0.16751296  1
  H+  H97  1  0.64827077  0.78240424  0.84093934  1
  H+  H98  1  0.88156448  0.02910376  0.83116491  1
  H+  H99  1  0.45498720  0.08339882  0.67990764  1
  H+  H100  1  0.60440404  0.12392767  0.00855348  1
  H+  H101  1  0.10945261  0.71200173  0.66275936  1
  H+  H102  1  0.63657581  0.35481410  0.64684528  1
  H+  H103  1  0.87198977  0.86318235  0.65429455  1
  H+  H104  1  0.27797855  0.14489490  0.82977290  1
  H+  H105  1  0.37803668  0.85808520  0.65481011  1
  H+  H106  1  0.18836707  0.72440914  0.37592916  1
  H+  H107  1  0.37580021  0.50099338  0.16315300  1
  H+  H108  1  0.61975785  0.98946031  0.50328270  1
  H+  H109  1  0.08706139  0.44615388  0.00235828  1
  H+  H110  1  0.97816279  0.12111852  0.98775601  1
  H+  H111  1  0.10489542  0.36886794  0.00437665  1
  H+  H112  1  0.91778486  0.85580955  0.16923752  1
  H+  H113  1  0.10468906  0.72408256  0.80615670  1
  H+  H114  1  0.96337821  0.34735151  0.64029045  1
  H+  H115  1  0.10079273  0.37682432  0.66204792  1
  H+  H116  1  0.29204172  0.14076247  0.50779324  1
  H+  H117  1  0.36865000  0.21686439  0.34762260  1
  H+  H118  1  0.08020642  0.17548007  0.06367936  1
  H+  H119  1  0.64867684  -0.00507066  0.16057815  1
  H+  H120  1  0.68295857  0.28182489  0.31013612  1
  H+  H121  1  0.58367601  0.64869161  0.68450774  1
  H+  H122  1  0.38988762  0.42192208  0.15423207  1
  H+  H123  1  0.51253699  0.38867428  0.15586196  1
  H+  H124  1  0.88904885  0.27717669  0.17601896  1
  H+  H125  1  0.01328566  0.40139191  0.81661208  1
  H+  H126  1  0.40741948  0.79653077  0.99666094  1
  H+  H127  1  0.66198444  0.61947265  0.49645221  1
  H+  H128  1  0.07306696  0.40164182  0.10562537  1
  H+  H129  1  0.85220809  0.73220155  0.66395609  1
  H+  H130  1  0.09547258  0.71465279  0.48870866  1
  H+  H131  1  0.32732136  0.42808142  0.44349200  1
  H+  H132  1  0.60548344  0.55727229  0.15602030  1
  H+  H133  1  0.87376957  0.69714438  0.46340856  1
  H+  H134  1  0.88727352  1.03799194  0.47956052  1
  H+  H135  1  0.08361170  -0.04031399  0.33931897  1
  H+  H136  1  0.22295661  0.36034710  0.65826785  1
  H+  H137  1  0.30955471  0.28206772  0.78253984  1
  H+  H138  1  0.16590785  0.33862398  0.85630955  1
  H+  H139  1  0.88929872  0.72846303  0.16512658  1
  H+  H140  1  0.14231195  0.61362465  0.31977601  1
  H+  H141  1  0.11878349  0.63139070  0.15901108  1
  H+  H142  1  0.37452242  0.40034563  1.01616738  1
  H+  H143  1  0.23097919  0.37512519  0.16968552  1
  H+  H144  1  0.34167918  -0.04130506  0.67682007  1
  H+  H145  1  0.62661528  0.25239502  0.50024403  1
  H+  H146  1  0.63274663  0.28205306  0.17085445  1
  H+  H147  1  0.25332899  0.38464708  0.91827903  1
  H+  H148  1  0.09804735  0.96907298  0.16578445  1
  H+  H149  1  0.18174339  0.34220230  0.26671034  1
  H+  H150  1  0.35889424  -0.03355101  0.84804073  1
  H+  H151  1  0.92784041  0.36110213  0.89170925  1
  H+  H152  1  0.48524103  0.62247214  0.17732411  1
  H+  H153  1  0.51321585  0.11057204  0.35537575  1
  H+  H154  1  0.37986966  0.50622033  0.34698609  1
  H+  H155  1  0.51028166  0.35792138  0.85778901  1
  H+  H156  1  0.96370411  0.10192564  0.66271378  1
  H+  H157  1  0.91314233  0.83292845  0.93516866  1
  H+  H158  1  0.64519685  0.35343209  0.83208519  1
  H+  H159  1  0.27763548  0.63248485  0.16112848  1
  H+  H160  1  0.36598613  0.22246651  0.66522010  1
  H+  H161  1  0.88153620  0.14668189  0.18625959  1
  H+  H162  1  0.64316846  0.78226604  0.32316646  1
  H+  H163  1  0.11902805  0.47355060  0.33560202  1
  H+  H164  1  0.23940710  0.09502245  0.32655684  1
  H+  H165  1  0.80197428  0.89110986  0.16319998  1
  H+  H166  1  0.78604551  0.36913214  0.35955224  1
  H+  H167  1  0.63316891  0.73649315  1.01378298  1
  H+  H168  1  0.77401485  0.63539106  0.31668804  1
  H+  H169  1  -0.07712344  0.58520490  -0.06565235  1
  H+  H170  1  0.60407428  0.19429852  0.35728688  1
  H+  H171  1  0.23317860  0.36864646  0.00636310  1
  H+  H172  1  0.85082884  0.39014841  0.45636571  1
  H+  H173  1  0.52979328  0.88308096  0.82788219  1
  H+  H174  1  0.35356943  0.50788714  0.52082167  1
  H+  H175  1  0.21518006  0.86090005  0.84275696  1
  H+  H176  1  0.35699553  0.19995349  0.15951027  1
  H+  H177  1  0.42076298  0.08111947  0.27791709  1
  H+  H178  1  0.09395740  0.13149234  0.51770932  1
  H+  H179  1  0.86858343  0.45485220  0.50912073  1
  H+  H180  1  -0.02916327  0.12284725  0.51523957  1
  H+  H181  1  0.20954711  0.84619878  0.49475306  1
  H+  H182  1  0.71330800  0.37607828  0.15761962  1
  H+  H183  1  0.38699681  0.36917444  0.50448954  1
  H+  H184  1  0.72334624  0.46735067  0.78423984  1
  H+  H185  1  0.63973191  0.52628675  -0.00757208  1
  H+  H186  1  0.62415915  0.42866895  0.32067199  1
  H+  H187  1  0.51654608  0.89550581  0.67795674  1
  H+  H188  1  0.33865309  0.63066218  0.50112111  1
  H+  H189  1  0.89809097  0.39785892  0.83389474  1
  H+  H190  1  0.62443648  0.97890065  0.34051258  1
  H+  H191  1  0.60748676  0.90376032  0.67738258  1
  H+  H192  1  0.87272290  0.26555937  -0.01966769  1
  H+  H193  1  0.11262503  0.23478285  0.15671406  1
  H+  H194  1  0.08200272  0.15990105  0.36471514  1
  H+  H195  1  0.22801212  0.11593174  0.99666709  1
  H+  H196  1  0.62185005  0.54026080  0.30912695  1
  H+  H197  1  -0.01921392  0.60457831  0.17409817  1
  H+  H198  1  0.63518472  0.09758444  0.33471957  1
  H+  H199  1  0.13869594  0.36888532  0.17332934  1
  H+  H200  1  0.26959963  0.87781585  0.18141281  1
  H+  H201  1  0.77694027  0.38895361  0.66011770  1
  H+  H202  1  0.38284035  0.34016523  0.31778845  1
  H+  H203  1  0.21671796  0.53889918  0.99200890  1
  H+  H204  1  0.38369915  0.09844094  0.18253619  1
  H+  H205  1  0.20353429  0.01186685  0.28751400  1
  H+  H206  1  0.54295708  0.65025553  0.01898002  1
  H+  H207  1  0.48398565  0.86476376  0.33944519  1
  H+  H208  1  0.65081204  0.78359123  0.17901621  1
  H+  H209  1  0.89936109  0.35444562  0.33828821  1
  H+  H210  1  0.98663451  0.08950652  0.36417875  1
  H+  H211  1  0.77489448  0.63542219  0.66670442  1
  H+  H212  1  0.38542814  0.09949973  0.83300715  1
  H+  H213  1  0.61912921  0.12904820  0.63604095  1
  H+  H214  1  0.62887932  0.13375398  0.51311727  1
  H+  H215  1  0.48315289  0.11183689  0.98974165  1
  H+  H216  1  0.67470751  0.58804242  0.89726371  1
  H+  H217  1  0.75765403  0.12250291  0.80957232  1
  H+  H218  1  0.65827741  0.29501011  0.33143032  1
  H+  H219  1  0.14001748  0.82727722  0.26672359  1
  H+  H220  1  0.10383289  0.85278711  0.32702660  1
  H+  H221  1  0.87406263  0.12545069  0.50387825  1
  H+  H222  1  0.61558976  0.77918548  0.67479355  1
  H+  H223  1  0.23064302  0.09973677  0.65351436  1
  H+  H224  1  0.86040184  0.14148469  0.00221505  1
  H+  H225  1  0.43678926  0.59830684  0.52566348  1
  H+  H226  1  0.16029824  0.08204425  0.22906794  1
  H+  H227  1  0.13480211  0.27080920  0.65589162  1
  H+  H228  1  0.31704359  0.36173321  0.81776870  1
  H+  H229  1  0.85956241  0.22432390  0.52182700  1
  H+  H230  1  0.38182165  0.77282997  0.65239401  1
  H+  H231  1  0.65063867  0.88923532  0.49824809  1
  H+  H232  1  0.44139335  0.60118549  0.92665391  1
  H+  H233  1  0.86431850  0.38426268  -0.00218681  1
  H+  H234  1  0.85393697  0.49661245  0.14821906  1
  H+  H235  1  0.60422897  0.39815287  0.16080936  1
  H+  H236  1  0.11217346  0.61455561  0.65950746  1
  H+  H237  1  0.63159677  0.25866113  0.83145127  1
  H+  H238  1  0.12732237  0.38866805  0.33733028  1
  H+  H239  1  0.36471524  0.72581601  0.17267492  1
  H+  H240  1  0.30205854  0.66728953  0.01647766  1
  H+  H241  1  0.35668999  -0.03080299  0.33842194  1
  H+  H242  1  0.72932166  0.10999596  0.33443303  1
  H+  H243  1  0.33205534  0.89461355  0.89754394  1
  H+  H244  1  0.40649648  0.63477754  1.01212773  1
  H+  H245  1  0.38997407  0.35745884  0.65127433  1
  H+  H246  1  0.34779726  0.87538191  0.48940300  1
  H+  H247  1  0.11098290  0.47017305  0.49066119  1
  H+  H248  1  0.64279781  0.02392502  0.98924249  1
  H+  H249  1  0.01335286  0.64048321  0.00679546  1
  H+  H250  1  -0.03140812  0.11781869  0.82503630  1
  H+  H251  1  0.10911256  0.65661039  0.00143189  1
  H+  H252  1  0.61950542  0.65514007  0.32899074  1
  H+  H253  1  0.17486244  0.07168814  0.59263978  1
  H+  H254  1  0.38492314  0.84459982  0.83731162  1
  H+  H255  1  0.71886158  0.10111573  0.61748780  1
  H+  H256  1  0.48696867  0.63545935  0.32949827  1
  H+  H257  1  0.62295976  0.14588239  0.16469925  1
  H+  H258  1  0.07469516  0.15867876  0.61095602  1
  H+  H259  1  0.62406449  0.64314291  0.82893565  1
  H+  H260  1  0.89310575  0.64181126  0.64615732  1
  H+  H261  1  0.53231209  0.89709049  0.49565846  1
  H+  H262  1  0.85539027  0.12794742  0.80687845  1
  H+  H263  1  0.77735098  0.89567529  0.83007573  1
  H+  H264  1  0.32218074  1.00291985  0.07374484  1
  H+  H265  1  0.88914767  0.78793698  0.83591038  1
  H+  H266  1  0.48048142  0.35984874  0.32041056  1
  H+  H267  1  -0.03561949  0.13549877  0.18196620  1
  H+  H268  1  0.78559669  0.66102025  0.82536000  1
  H+  H269  1  0.12152749  0.83644475  0.64343262  1
  H+  H270  1  0.86451165  0.45969071  0.34863759  1
  H+  H271  1  0.52617348  0.39112889  0.48463380  1
  H+  H272  1  0.53904824  0.89765593  0.00518931  1
  H+  H273  1  0.34391943  0.30554277  0.18277975  1
  H+  H274  1  0.66014634  0.75733566  0.48454789  1
  H+  H275  1  0.57343420  0.15266602  0.06825498  1
  H+  H276  1  0.39635269  0.62653584  0.17528329  1
  H+  H277  1  0.64636970  0.61821786  -0.00569179  1
  H+  H278  1  1.00995573  0.88236984  0.49415064  1
  H+  H279  1  0.86815249  0.89821678  0.83024571  1
  H+  H280  1  0.26548141  0.88337949  0.33185314  1
  H+  H281  1  0.96522674  0.59252578  0.49606957  1
  H+  H282  1  0.13553903  0.51379628  0.16865801  1
  H+  H283  1  0.38426631  0.75557367  0.83872670  1
  H+  H284  1  0.21317122  0.61594044  0.50495598  1
  H+  H285  1  0.76427039  0.47254260  0.28996418  1
  H+  H286  1  0.98657689  0.35243357  0.33417952  1
  H+  H287  1  0.38455320  0.14925386  0.50632026  1
  H+  H288  1  0.83331541  0.18590742  0.11086493  1
  H+  H289  1  0.14827392  0.57740138  0.58720674  1
  H+  H290  1  0.52021219  0.12257712  0.80809043  1
  H+  H291  1  0.22842391  0.61190006  0.32284721  1
  H+  H292  1  0.66193622  0.33547896  0.93506091  1
  H+  H293  1  0.28500814  0.46125144  0.87125329  1
  H+  H294  1  0.17739692  0.10869806  0.90461811  1
  H+  H295  1  0.06333885  0.88237904  0.70254736  1
  H+  H296  1  0.88842572  0.83626639  0.55104967  1
  H+  H297  1  0.31555855  0.89985842  0.42959412  1
  H+  H298  1  0.82167502  0.64262112  0.37795696  1
  H+  H299  1  0.08347709  0.66340323  0.10344832  1
  H+  H300  1  0.72874333  0.89717460  0.53885604  1
  H+  H301  1  0.68800846  0.39930543  0.24877700  1
  H+  H302  1  0.66724170  0.08397451  0.92988793  1
  H+  H303  1  0.06948018  0.91731666  0.10447513  1
  H+  H304  1  0.81566939  0.15093152  0.74075078  1
  H+  H305  1  0.85145525  0.89567568  0.37419487  1
  H+  H306  1  0.91061943  0.58279383  0.55541804  1
  H+  H307  1  0.08976540  0.96432765  0.77584716  1
  H+  H308  1  0.36807688  0.32814968  0.89421286  1
  H+  H309  1  0.34023399  0.16396012  0.41055746  1
  H+  H310  1  0.58351492  0.91975986  0.76702849  1
  H+  H311  1  0.67600833  0.09321880  0.22955447  1
  H+  H312  1  0.90234935  0.07880930  0.27887465  1
  H+  H313  1  0.58889529  0.42661319  0.06800291  1
  H+  H314  1  0.59818633  0.92318329  0.40199458  1
  H+  H315  1  0.77835822  0.63747314  1.00569260  1
  H+  H316  1  0.13313209  0.76843979  0.17462807  1
  H+  H317  1  0.41563734  0.81588006  0.24728316  1
  H+  H318  1  0.40090679  0.54096095  1.00953869  1
  H+  H319  1  0.84654724  0.91463550  0.09941340  1
  H+  H320  1  0.07907357  0.66008034  0.42884440  1
  H+  H321  1  0.09399749  0.46217758  0.65723659  1
  H+  H322  1  0.42055407  0.83867357  0.56047878  1
  H+  H323  1  0.09660049  0.87407918  0.49329475  1
  H+  H324  1  0.17208993  0.09827035  0.46764074  1
  H+  H325  1  0.14707479  0.27839161  0.99294452  1
  H+  H326  1  0.63371094  0.43439864  0.75179450  1
  H+  H327  1  0.09254656  0.41479351  0.43013632  1
  H+  H328  1  0.38860614  0.57478552  0.61707501  1
  H+  H329  1  0.36283380  0.64164941  0.34565905  1
  H+  H330  1  0.38907060  0.01364248  0.19321661  1
  H+  H331  1  0.73028564  0.37624754  0.98787256  1
  H+  H332  1  0.18169073  0.85009726  0.97186730  1
  H+  H333  1  0.08106374  0.65274180  0.72713194  1
  H+  H334  1  0.06377959  0.40643482  0.74669935  1
  H+  H335  1  0.30067118  0.67253270  0.72214538  1
  H+  H336  1  0.60723069  0.69089254  0.39276119  1
  H+  H337  1  0.33395592  0.16750907  0.72724973  1
  H+  H338  1  0.33041874  0.38543144  0.71801387  1
  H+  H339  1  0.83269512  0.42147699  0.05432753  1
  H+  H340  1  0.88596010  0.77284527  0.99528430  1
  H+  H341  1  0.41001269  0.30961370  0.23111260  1
  H+  H342  1  0.82653380  0.17003248  0.41227759  1
  H+  H343  1  0.43540264  0.83685857  0.93149116  1
  H+  H344  1  0.31057668  0.89008997  0.73033337  1
  H+  H345  1  0.12939822  0.57191234  0.90088266  1
  H+  H346  1  0.08230394  0.15435716  0.75315188  1
  H+  H347  1  0.33761674  0.91513166  0.12844258  1
  H+  H348  1  0.84800709  0.66810614  0.10637482  1
  H+  H349  1  0.86750178  0.63857029  0.00488205  1
  H+  H350  1  0.35314026  0.68711687  0.07912408  1
  H+  H351  1  0.62535712  0.89213030  1.00503754  1
  H+  H352  1  0.83871525  0.68901107  0.76364628  1
  H+  H353  1  0.91846977  0.09270822  0.92852207  1
  H+  H354  1  0.58667296  0.14936780  0.44942890  1
  H+  H355  1  0.13161150  0.85742145  0.17146534  1
  H+  H356  1  0.86042976  0.81159878  0.47880569  1
  H+  H357  1  0.42423047  0.33198692  0.59356387  1
  H+  H358  1  0.82443380  0.41408940  0.75666902  1
  H+  H359  1  0.13338396  0.03283676  0.99440508  1
  H+  H360  1  0.89685337  0.55039355  0.26076645  1
  H+  H361  1  0.12342830  0.81618789  0.87416142  1
  H+  H362  1  0.16269152  0.33866277  0.56615101  1
  H+  H363  1  0.34305560  0.27983109  0.89568478  1
  H+  H364  1  0.05820183  0.90521809  0.39901264  1
  H+  H365  1  0.64510999  0.82753612  0.61207056  1
  H+  H366  1  0.82774605  0.91187863  0.73753860  1
  H+  H367  1  0.67406948  0.84372451  0.25606197  1
  H+  H368  1  0.58091038  0.42816998  0.38518687  1
  H+  H369  1  0.56692781  0.67366214  0.74927992  1
  H+  H370  1  0.16927825  0.57729509  0.22602689  1
  H+  H371  1  0.68259059  0.56926431  0.58097820  1
  H+  H372  1  0.42518884  0.08213368  0.89293533  1
  H+  H373  1  0.65904976  0.88014635  0.17351685  1
  H+  H374  1  0.32961476  0.14314218  0.10015927  1
  H+  H375  1  0.42083542  0.07940775  0.57341846  1
  H+  H376  1  0.93060178  0.33313736  0.23745207  1
  H+  H377  1  0.58195619  0.15583576  0.74932415  1
  H+  H378  1  0.38983589  0.02986033  0.98792691  1
  H+  H379  1  0.67426441  0.83479837  0.93682892  1
  H+  H380  1  0.15259104  0.81348208  0.55496202  1
  H+  H381  1  0.60291830  0.66834065  0.10609550  1
  H+  H382  1  0.31708859  0.60878546  0.80042176  1
  H+  H383  1  0.32152857  0.66400269  0.43747368  1
  O2-  O384  1  0.07812763  0.17628495  0.13918067  1
  O2-  O385  1  0.06775459  0.16347502  0.53544370  1
  O2-  O386  1  0.07662217  0.15773769  0.79717571  1
  O2-  O387  1  0.08086644  0.41095302  0.14987112  1
  O2-  O388  1  0.09053970  0.41152729  0.47560755  1
  O2-  O389  1  0.07074018  0.41167664  0.79259458  1
  O2-  O390  1  0.08779762  0.66291906  0.14831229  1
  O2-  O391  1  0.06790430  0.65349001  0.47367772  1
  O2-  O392  1  0.07690729  0.66280279  0.79488243  1
  O2-  O393  1  0.08339500  0.91294954  0.14752328  1
  O2-  O394  1  0.07151501  0.91081029  0.48183644  1
  O2-  O395  1  0.09129052  0.94552805  0.81711753  1
  O2-  O396  1  0.32533611  0.13951416  0.14558833  1
  O2-  O397  1  0.34918468  0.17488182  0.48953481  1
  O2-  O398  1  0.33471918  0.16467938  0.80820225  1
  O2-  O399  1  0.34889529  0.44091510  0.14502501  1
  O2-  O400  1  0.32369142  0.41840713  0.48822875  1
  O2-  O401  1  0.28049502  0.40555331  0.87747275  1
  O2-  O402  1  0.33973871  0.66755291  0.14963809  1
  O2-  O403  1  0.31762708  0.66717443  0.48305855  1
  O2-  O404  1  0.32136406  0.63577620  0.83968879  1
  O2-  O405  1  0.33316535  0.90737059  0.17305847  1
  O2-  O406  1  0.30738794  0.89331522  0.47426427  1
  O2-  O407  1  0.32300633  0.90187626  0.85450776  1
  O2-  O408  1  0.58820575  0.17360524  0.15070470  1
  O2-  O409  1  0.59518365  0.16404287  0.49379202  1
  O2-  O410  1  0.58092432  0.15427847  0.79405958  1
  O2-  O411  1  0.57300687  0.42801922  0.14566042  1
  O2-  O412  1  0.58551358  0.41305059  0.46829807  1
  O2-  O413  1  0.66361287  0.45155720  0.79188418  1
  O2-  O414  1  0.59233345  0.66100191  0.15196300  1
  O2-  O415  1  0.62768059  0.69532619  0.47354547  1
  O2-  O416  1  0.59239689  0.67477923  0.81792497  1
  O2-  O417  1  0.62825666  0.93455607  0.14693102  1
  O2-  O418  1  0.59404143  0.93073860  0.48327307  1
  O2-  O419  1  0.58966799  0.91772425  0.81311506  1
  O2-  O420  1  0.82992896  0.18866250  0.15508451  1
  O2-  O421  1  0.82864631  0.16920429  0.49813787  1
  O2-  O422  1  0.81785713  0.15083092  0.78864208  1
  O2-  O423  1  0.80443437  0.45323914  0.12130983  1
  O2-  O424  1  0.84850737  0.39305318  0.50110489  1
  O2-  O425  1  0.82281412  0.42117517  0.80200927  1
  O2-  O426  1  0.85353406  0.66572523  0.15079452  1
  O2-  O427  1  0.83244067  0.63615871  0.45981014  1
  O2-  O428  1  0.84389492  0.69705757  0.80834161  1
  O2-  O429  1  0.85642166  0.90774651  0.14267088  1
  O2-  O430  1  0.85391867  0.95326258  0.44906164  1
  O2-  O431  1  0.83702579  0.92685687  0.81246861  1
  O2-  O432  1  0.15224452  0.08366140  0.18457290  1
  O2-  O433  1  0.15852442  0.07304489  0.50830733  1
  O2-  O434  1  0.18030976  0.10910879  0.85849905  1
  O2-  O435  1  0.17296581  0.34089792  0.18674695  1
  O2-  O436  1  0.16210100  0.33124421  0.52119809  1
  O2-  O437  1  0.10562913  0.30837032  0.84300668  1
  O2-  O438  1  0.17019396  0.57656924  0.18051551  1
  O2-  O439  1  0.15258905  0.58151862  0.52015214  1
  O2-  O440  1  0.14641773  0.58836851  0.85878742  1
  O2-  O441  1  0.16158701  0.82865156  0.18999439  1
  O2-  O442  1  0.14770255  0.81690109  0.51034775  1
  O2-  O443  1  0.15188963  0.83558948  0.83483735  1
  O2-  O444  1  0.41856985  0.07653130  0.20276053  1
  O2-  O445  1  0.43277033  0.10382975  0.53229512  1
  O2-  O446  1  0.41761400  0.07144520  0.84726971  1
  O2-  O447  1  0.39963773  0.30886621  0.18594400  1
  O2-  O448  1  0.42391348  0.34434804  0.51556073  1
  O2-  O449  1  0.33961089  0.34448145  0.78285801  1
  O2-  O450  1  0.42513151  0.59479246  0.19250791  1
  O2-  O451  1  0.37768031  0.56767188  0.53986468  1
  O2-  O452  1  0.43849800  0.59522574  0.88007579  1
  O2-  O453  1  0.40812203  0.81207125  0.20247515  1
  O2-  O454  1  0.42331777  0.83902518  0.51526517  1
  O2-  O455  1  0.42010432  0.81789433  0.84596318  1
  O2-  O456  1  0.67645909  0.09844997  0.18496045  1
  O2-  O457  1  0.66984790  0.08797700  0.53454008  1
  O2-  O458  1  0.67281723  0.08333273  0.84249904  1
  O2-  O459  1  0.65715900  0.34486177  0.17928066  1
  O2-  O460  1  0.65210573  0.31992068  0.50981399  1
  O2-  O461  1  0.66441829  0.31582507  0.85079560  1
  O2-  O462  1  0.63859915  0.61664659  0.17198757  1
  O2-  O463  1  0.68183938  0.57935030  0.50916477  1
  O2-  O464  1  0.67688518  0.59507215  0.85185579  1
  O2-  O465  1  0.68109558  0.84231629  0.19539693  1
  O2-  O466  1  0.68911663  0.86314513  0.50664017  1
  O2-  O467  1  0.67717153  0.84251139  0.85615432  1
  O2-  O468  1  0.91431199  0.12122940  0.20727265  1
  O2-  O469  1  0.90614618  0.08922533  0.50915958  1
  O2-  O470  1  0.90905866  0.09249821  0.84053138  1
  O2-  O471  1  0.93220087  0.33931915  0.19276557  1
  O2-  O472  1  0.91543093  0.31738604  0.55940189  1
  O2-  O473  1  0.94362721  0.38733114  0.85021673  1
  O2-  O474  1  0.91953092  0.57583637  0.18641916  1
  O2-  O475  1  0.90506119  0.56161623  0.51211221  1
  O2-  O476  1  0.91706685  0.57611373  0.86202512  1
  O2-  O477  1  0.94446949  0.82354166  0.18691467  1
  O2-  O478  1  0.90449333  0.85280496  0.50778964  1
  O2-  O479  1  0.91671106  0.84707347  0.85683841  1
  O2-  O480  1  0.19011485  0.05566501  0.30041293  1
  O2-  O481  1  0.17064290  0.06586608  0.63734810  1
  O2-  O482  1  0.16957538  0.09367381  0.97931613  1
  O2-  O483  1  0.18252566  0.34272296  0.31200847  1
  O2-  O484  1  0.16107349  0.33270310  0.64564660  1
  O2-  O485  1  0.18030883  0.34125411  0.98104964  1
  O2-  O486  1  0.16963547  0.58090568  0.30478430  1
  O2-  O487  1  0.14728640  0.57331471  0.63496197  1
  O2-  O488  1  0.18539124  0.56990077  0.99721808  1
  O2-  O489  1  0.14182006  0.82960125  0.31210396  1
  O2-  O490  1  0.15286257  0.80461113  0.63566253  1
  O2-  O491  1  0.16418771  0.84634445  1.01408971  1
  O2-  O492  1  0.41897793  0.07574899  0.32371400  1
  O2-  O493  1  0.40006417  0.06116648  0.65877730  1
  O2-  O494  1  0.42353505  0.08614051  0.96781547  1
  O2-  O495  1  0.41896158  0.31582597  0.30708346  1
  O2-  O496  1  0.42124474  0.32696380  0.63902049  1
  O2-  O497  1  0.42116830  0.33470939  1.00555224  1
  O2-  O498  1  0.42517813  0.60172784  0.31670322  1
  O2-  O499  1  0.38857747  0.57655560  0.66269758  1
  O2-  O500  1  0.43540531  0.60273016  0.99690334  1
  O2-  O501  1  0.42253663  0.83054993  0.32669049  1
  O2-  O502  1  0.41390386  0.83394758  0.64049393  1
  O2-  O503  1  0.43501187  0.85180822  0.97450268  1
  O2-  O504  1  0.67017836  0.07502737  0.31629497  1
  O2-  O505  1  0.65952726  0.07724044  0.60166379  1
  O2-  O506  1  0.66741850  0.08491957  0.97467650  1
  O2-  O507  1  0.70071968  0.43280568  0.28695553  1
  O2-  O508  1  0.67071932  0.33142539  0.62643541  1
  O2-  O509  1  0.66853122  0.35229676  0.97816895  1
  O2-  O510  1  0.65516230  0.60131952  0.29665330  1
  O2-  O511  1  0.67674042  0.56301169  0.62725647  1
  O2-  O512  1  0.67211688  0.58587038  0.97543109  1
  O2-  O513  1  0.67182767  0.84352467  0.30651230  1
  O2-  O514  1  0.65355481  0.83640971  0.65589949  1
  O2-  O515  1  0.67370754  0.83330990  0.98205754  1
  O2-  O516  1  0.89228464  0.05820405  0.32211605  1
  O2-  O517  1  0.90198701  0.07477146  0.65432245  1
  O2-  O518  1  0.91748858  0.08824135  0.97325603  1
  O2-  O519  1  0.92498679  0.32096281  0.32163926  1
  O2-  O520  1  0.90208339  0.31630855  0.62572290  1
  O2-  O521  1  0.90726945  0.32777863  0.96621856  1
  O2-  O522  1  0.87200098  0.53566588  0.30267620  1
  O2-  O523  1  0.93116571  0.62975999  0.62004235  1
  O2-  O524  1  0.92364706  0.58715674  0.98053855  1
  O2-  O525  1  0.80198346  0.78294348  0.40791420  1
  O2-  O526  1  0.89566154  0.83162857  0.63076123  1
  O2-  O527  1  0.91490061  0.83389136  0.98045555  1
  O2-  O528  1  0.08409687  0.17739722  0.01758868  1
  O2-  O529  1  0.04052415  0.11163916  0.38894446  1
  O2-  O530  1  0.08498112  0.15674801  0.65607177  1
  O2-  O531  1  0.06514534  0.38876118  0.01937025  1
  O2-  O532  1  0.09351309  0.41519522  0.35347835  1
  O2-  O533  1  0.06411174  0.40253494  0.67312148  1
  O2-  O534  1  0.07541743  0.67611988  0.02389322  1
  O2-  O535  1  0.12979907  0.69378190  0.36028436  1
  O2-  O536  1  0.08246780  0.65078492  0.68000485  1
  O2-  O537  1  0.07293273  0.93330445  0.02323964  1
  O2-  O538  1  0.05370408  0.90036241  0.35429515  1
  O2-  O539  1  0.07212099  0.89549395  0.65928274  1
  O2-  O540  1  0.33764647  0.15851227  0.02282388  1
  O2-  O541  1  0.33751305  0.15824068  0.36527952  1
  O2-  O542  1  0.33398170  0.16243820  0.68220919  1
  O2-  O543  1  0.34438901  0.43337716  0.02434259  1
  O2-  O544  1  0.35865749  0.44723365  0.36554466  1
  O2-  O545  1  0.32783244  0.40258173  0.67490116  1
  O2-  O546  1  0.36042498  0.69243279  0.03278344  1
  O2-  O547  1  0.32798809  0.66679381  0.36105644  1
  O2-  O548  1  0.30773460  0.66279423  0.67947419  1
  O2-  O549  1  0.32605156  0.95624771  0.05428123  1
  O2-  O550  1  0.32393875  0.90653101  0.34872248  1
  O2-  O551  1  0.31094747  0.89530605  0.68618760  1
  O2-  O552  1  0.56495721  0.14341144  0.02370412  1
  O2-  O553  1  0.57295568  0.13558244  0.37318316  1
  O2-  O554  1  0.58973551  0.15929076  0.65542001  1
  O2-  O555  1  0.58557287  0.42370497  0.02260960  1
  O2-  O556  1  0.57374685  0.43150144  0.34070123  1
  O2-  O557  1  0.58946334  0.40500776  0.67832087  1
  O2-  O558  1  0.60421458  0.67638339  0.03111671  1
  O2-  O559  1  0.59328406  0.68803004  0.34890563  1
  O2-  O560  1  0.55433947  0.67542684  0.70394137  1
  O2-  O561  1  0.59977307  0.92689330  0.01976403  1
  O2-  O562  1  0.59382464  0.91747674  0.35692214  1
  O2-  O563  1  0.57449954  0.92790409  0.69624940  1
  O2-  O564  1  0.83193786  0.17426726  0.01408471  1
  O2-  O565  1  0.82523337  0.16381719  0.36775964  1
  O2-  O566  1  0.81569666  0.15201912  0.67292624  1
  O2-  O567  1  0.83908551  0.42098163  0.00941990  1
  O2-  O568  1  0.84620321  0.40424555  0.37124925  1
  O2-  O569  1  0.83299441  0.41283724  0.68092262  1
  O2-  O570  1  0.83871749  0.66977926  0.02043338  1
  O2-  O571  1  0.82959944  0.64778951  0.33358966  1
  O2-  O572  1  0.83233529  0.67515783  0.68364941  1
  O2-  O573  1  0.83554313  0.92120646  0.01668671  1
  O2-  O574  1  0.83571505  0.83732327  0.35900340  1
  O2-  O575  1  0.82395262  0.90882377  0.69174969  1
