# generated using pymatgen
data_H2O
_symmetry_space_group_name_H-M   'P 1'
_cell_length_a   17.99649164
_cell_length_b   17.99116071
_cell_length_c   22.01615717
_cell_angle_alpha   90.01913553
_cell_angle_beta   89.99720324
_cell_angle_gamma   119.98553226
_symmetry_Int_Tables_number   1
_chemical_formula_structural   H2O
_chemical_formula_sum   'H384 O192'
_cell_volume   6174.22494947
_cell_formula_units_Z   192
loop_
 _symmetry_equiv_pos_site_id
 _symmetry_equiv_pos_as_xyz
  1  'x, y, z'
loop_
 _atom_type_symbol
 _atom_type_oxidation_number
  H+  1.0
  O2-  -2.0
loop_
 _atom_site_type_symbol
 _atom_site_label
 _atom_site_symmetry_multiplicity
 _atom_site_fract_x
 _atom_site_fract_y
 _atom_site_fract_z
 _atom_site_occupancy
  H+  H0  1  0.62799006  0.65433891  0.00938407  1
  H+  H1  1  0.88850513  0.02455256  0.66063934  1
  H+  H2  1  0.51864722  0.62522798  0.15977513  1
  H+  H3  1  0.36012702  0.63391398  0.50180283  1
  H+  H4  1  0.40131524  0.79619178  0.33419089  1
  H+  H5  1  0.34730715  0.13515192  0.16410670  1
  H+  H6  1  0.97801802  0.86828812  1.00371651  1
  H+  H7  1  0.26897297  0.37953997  0.00804221  1
  H+  H8  1  0.26741797  0.88262984  0.67909298  1
  H+  H9  1  0.76846925  0.88651570  0.32463563  1
  H+  H10  1  0.84949296  0.21046986  0.66310960  1
  H+  H11  1  0.38211964  0.86087806  0.50224339  1
  H+  H12  1  0.91844653  0.07006272  0.89573738  1
  H+  H13  1  0.47011355  0.86389379  0.52319714  1
  H+  H14  1  0.78571935  0.14175864  0.02047393  1
  H+  H15  1  0.10889611  0.21752333  0.33634899  1
  H+  H16  1  0.96491877  0.60241399  0.19661169  1
  H+  H17  1  0.61141392  0.59836576  0.67467059  1
  H+  H18  1  0.63340067  0.09956530  0.63829864  1
  H+  H19  1  0.85566344  0.12522076  0.66869952  1
  H+  H20  1  0.36128363  0.88123405  1.00747969  1
  H+  H21  1  0.08497471  0.16262139  0.39747910  1
  H+  H22  1  0.13413747  0.34920131  0.16842421  1
  H+  H23  1  0.76626205  0.88274730  0.16372720  1
  H+  H24  1  0.40755277  0.58426264  0.93735337  1
  H+  H25  1  0.18698270  0.56806861  0.32183832  1
  H+  H26  1  0.38120940  0.02298728  0.17079481  1
  H+  H27  1  0.89231857  0.52947636  0.49141102  1
  H+  H28  1  0.00441796  0.34181487  0.82335579  1
  H+  H29  1  0.13528217  0.60438661  -0.01401501  1
  H+  H30  1  0.68177178  1.10279312  0.55058167  1
  H+  H31  1  0.23765405  0.86937492  0.50309680  1
  H+  H32  1  0.38026306  0.35987159  0.99671023  1
  H+  H33  1  0.62736981  0.10657185  0.83248249  1
  H+  H34  1  0.12044268  0.89323852  0.33540795  1
  H+  H35  1  0.37584809  0.85311044  0.66852250  1
  H+  H36  1  0.22014784  0.60841216  0.16662103  1
  H+  H37  1  0.60570804  0.38802862  0.34755677  1
  H+  H38  1  0.87117264  0.91401612  0.00451834  1
  H+  H39  1  0.88851235  0.26684982  0.99250099  1
  H+  H40  1  0.99502324  0.86439893  0.33049150  1
  H+  H41  1  0.48117979  0.86677539  0.84134011  1
  H+  H42  1  0.46568603  0.37267880  0.84114453  1
  H+  H43  1  0.14333227  0.02730325  0.84231583  1
  H+  H44  1  0.26661928  0.39708951  0.67343007  1
  H+  H45  1  0.36517666  0.15320349  0.82462832  1
  H+  H46  1  0.11534783  0.22466691  0.67128633  1
  H+  H47  1  0.36129922  0.72549763  0.50457078  1
  H+  H48  1  0.62038302  0.13161824  0.00865899  1
  H+  H49  1  0.34999145  0.71539852  0.15874882  1
  H+  H50  1  0.64396396  0.26716299  1.00980199  1
  H+  H51  1  0.12469903  0.98668098  0.33449734  1
  H+  H52  1  0.50234617  0.60593284  0.35894913  1
  H+  H53  1  0.13616362  0.86871223  0.16483948  1
  H+  H54  1  0.63778095  1.00556062  -0.00535440  1
  H+  H55  1  0.22924974  0.86579272  0.98744877  1
  H+  H56  1  0.90189402  0.13244977  0.51065401  1
  H+  H57  1  0.13501069  0.61056922  0.50364155  1
  H+  H58  1  0.88083264  0.52049795  0.84807888  1
  H+  H59  1  0.15406007  0.03575581  0.50330482  1
  H+  H60  1  0.54243201  0.15122545  0.81616399  1
  H+  H61  1  0.35696782  0.47232011  0.49613560  1
  H+  H62  1  0.13161501  0.34109283  0.83897590  1
  H+  H63  1  0.61838067  0.46453043  0.17657112  1
  H+  H64  1  0.76810094  0.88340831  0.66941209  1
  H+  H65  1  0.16185685  0.55544678  0.82176295  1
  H+  H66  1  0.86148708  0.24630916  0.82552092  1
  H+  H67  1  0.64233618  0.35551992  0.18440771  1
  H+  H68  1  0.60187577  0.87169676  0.82697448  1
  H+  H69  1  0.73127311  0.35192097  0.25964209  1
  H+  H70  1  0.37127912  0.23178410  0.50965046  1
  H+  H71  1  0.92340576  0.67542255  0.48669605  1
  H+  H72  1  0.59261953  0.40090938  -0.05155312  1
  H+  H73  1  0.77417753  0.68875373  0.49227643  1
  H+  H74  1  0.61434349  0.23542057  0.48709221  1
  H+  H75  1  0.85492358  0.88291342  0.48191531  1
  H+  H76  1  0.35909397  0.46947797  0.16111281  1
  H+  H77  1  0.11911371  0.23064157  0.49006326  1
  H+  H78  1  0.49624959  0.86272217  0.15435893  1
  H+  H79  1  0.36063523  0.22382527  0.00493309  1
  H+  H80  1  0.38126447  0.35657716  0.50316608  1
  H+  H81  1  0.09864000  0.46134264  0.66922607  1
  H+  H82  1  0.21810438  0.85409936  0.83321398  1
  H+  H83  1  0.14387223  0.26002137  0.84034082  1
  H+  H84  1  0.62811970  0.51981212  -0.01050632  1
  H+  H85  1  0.70555765  0.85367581  0.83268665  1
  H+  H86  1  0.46474997  0.36756209  0.33328391  1
  H+  H87  1  0.59527129  0.70838234  0.67850980  1
  H+  H88  1  0.66006028  0.13723691  0.32774197  1
  H+  H89  1  0.64664205  0.87435759  0.31396862  1
  H+  H90  1  0.13953265  0.77900668  -0.01890182  1
  H+  H91  1  0.58639139  0.60795298  0.51353329  1
  H+  H92  1  0.88440461  1.02653763  0.32610549  1
  H+  H93  1  0.37995545  0.02090198  0.69390240  1
  H+  H94  1  0.02398478  0.12293587  0.00011824  1
  H+  H95  1  0.33874177  0.68164218  0.41666353  1
  H+  H96  1  0.78447384  0.51268084  0.61083578  1
  H+  H97  1  0.86526293  0.24603428  0.48752621  1
  H+  H98  1  0.47137756  0.62422514  0.83631294  1
  H+  H99  1  0.38601063  0.10625903  1.00075635  1
  H+  H100  1  0.85656636  0.88503656  0.67920215  1
  H+  H101  1  0.52985379  0.37725193  0.17894725  1
  H+  H102  1  0.22964589  0.10995078  0.32473213  1
  H+  H103  1  0.37696671  0.28268130  0.84024622  1
  H+  H104  1  0.59584352  0.47810723  0.51040256  1
  H+  H105  1  0.62232706  0.35752873  0.67172747  1
  H+  H106  1  0.62829306  0.76155332  0.16842109  1
  H+  H107  1  0.02550786  0.13655856  0.67453943  1
  H+  H108  1  0.37159273  0.85341260  0.17227465  1
  H+  H109  1  0.61430602  0.13470810  0.16355180  1
  H+  H110  1  0.36671279  0.50195102  0.67188709  1
  H+  H111  1  0.76272263  0.14804325  0.48550445  1
  H+  H112  1  0.91573422  0.57982353  0.94043302  1
  H+  H113  1  0.10365348  0.47277679  0.48541898  1
  H+  H114  1  0.01949513  0.37786871  0.00231144  1
  H+  H115  1  0.90325989  0.34961925  0.81219215  1
  H+  H116  1  0.71401492  0.84300066  0.50321502  1
  H+  H117  1  0.87323508  0.34857442  0.65810862  1
  H+  H118  1  0.46958710  0.11134408  0.16697734  1
  H+  H119  1  0.32683433  0.93289387  0.88233086  1
  H+  H120  1  0.72313275  0.10141589  0.63923707  1
  H+  H121  1  0.37117457  0.14841591  0.33504773  1
  H+  H122  1  0.32320040  0.94641974  0.33950803  1
  H+  H123  1  0.87066969  0.73733313  0.17005564  1
  H+  H124  1  0.11642673  0.89992771  0.82249925  1
  H+  H125  1  0.72584374  0.60939200  0.18007732  1
  H+  H126  1  0.37846852  0.53470383  0.84201219  1
  H+  H127  1  0.84242023  0.96864196  0.82627898  1
  H+  H128  1  0.90618238  0.69318367  0.12513729  1
  H+  H129  1  0.19334427  0.99636860  0.13484959  1
  H+  H130  1  0.65063190  0.13569417  0.48994465  1
  H+  H131  1  0.71471201  0.60842989  0.33532865  1
  H+  H132  1  0.72790336  0.35202984  0.16810958  1
  H+  H133  1  0.77319495  0.64727290  0.48474735  1
  H+  H134  1  0.26560240  0.88024637  0.15689635  1
  H+  H135  1  0.36668845  0.13324412  0.48917625  1
  H+  H136  1  0.38412348  0.64149414  0.32850584  1
  H+  H137  1  0.11342367  0.67167885  0.73936262  1
  H+  H138  1  0.09737605  0.70762195  0.33235664  1
  H+  H139  1  0.51437792  0.37877717  -0.00900617  1
  H+  H140  1  0.86836244  0.85679328  0.17437908  1
  H+  H141  1  0.10336709  0.62397645  0.15952575  1
  H+  H142  1  0.64923819  0.58896195  0.90168693  1
  H+  H143  1  0.80837130  0.15382766  0.75775635  1
  H+  H144  1  0.11817006  0.77001209  0.16274869  1
  H+  H145  1  0.61452989  0.87935140  -0.00450072  1
  H+  H146  1  0.11181225  0.94054316  0.09496955  1
  H+  H147  1  0.46481314  0.60295436  0.51229953  1
  H+  H148  1  0.74519308  0.62252547  0.68341622  1
  H+  H149  1  0.96266527  0.35041603  0.65314457  1
  H+  H150  1  0.13784410  0.85813775  0.65501548  1
  H+  H151  1  0.35663557  0.22751680  0.34003001  1
  H+  H152  1  0.60561423  0.47078965  0.68142260  1
  H+  H153  1  0.88731935  0.78217217  0.00128581  1
  H+  H154  1  0.36265677  0.97238929  0.00961527  1
  H+  H155  1  0.76072259  0.37661625  0.38048390  1
  H+  H156  1  0.75213599  0.12604217  0.81999890  1
  H+  H157  1  0.11418264  0.63791995  0.83489445  1
  H+  H158  1  0.47394192  0.67627057  0.29875665  1
  H+  H159  1  0.12046375  0.73243025  0.49311856  1
  H+  H160  1  -0.02436083  0.09601815  0.83671265  1
  H+  H161  1  0.14418611  0.60503220  0.66335308  1
  H+  H162  1  0.88876821  0.14738877  0.16009211  1
  H+  H163  1  0.40277697  1.04534905  0.83363826  1
  H+  H164  1  0.84936104  0.63064234  0.34874931  1
  H+  H165  1  0.08594924  0.43067102  0.83290908  1
  H+  H166  1  0.35934765  0.39681788  0.82440953  1
  H+  H167  1  0.36390721  0.64442405  0.84097661  1
  H+  H168  1  0.57512151  0.89728631  0.72968713  1
  H+  H169  1  0.13897793  0.10653443  0.32416977  1
  H+  H170  1  0.20572299  0.83113288  0.31175642  1
  H+  H171  1  0.79695346  0.15895482  0.33801568  1
  H+  H172  1  0.38979415  0.36389359  0.17788570  1
  H+  H173  1  0.02428546  0.63842875  0.00037766  1
  H+  H174  1  0.12884348  0.21453300  0.16555743  1
  H+  H175  1  0.62977966  0.84536762  0.66245318  1
  H+  H176  1  0.34857598  0.47463883  0.33797868  1
  H+  H177  1  0.12373956  0.13426992  0.82858907  1
  H+  H178  1  0.64085720  0.35519808  1.01165879  1
  H+  H179  1  0.06347846  0.40694949  0.42887432  1
  H+  H180  1  0.77042627  0.39937007  0.47394347  1
  H+  H181  1  0.10751093  0.96804886  0.65772802  1
  H+  H182  1  0.63124255  0.85055737  0.51965635  1
  H+  H183  1  0.59915194  0.94669112  0.57516083  1
  H+  H184  1  0.69639621  0.05735800  0.18186811  1
  H+  H185  1  0.11229781  0.59223796  0.32222899  1
  H+  H186  1  -0.00236331  0.37848241  0.17477098  1
  H+  H187  1  0.26637113  0.61808397  0.66181976  1
  H+  H188  1  0.89990520  0.78583582  0.84796407  1
  H+  H189  1  0.51212430  0.86307671  0.67384679  1
  H+  H190  1  0.35928656  0.62987231  0.00754278  1
  H+  H191  1  0.42874240  0.05816135  0.32645815  1
  H+  H192  1  0.13012238  0.35788107  0.65688036  1
  H+  H193  1  0.89168696  0.09638756  0.99382255  1
  H+  H194  1  0.37692070  0.52112154  -0.00504973  1
  H+  H195  1  0.10265036  0.71997915  0.82944498  1
  H+  H196  1  0.55111146  0.16647153  0.33025257  1
  H+  H197  1  0.11574791  0.34719112  0.32184857  1
  H+  H198  1  0.13413454  0.35382792  -0.00750301  1
  H+  H199  1  0.71053897  0.62009563  0.84460300  1
  H+  H200  1  0.60890674  0.20795581  0.67223195  1
  H+  H201  1  0.90221284  0.38277565  0.18104595  1
  H+  H202  1  0.35977838  0.22106570  0.67372249  1
  H+  H203  1  0.36684430  0.73730092  0.83886738  1
  H+  H204  1  0.27289249  0.37794326  0.16239016  1
  H+  H205  1  0.47344244  0.10401738  0.99994544  1
  H+  H206  1  0.78373795  0.38431275  0.01799668  1
  H+  H207  1  0.02011180  0.87832820  0.66772720  1
  H+  H208  1  0.86598982  0.75424933  0.68035746  1
  H+  H209  1  0.65811564  1.04681650  0.32609893  1
  H+  H210  1  0.85874278  0.88909194  0.32742747  1
  H+  H211  1  0.13231377  0.36195884  0.50240764  1
  H+  H212  1  0.12007427  0.06044555  0.17502855  1
  H+  H213  1  0.97793162  0.11175180  0.32955834  1
  H+  H214  1  0.47554092  0.35062252  0.66154378  1
  H+  H215  1  0.98712058  0.12712590  0.50889774  1
  H+  H216  1  0.96496560  0.63171939  0.69833973  1
  H+  H217  1  0.62033907  0.59721093  0.33585486  1
  H+  H218  1  0.11439588  0.47151904  0.15281014  1
  H+  H219  1  0.62094375  0.84664418  0.16437042  1
  H+  H220  1  0.59767485  0.39795509  0.84035677  1
  H+  H221  1  0.85376584  0.39131537  0.46908274  1
  H+  H222  1  0.81593151  0.36512177  0.84174358  1
  H+  H223  1  0.13267972  0.10927496  0.99459127  1
  H+  H224  1  0.11191829  0.21347674  0.00255848  1
  H+  H225  1  0.06904683  0.44760193  0.32748881  1
  H+  H226  1  0.46787423  0.10980331  0.47048862  1
  H+  H227  1  0.52069050  0.12158567  0.68169227  1
  H+  H228  1  0.96823940  0.36770131  0.50068439  1
  H+  H229  1  0.47276330  0.60782786  0.66832452  1
  H+  H230  1  0.85808005  0.96947058  0.16681316  1
  H+  H231  1  0.78652515  0.91697264  -0.00723937  1
  H+  H232  1  0.57963135  0.95267074  0.14916416  1
  H+  H233  1  0.38338539  0.76642162  0.99542104  1
  H+  H234  1  0.70405764  0.37789995  0.85849722  1
  H+  H235  1  0.12244293  0.14350149  0.49203076  1
  H+  H236  1  0.26579726  0.15111242  0.16201451  1
  H+  H237  1  0.37894946  0.60963212  0.66002009  1
  H+  H238  1  0.37363504  0.89217290  0.84593334  1
  H+  H239  1  0.28262590  0.68640439  0.36276974  1
  H+  H240  1  0.38128772  0.11254947  0.69052962  1
  H+  H241  1  0.15168729  0.87383115  0.50326721  1
  H+  H242  1  0.75578401  0.36154721  0.68174895  1
  H+  H243  1  0.85830557  0.17901643  0.07142176  1
  H+  H244  1  0.71900894  0.60691625  -0.00883964  1
  H+  H245  1  0.92262691  0.29040934  0.33345949  1
  H+  H246  1  0.60442378  -0.03619882  0.82375781  1
  H+  H247  1  0.85491688  0.72152132  0.34455114  1
  H+  H248  1  0.57665821  0.42408882  0.44233635  1
  H+  H249  1  0.26731195  0.38761761  0.82572454  1
  H+  H250  1  0.47436706  0.85474929  0.99382512  1
  H+  H251  1  0.89279996  0.52199402  0.00068035  1
  H+  H252  1  0.81467335  0.17063496  0.16289252  1
  H+  H253  1  0.61201698  0.76183702  0.83290126  1
  H+  H254  1  0.98520374  0.10326894  0.17740944  1
  H+  H255  1  0.24924431  0.63670262  0.84543575  1
  H+  H256  1  0.53521856  0.90531509  0.33134289  1
  H+  H257  1  0.10884094  0.46680187  0.00373059  1
  H+  H258  1  0.03129024  0.90262300  0.83358797  1
  H+  H259  1  0.37840243  0.02246283  0.46943989  1
  H+  H260  1  0.60724905  0.47664547  0.34218629  1
  H+  H261  1  0.37711181  0.60531860  0.16560526  1
  H+  H262  1  0.88019014  0.14759273  0.34081656  1
  H+  H263  1  0.13502996  0.11102172  0.65810756  1
  H+  H264  1  -0.01760019  0.67428731  0.71403665  1
  H+  H265  1  0.86021222  0.64067153  0.83718308  1
  H+  H266  1  0.86984570  0.51422638  0.34736050  1
  H+  H267  1  0.21131319  0.36079893  0.32680560  1
  H+  H268  1  0.97401153  0.60575025  0.84622935  1
  H+  H269  1  0.35130661  0.71196642  0.66621386  1
  H+  H270  1  0.22329079  0.10989372  0.66058666  1
  H+  H271  1  0.42493335  0.09802139  0.77364656  1
  H+  H272  1  0.95968438  0.78487491  0.28844280  1
  H+  H273  1  0.63297701  0.37948986  0.50026502  1
  H+  H274  1  1.01036718  0.61996863  0.34574167  1
  H+  H275  1  0.59730888  0.70429220  0.50475088  1
  H+  H276  1  0.38628283  0.27429124  0.18027530  1
  H+  H277  1  0.85804970  0.63041961  0.00975170  1
  H+  H278  1  0.57626530  0.89876696  0.05731969  1
  H+  H279  1  0.27353569  0.13544664  0.51316122  1
  H+  H280  1  0.47410986  0.36111957  0.50403190  1
  H+  H281  1  0.93623959  0.80648794  0.49338183  1
  H+  H282  1  0.65397156  0.79124574  0.99090446  1
  H+  H283  1  0.14840373  0.73288763  0.68073190  1
  H+  H284  1  0.60880887  0.62669642  0.16480751  1
  H+  H285  1  0.22397092  0.10952287  -0.00433397  1
  H+  H286  1  0.40696679  0.88744848  0.32563409  1
  H+  H287  1  0.86462296  0.47153218  0.16688229  1
  H+  H288  1  0.90420936  0.33526622  0.55826217  1
  H+  H289  1  0.32474844  0.42778609  0.73742100  1
  H+  H290  1  0.07628973  0.40611344  0.09602062  1
  H+  H291  1  0.31829713  0.90129456  0.74211674  1
  H+  H292  1  0.61296749  0.22144605  0.16285878  1
  H+  H293  1  0.81291604  0.89905860  0.42419373  1
  H+  H294  1  0.61571564  0.98008644  0.50939912  1
  H+  H295  1  0.14621840  0.81644788  0.25547333  1
  H+  H296  1  0.92422908  0.09089543  0.60431341  1
  H+  H297  1  0.27108725  0.14360773  0.83393552  1
  H+  H298  1  0.92488256  0.08576309  0.23494412  1
  H+  H299  1  0.33089508  0.16913643  0.06596538  1
  H+  H300  1  0.59844572  0.92711212  0.38708665  1
  H+  H301  1  0.81039233  0.91647366  0.76490053  1
  H+  H302  1  0.15395202  0.57158364  0.22387672  1
  H+  H303  1  0.59964370  0.48702910  0.83092753  1
  H+  H304  1  0.85158080  0.41669645  0.10449248  1
  H+  H305  1  0.88816735  0.70152412  0.42990844  1
  H+  H306  1  0.64519622  0.24990139  0.34426356  1
  H+  H307  1  0.95699597  0.87388638  0.54851504  1
  H+  H308  1  0.16769327  0.33479598  0.59883505  1
  H+  H309  1  0.09436250  0.16399324  0.76802041  1
  H+  H310  1  0.71951157  0.06380965  0.95496772  1
  H+  H311  1  0.17102647  0.08803274  0.56715374  1
  H+  H312  1  0.64498787  0.07035945  0.89429105  1
  H+  H313  1  0.05170664  0.91361523  0.48402910  1
  H+  H314  1  0.41839156  0.05862580  0.57963402  1
  H+  H315  1  0.82692988  0.66529867  0.77824564  1
  H+  H316  1  0.60349684  0.68548122  0.06934990  1
  H+  H317  1  0.87908244  0.60576255  0.19172892  1
  H+  H318  1  0.69435883  0.10981765  0.23863298  1
  H+  H319  1  0.36273451  0.93425634  0.40305745  1
  H+  H320  1  0.63368082  0.56362207  0.61277508  1
  H+  H321  1  0.39909229  0.82615390  0.60520770  1
  H+  H322  1  0.32687400  0.41592349  0.43508746  1
  H+  H323  1  0.84441177  0.18327718  0.42565239  1
  H+  H324  1  0.17829886  0.83251740  0.60079977  1
  H+  H325  1  0.32902151  0.40954747  0.06760846  1
  H+  H326  1  0.80929449  0.40127457  0.77683301  1
  H+  H327  1  0.32386099  0.65866251  0.09715338  1
  H+  H328  1  0.69128461  0.36660658  0.55037401  1
  H+  H329  1  0.42319381  0.83757596  0.90424760  1
  H+  H330  1  0.56159785  0.63075044  0.41805862  1
  H+  H331  1  0.16174196  0.83384142  0.89190584  1
  H+  H332  1  0.94664859  0.36054509  0.24487262  1
  H+  H333  1  0.40845485  0.33712658  0.27267958  1
  H+  H334  1  0.58426199  0.63882507  0.82361786  1
  H+  H335  1  0.35222777  0.38782705  0.33871771  1
  H+  H336  1  0.66054460  0.34011431  0.92171788  1
  H+  H337  1  0.92879458  0.84451427  0.90677218  1
  H+  H338  1  0.16734773  0.32544541  0.93401509  1
  H+  H339  1  0.66286176  0.81517365  0.60476975  1
  H+  H340  1  0.58845232  0.15671176  0.06910515  1
  H+  H341  1  0.09925222  0.68331998  0.04999968  1
  H+  H342  1  0.32715305  0.90960445  0.09865889  1
  H+  H343  1  0.16111842  0.32430252  0.23067461  1
  H+  H344  1  0.81597473  0.65438079  0.06463474  1
  H+  H345  1  0.44677955  0.10659189  0.57977706  1
  H+  H346  1  0.43649833  0.10291277  0.26246911  1
  H+  H347  1  0.11619112  0.98201359  0.00519818  1
  H+  H348  1  0.90955136  0.83405595  0.23221832  1
  H+  H349  1  0.17105935  0.08560521  0.90376143  1
  H+  H350  1  0.32226138  0.17099073  0.73693988  1
  H+  H351  1  0.66195805  0.83518535  0.92531986  1
  H+  H352  1  0.89734435  0.56401551  0.28460541  1
  H+  H353  1  0.27081069  0.63161766  0.00627616  1
  H+  H354  1  0.59543983  0.18125486  0.42597846  1
  H+  H355  1  0.40334663  0.57219423  0.57028432  1
  H+  H356  1  0.40791513  0.82887049  0.23144655  1
  H+  H357  1  0.61473716  0.29968613  0.61486201  1
  H+  H358  1  0.87791153  0.80035966  0.61921994  1
  H+  H359  1  0.83034402  0.61694371  0.67720731  1
  H+  H360  1  0.40599869  0.58315056  0.22729421  1
  H+  H361  1  0.55614328  0.65778704  0.74548676  1
  H+  H362  1  0.15241115  0.56559245  0.59883526  1
  H+  H363  1  0.06700347  0.39602972  0.72635787  1
  H+  H364  1  0.02631729  0.60937770  0.11693133  1
  H+  H365  1  0.22366745  0.36542330  0.50365031  1
  H+  H366  1  0.40441734  0.33289149  0.93375098  1
  H+  H367  1  0.98507323  0.60823322  0.50826715  1
  H+  H368  1  0.22104184  0.60575193  0.50602474  1
  H+  H369  1  0.59987790  0.15946822  0.75993739  1
  H+  H370  1  0.57677430  0.41252982  0.74139221  1
  H+  H371  1  0.83669327  0.45145035  0.67647378  1
  H+  H372  1  0.08703203  0.66929372  0.43517261  1
  H+  H373  1  0.11291909  0.93724491  0.42761587  1
  H+  H374  1  0.91053665  0.32101642  0.93014738  1
  H+  H375  1  0.66639571  0.83255542  0.25735607  1
  H+  H376  1  0.41850394  0.32372782  0.60118077  1
  H+  H377  1  0.66645604  0.58178109  0.23911932  1
  H+  H378  1  0.16852903  0.57424651  0.92997633  1
  H+  H379  1  0.28976214  0.84424784  0.44339909  1
  H+  H380  1  0.87155218  0.38345256  1.00808767  1
  H+  H381  1  0.88015419  0.55586822  0.59057265  1
  H+  H382  1  0.68204656  0.58690431  0.52987480  1
  H+  H383  1  0.11623771  0.89275181  1.00418426  1
  O2-  O384  1  0.09949024  0.15232463  0.15357683  1
  O2-  O385  1  0.08999252  0.17013450  0.47488383  1
  O2-  O386  1  0.09419013  0.16567451  0.81313580  1
  O2-  O387  1  0.08004360  0.40923056  0.14208995  1
  O2-  O388  1  0.06966729  0.41051880  0.47351313  1
  O2-  O389  1  0.06548232  0.37857037  0.80886003  1
  O2-  O390  1  0.06565941  0.64898026  0.14735976  1
  O2-  O391  1  0.08982985  0.67059037  0.48018922  1
  O2-  O392  1  0.07504434  0.65767506  0.81846503  1
  O2-  O393  1  0.13268659  0.95389817  0.13896335  1
  O2-  O394  1  0.11378320  0.93898863  0.47335459  1
  O2-  O395  1  0.09074252  0.93621790  0.81538101  1
  O2-  O396  1  0.32491539  0.17147295  0.14731698  1
  O2-  O397  1  0.34056752  0.16515617  0.51243932  1
  O2-  O398  1  0.33043247  0.18089776  0.81532779  1
  O2-  O399  1  0.33337694  0.40864748  0.14745881  1
  O2-  O400  1  0.32773821  0.41181351  0.48011274  1
  O2-  O401  1  0.32646507  0.42428992  0.80845038  1
  O2-  O402  1  0.32034152  0.65516248  0.14344076  1
  O2-  O403  1  0.33150392  0.66627559  0.48612793  1
  O2-  O404  1  0.33175560  0.67531989  0.82825186  1
  O2-  O405  1  0.32685816  0.91043540  0.14461464  1
  O2-  O406  1  0.33344527  0.89878662  0.46071515  1
  O2-  O407  1  0.33863847  0.92317331  0.84071932  1
  O2-  O408  1  0.58156929  0.16094939  0.14689395  1
  O2-  O409  1  0.59027439  0.17595666  0.47164165  1
  O2-  O410  1  0.60257772  0.16927110  0.80449014  1
  O2-  O411  1  0.59114086  0.40246611  0.16756928  1
  O2-  O412  1  0.57512630  0.41587544  0.48699775  1
  O2-  O413  1  0.56972949  0.42503542  0.81738302  1
  O2-  O414  1  0.58040429  0.65821074  0.14901308  1
  O2-  O415  1  0.56167482  0.64282401  0.49272211  1
  O2-  O416  1  0.55391989  0.66670185  0.80640174  1
  O2-  O417  1  0.55676464  0.89284751  0.13785785  1
  O2-  O418  1  0.58636697  0.92641665  0.53282888  1
  O2-  O419  1  0.57105163  0.90286609  0.81027694  1
  O2-  O420  1  0.86962187  0.18668630  0.14329214  1
  O2-  O421  1  0.83523614  0.18325943  0.47191083  1
  O2-  O422  1  0.81012746  0.16378429  0.80228997  1
  O2-  O423  1  0.84809729  0.41373996  0.15033400  1
  O2-  O424  1  0.82619771  0.42245758  0.45167970  1
  O2-  O425  1  0.80858355  0.40954233  0.82177189  1
  O2-  O426  1  0.85763821  0.67589423  0.15254062  1
  O2-  O427  1  0.93260056  0.72537924  0.46218597  1
  O2-  O428  1  0.82960613  0.67043991  0.82312050  1
  O2-  O429  1  0.82818419  0.90836585  0.15476863  1
  O2-  O430  1  0.80683759  0.89040336  0.46869047  1
  O2-  O431  1  0.80005987  0.91120241  0.80906534  1
  O2-  O432  1  0.15322033  0.12259038  0.18329066  1
  O2-  O433  1  0.17992438  0.09515894  0.52142476  1
  O2-  O434  1  0.17591682  0.08936899  0.85825264  1
  O2-  O435  1  0.16576060  0.32204826  0.18550321  1
  O2-  O436  1  0.16305082  0.33355992  0.51911459  1
  O2-  O437  1  0.17005636  0.32167900  0.85581931  1
  O2-  O438  1  0.15721032  0.57683025  0.17887758  1
  O2-  O439  1  0.15872028  0.57308820  0.51622478  1
  O2-  O440  1  0.17905756  0.59749004  0.85436286  1
  O2-  O441  1  0.15319608  0.82680591  0.18160861  1
  O2-  O442  1  0.17701846  0.83865037  0.51811450  1
  O2-  O443  1  0.15779019  0.82632686  0.84668788  1
  O2-  O444  1  0.41045215  0.08393147  0.18419645  1
  O2-  O445  1  0.40615341  0.08447187  0.46122920  1
  O2-  O446  1  0.42993116  0.10517727  0.81925608  1
  O2-  O447  1  0.41762074  0.33349843  0.19727049  1
  O2-  O448  1  0.41198056  0.32659716  0.51773599  1
  O2-  O449  1  0.40504713  0.34314506  0.85630107  1
  O2-  O450  1  0.40761581  0.57635242  0.18293490  1
  O2-  O451  1  0.40172794  0.57390524  0.52493677  1
  O2-  O452  1  0.41038476  0.59344386  0.85880739  1
  O2-  O453  1  0.40021476  0.82068885  0.18661344  1
  O2-  O454  1  0.40671559  0.82938397  0.52613963  1
  O2-  O455  1  0.42062992  0.84226619  0.85901728  1
  O2-  O456  1  0.69411523  0.10868486  0.19261100  1
  O2-  O457  1  0.68573978  0.10814776  0.50273017  1
  O2-  O458  1  0.65010075  0.06866832  0.84997496  1
  O2-  O459  1  0.67493917  0.32327587  0.19261243  1
  O2-  O460  1  0.67111911  0.35169147  0.50868463  1
  O2-  O461  1  0.64994188  0.35716464  0.88107872  1
  O2-  O462  1  0.66606651  0.57890639  0.19351444  1
  O2-  O463  1  0.62175542  0.55286335  0.54124212  1
  O2-  O464  1  0.64918331  0.58879937  0.85616428  1
  O2-  O465  1  0.65583887  0.82331277  0.18139088  1
  O2-  O466  1  0.65667267  0.81349391  0.52481901  1
  O2-  O467  1  0.64534473  0.82251520  0.85096293  1
  O2-  O468  1  0.92510101  0.08251550  0.18968033  1
  O2-  O469  1  0.93031372  0.10371429  0.52899052  1
  O2-  O470  1  0.91553198  0.06820938  0.85029556  1
  O2-  O471  1  0.94095903  0.36035441  0.19914295  1
  O2-  O472  1  0.90596584  0.33789261  0.51262977  1
  O2-  O473  1  0.90307798  0.31049974  0.84296032  1
  O2-  O474  1  0.90332192  0.56965922  0.20735057  1
  O2-  O475  1  0.92260224  0.58028714  0.51832695  1
  O2-  O476  1  0.91458118  0.57959310  0.86417509  1
  O2-  O477  1  0.89861048  0.82348272  0.18851848  1
  O2-  O478  1  0.94703527  0.86613152  0.50498900  1
  O2-  O479  1  0.93701794  0.84504425  0.86226275  1
  O2-  O480  1  0.16840787  0.07521903  0.31076792  1
  O2-  O481  1  0.16503539  0.08119756  0.64113987  1
  O2-  O482  1  0.16424053  0.07719941  0.97987257  1
  O2-  O483  1  0.15330183  0.32487128  0.30841171  1
  O2-  O484  1  0.16838472  0.33507086  0.64424429  1
  O2-  O485  1  0.16743391  0.32624030  0.97947859  1
  O2-  O486  1  0.13233236  0.55373829  0.30303150  1
  O2-  O487  1  0.15526766  0.56041844  0.64352897  1
  O2-  O488  1  0.16342853  0.57078724  0.97539407  1
  O2-  O489  1  0.14603677  0.81115105  0.30138222  1
  O2-  O490  1  0.17515293  0.83205922  0.64584880  1
  O2-  O491  1  0.17034047  0.84051871  0.96928485  1
  O2-  O492  1  0.45010143  0.11501192  0.30655639  1
  O2-  O493  1  0.41651866  0.08428464  0.69969792  1
  O2-  O494  1  0.41229466  0.07128708  0.98831954  1
  O2-  O495  1  0.40458015  0.33980084  0.31828269  1
  O2-  O496  1  0.41643681  0.31596973  0.64563449  1
  O2-  O497  1  0.40926566  0.32918721  0.97897563  1
  O2-  O498  1  0.42070890  0.62273684  0.30694860  1
  O2-  O499  1  0.41020774  0.57511211  0.64942419  1
  O2-  O500  1  0.40248378  0.58197751  0.98258299  1
  O2-  O501  1  0.43065266  0.85020100  0.31042560  1
  O2-  O502  1  0.40174804  0.82084983  0.65013008  1
  O2-  O503  1  0.41266044  0.82756809  0.98104296  1
  O2-  O504  1  0.69237173  0.10809071  0.31338925  1
  O2-  O505  1  0.66858407  0.08028429  0.61538893  1
  O2-  O506  1  0.67594611  0.06704169  0.97946802  1
  O2-  O507  1  0.77401477  0.37129815  0.29408486  1
  O2-  O508  1  0.64811775  0.32334692  0.65184794  1
  O2-  O509  1  0.67713373  0.33017758  1.00027658  1
  O2-  O510  1  0.65709424  0.57567099  0.31610810  1
  O2-  O511  1  0.64428995  0.57021826  0.65891314  1
  O2-  O512  1  0.65813321  0.58191802  0.97854297  1
  O2-  O513  1  0.67252869  0.83942370  0.30250352  1
  O2-  O514  1  0.66412684  0.81737023  0.64999429  1
  O2-  O515  1  0.67215917  0.84786851  0.97020931  1
  O2-  O516  1  0.91755463  0.08854736  0.31412384  1
  O2-  O517  1  0.92079903  0.08709928  0.64991767  1
  O2-  O518  1  0.92487604  0.07392032  0.97296363  1
  O2-  O519  1  0.95351492  0.35227813  0.31933349  1
  O2-  O520  1  0.90276865  0.32222708  0.63639452  1
  O2-  O521  1  0.91574830  0.32723533  0.97473464  1
  O2-  O522  1  0.90248730  0.57169403  0.32988998  1
  O2-  O523  1  0.84206319  0.53545731  0.62742364  1
  O2-  O524  1  0.91961235  0.58276739  0.98626274  1
  O2-  O525  1  0.93959683  0.81835868  0.31077895  1
  O2-  O526  1  0.89732133  0.81295836  0.66117763  1
  O2-  O527  1  0.91811599  0.84264757  0.98839974  1
  O2-  O528  1  0.08499666  0.15303656  0.01578556  1
  O2-  O529  1  0.08045869  0.15777749  0.35205851  1
  O2-  O530  1  0.08745661  0.16487198  0.68696587  1
  O2-  O531  1  0.07824119  0.40725989  0.02080765  1
  O2-  O532  1  0.04165565  0.38747654  0.34396936  1
  O2-  O533  1  0.06595003  0.39866758  0.68145117  1
  O2-  O534  1  0.08877791  0.67082385  0.00666831  1
  O2-  O535  1  0.07407456  0.65034587  0.35220306  1
  O2-  O536  1  0.14390958  0.68114501  0.70024933  1
  O2-  O537  1  0.08824908  0.92195973  0.02407523  1
  O2-  O538  1  0.09343310  0.92438715  0.35293364  1
  O2-  O539  1  0.08151354  0.90478213  0.65845296  1
  O2-  O540  1  0.33253522  0.16383367  0.02115760  1
  O2-  O541  1  0.33070505  0.16592808  0.35046256  1
  O2-  O542  1  0.32425303  0.16163733  0.69215824  1
  O2-  O543  1  0.33010405  0.41109899  0.02234351  1
  O2-  O544  1  0.31859854  0.41607964  0.35370391  1
  O2-  O545  1  0.32623426  0.43166877  0.69084396  1
  O2-  O546  1  0.32961579  0.66295993  0.02364108  1
  O2-  O547  1  0.33833516  0.69158084  0.37035892  1
  O2-  O548  1  0.32758185  0.64965327  0.67424733  1
  O2-  O549  1  0.32871372  0.90947599  0.02226274  1
  O2-  O550  1  0.37689551  0.95285896  0.35483055  1
  O2-  O551  1  0.32677638  0.91121054  0.69840040  1
  O2-  O552  1  0.58972389  0.16038544  0.02362009  1
  O2-  O553  1  0.60808922  0.18707818  0.35120318  1
  O2-  O554  1  0.58454048  0.14617691  0.68027894  1
  O2-  O555  1  0.57932846  0.40810998  -0.00951185  1
  O2-  O556  1  0.57399287  0.41663856  0.35973364  1
  O2-  O557  1  0.58104876  0.40950826  0.69609050  1
  O2-  O558  1  0.61915949  0.70020011  0.02635392  1
  O2-  O559  1  0.56045559  0.62387239  0.37268274  1
  O2-  O560  1  0.55904395  0.64951268  0.69509190  1
  O2-  O561  1  0.57958916  0.90662915  0.01273210  1
  O2-  O562  1  0.59750423  0.93715576  0.34372728  1
  O2-  O563  1  0.57376079  0.89103751  0.68464556  1
  O2-  O564  1  0.84822395  0.17452589  0.02566951  1
  O2-  O565  1  0.85641513  0.18550969  0.35533773  1
  O2-  O566  1  0.81750357  0.15021451  0.67763720  1
  O2-  O567  1  0.84651416  0.41606104  0.02834640  1
  O2-  O568  1  0.71828926  0.35942610  0.34672900  1
  O2-  O569  1  0.81558947  0.39498187  0.69675828  1
  O2-  O570  1  0.82483672  0.65945623  0.02046330  1
  O2-  O571  1  0.82211808  0.66378044  0.36328168  1
  O2-  O572  1  0.80712151  0.65003054  0.69732091  1
  O2-  O573  1  0.84132790  0.94580289  0.01585690  1
  O2-  O574  1  0.82928521  0.91841778  0.34253595  1
  O2-  O575  1  0.82912285  0.92054254  0.68332113  1
