# generated using pymatgen
data_H2O
_symmetry_space_group_name_H-M   'P 1'
_cell_length_a   17.95727885
_cell_length_b   17.95965000
_cell_length_c   21.99341413
_cell_angle_alpha   90.00158627
_cell_angle_beta   90.00190192
_cell_angle_gamma   120.02022344
_symmetry_Int_Tables_number   1
_chemical_formula_structural   H2O
_chemical_formula_sum   'H384 O192'
_cell_volume   6141.48138052
_cell_formula_units_Z   192
loop_
 _symmetry_equiv_pos_site_id
 _symmetry_equiv_pos_as_xyz
  1  'x, y, z'
loop_
 _atom_type_symbol
 _atom_type_oxidation_number
  H+  1.0
  O2-  -2.0
loop_
 _atom_site_type_symbol
 _atom_site_label
 _atom_site_symmetry_multiplicity
 _atom_site_fract_x
 _atom_site_fract_y
 _atom_site_fract_z
 _atom_site_occupancy
  H+  H0  1  0.46775810  0.20893807  0.70266217  1
  H+  H1  1  0.35987966  0.47668117  1.00929733  1
  H+  H2  1  0.90026024  0.38941912  0.98312849  1
  H+  H3  1  -0.01428323  0.10565957  0.66088917  1
  H+  H4  1  0.88760392  0.12184261  -0.00409207  1
  H+  H5  1  0.86850685  0.49121702  0.81600425  1
  H+  H6  1  0.49689953  0.37858659  0.16936011  1
  H+  H7  1  0.47721622  0.88218721  0.16604665  1
  H+  H8  1  0.87831955  0.23427064  0.31536198  1
  H+  H9  1  0.53944748  0.40050633  0.00364457  1
  H+  H10  1  0.83583068  0.74630198  0.50000493  1
  H+  H11  1  0.60379922  0.72194861  0.34423355  1
  H+  H12  1  0.02151269  0.12737181  0.48512663  1
  H+  H13  1  0.37331732  0.36353975  0.33985047  1
  H+  H14  1  0.36136111  0.14859585  0.82640772  1
  H+  H15  1  0.77939489  0.38068190  0.35111504  1
  H+  H16  1  0.35091255  0.12432950  0.32344372  1
  H+  H17  1  0.16568145  0.71287471  0.32348277  1
  H+  H18  1  0.10853702  0.46031007  0.49091420  1
  H+  H19  1  0.47326832  0.61101050  0.16991163  1
  H+  H20  1  0.13931370  0.64810658  0.67364165  1
  H+  H21  1  0.38505113  0.02940496  0.16905593  1
  H+  H22  1  0.38793294  0.77421323  0.66271319  1
  H+  H23  1  0.72819099  0.11402207  0.33491309  1
  H+  H24  1  0.84805165  0.89186142  0.47997635  1
  H+  H25  1  0.90642267  0.86779339  0.64052946  1
  H+  H26  1  0.62530680  0.52284528  0.65981069  1
  H+  H27  1  0.76657352  0.64052344  0.16711010  1
  H+  H28  1  0.83982322  0.73892417  0.67190261  1
  H+  H29  1  0.11559124  0.38703518  -0.00131818  1
  H+  H30  1  0.73726259  0.38074871  0.83147446  1
  H+  H31  1  0.86817081  0.76592871  0.83298460  1
  H+  H32  1  0.62464974  0.51012223  0.50506455  1
  H+  H33  1  0.12277563  0.72928545  0.82747407  1
  H+  H34  1  0.51433227  0.07894045  0.69250936  1
  H+  H35  1  -0.02781301  0.85275140  0.30545864  1
  H+  H36  1  0.75595322  0.61879822  0.48369537  1
  H+  H37  1  0.37058121  0.28947966  0.67231956  1
  H+  H38  1  1.02318574  0.88808394  0.99749710  1
  H+  H39  1  0.25546634  0.14973102  0.68265377  1
  H+  H40  1  0.35400956  0.94464109  0.90590993  1
  H+  H41  1  0.38397230  0.26460740  0.51787188  1
  H+  H42  1  0.50286805  0.03300621  0.68789545  1
  H+  H43  1  0.27608182  0.36452814  0.34488755  1
  H+  H44  1  0.38406619  0.60970425  0.16886430  1
  H+  H45  1  0.27754791  0.64686030  0.17259640  1
  H+  H46  1  0.60268415  0.13578754  -0.00432725  1
  H+  H47  1  0.72667407  0.86303455  0.32907041  1
  H+  H48  1  0.33404231  0.78148957  0.29934466  1
  H+  H49  1  0.91751156  0.36540254  0.48845864  1
  H+  H50  1  0.10210993  0.86097548  0.52509771  1
  H+  H51  1  0.71336428  0.60866650  0.32603493  1
  H+  H52  1  0.76255427  0.43338781  0.55934674  1
  H+  H53  1  0.51696973  0.22274406  0.51788829  1
  H+  H54  1  0.63165796  0.24452155  0.83201855  1
  H+  H55  1  0.02733787  0.39115196  -0.00389219  1
  H+  H56  1  0.47455256  0.10960418  0.32583382  1
  H+  H57  1  0.64209629  0.23996543  0.18520137  1
  H+  H58  1  0.46975552  0.61796573  0.65871438  1
  H+  H59  1  0.11529039  0.48374913  0.84060068  1
  H+  H60  1  0.47606413  0.60271333  0.50900044  1
  H+  H61  1  0.23381996  0.86940570  0.85412456  1
  H+  H62  1  0.79064707  0.13011219  0.66757333  1
  H+  H63  1  0.37053403  0.47935940  0.15937257  1
  H+  H64  1  0.43690784  0.61689376  0.35396999  1
  H+  H65  1  0.91943654  0.39091243  0.17339810  1
  H+  H66  1  0.89583925  1.03065362  0.16002571  1
  H+  H67  1  0.72695670  0.20502489  0.21320313  1
  H+  H68  1  0.64880043  0.02291628  0.66084695  1
  H+  H69  1  0.78829808  0.43569019  0.58752397  1
  H+  H70  1  0.59556916  0.08421338  0.49544898  1
  H+  H71  1  0.32849513  0.67424823  0.76421928  1
  H+  H72  1  0.46024460  0.20347246  0.73644112  1
  H+  H73  1  0.60149882  0.43512413  0.09400922  1
  H+  H74  1  0.54118752  0.15698735  0.82665031  1
  H+  H75  1  0.59533780  0.11648163  0.14255034  1
  H+  H76  1  0.99080172  0.34348451  0.48209506  1
  H+  H77  1  0.80882328  0.17339472  0.15740247  1
  H+  H78  1  0.11110191  0.12932059  0.32680233  1
  H+  H79  1  0.38396893  0.86200302  0.65601476  1
  H+  H80  1  0.35456052  0.64250471  0.82455579  1
  H+  H81  1  0.37843648  0.02551073  0.98946897  1
  H+  H82  1  0.72999373  0.86829951  0.84393809  1
  H+  H83  1  0.63733910  0.26924380  0.34626300  1
  H+  H84  1  0.57835397  0.31996025  0.50326651  1
  H+  H85  1  0.09866831  0.42735344  0.09041560  1
  H+  H86  1  0.26689508  0.89201469  0.16554716  1
  H+  H87  1  -0.03553032  0.84371855  0.82709754  1
  H+  H88  1  0.13621606  0.11949188  0.99985455  1
  H+  H89  1  0.61399029  0.96983321  0.35082491  1
  H+  H90  1  0.53165930  0.64224469  0.82423908  1
  H+  H91  1  0.98073632  0.62827344  0.82705822  1
  H+  H92  1  0.22870460  0.53491278  0.34074847  1
  H+  H93  1  0.07339542  0.91404831  0.06068756  1
  H+  H94  1  0.17054883  0.09441402  0.90749587  1
  H+  H95  1  0.87104071  0.52600409  0.16514253  1
  H+  H96  1  1.05340831  0.40775869  0.15447265  1
  H+  H97  1  0.63463825  0.27590293  0.66245019  1
  H+  H98  1  0.92211888  0.08027250  0.25636049  1
  H+  H99  1  0.29910936  0.87558434  0.34237421  1
  H+  H100  1  -0.02175310  0.83745668  0.43521775  1
  H+  H101  1  0.89758209  0.10754834  0.66247372  1
  H+  H102  1  0.14238587  0.12546867  0.84846035  1
  H+  H103  1  0.36818513  0.46512155  0.49223025  1
  H+  H104  1  0.13977825  0.24791170  0.67525994  1
  H+  H105  1  0.66501508  0.39704307  0.98815741  1
  H+  H106  1  0.86298657  0.89662160  0.15279917  1
  H+  H107  1  0.13234309  0.86489345  -0.00272294  1
  H+  H108  1  0.85630861  0.64279097  0.16597076  1
  H+  H109  1  0.95582512  0.51543912  0.47650339  1
  H+  H110  1  0.11257840  0.72639469  1.02540129  1
  H+  H111  1  0.96848384  0.60614647  0.17354611  1
  H+  H112  1  0.86073198  0.89177774  0.33868333  1
  H+  H113  1  0.26468282  0.63817227  1.00961925  1
  H+  H114  1  0.39996191  0.12673174  0.16702111  1
  H+  H115  1  0.36398973  0.70901313  0.49027086  1
  H+  H116  1  0.87782278  1.01139172  0.49289806  1
  H+  H117  1  0.13518123  0.49128575  0.65322144  1
  H+  H118  1  0.20894114  0.66603912  0.25373397  1
  H+  H119  1  0.75432130  0.63241543  0.82554607  1
  H+  H120  1  0.12621453  0.88400744  0.66204991  1
  H+  H121  1  0.62237040  0.60662287  0.33071540  1
  H+  H122  1  0.51601573  0.64807543  0.01765066  1
  H+  H123  1  0.03598470  0.88148236  0.65713683  1
  H+  H124  1  0.13698096  0.01205813  0.65701769  1
  H+  H125  1  1.04854480  0.39867823  0.64973956  1
  H+  H126  1  0.10874430  0.89115164  0.33576622  1
  H+  H127  1  0.51394216  0.12788690  0.15507441  1
  H+  H128  1  0.86777671  0.40155273  0.81537098  1
  H+  H129  1  0.85340923  0.64744427  0.81230472  1
  H+  H130  1  0.09578289  0.88123569  0.15443551  1
  H+  H131  1  0.53464784  0.77938619  0.22690946  1
  H+  H132  1  0.64195900  0.87248974  0.99372345  1
  H+  H133  1  0.08553837  0.57389998  0.35492557  1
  H+  H134  1  0.42142887  0.85522617  0.32176899  1
  H+  H135  1  0.11464887  0.63940076  1.02493330  1
  H+  H136  1  0.10970708  0.64102483  0.18147494  1
  H+  H137  1  0.00390826  0.87708997  0.15410938  1
  H+  H138  1  0.88695135  0.28195777  0.83037788  1
  H+  H139  1  0.39471869  0.28379120  0.99421922  1
  H+  H140  1  0.61888833  0.89298584  0.82656096  1
  H+  H141  1  0.86993237  0.14599189  0.82706828  1
  H+  H142  1  0.13827401  0.73878550  0.67713841  1
  H+  H143  1  0.74538379  0.60006640  -0.02928223  1
  H+  H144  1  0.64182019  0.61222333  0.83492430  1
  H+  H145  1  0.22346728  0.62445650  0.84510159  1
  H+  H146  1  0.63200196  0.61860366  0.17523112  1
  H+  H147  1  0.36449286  0.62015918  0.49524154  1
  H+  H148  1  0.38595578  0.86133005  0.99986755  1
  H+  H149  1  0.63887340  -0.00539439  0.16502688  1
  H+  H150  1  0.02724874  0.39515527  0.83123262  1
  H+  H151  1  0.10799527  0.44968976  0.39960713  1
  H+  H152  1  0.61134922  0.87203309  0.49417863  1
  H+  H153  1  0.13720753  0.27318765  0.99452226  1
  H+  H154  1  0.86899711  0.13997207  0.30869159  1
  H+  H155  1  0.23940860  0.86029022  0.65254112  1
  H+  H156  1  0.11940474  0.77224452  0.19447943  1
  H+  H157  1  0.52707841  0.89208264  0.01180587  1
  H+  H158  1  0.67109732  0.08893817  0.93022347  1
  H+  H159  1  0.61634551  0.38479065  0.34221036  1
  H+  H160  1  0.87400488  0.77114444  0.16610846  1
  H+  H161  1  0.64164071  0.03047897  0.83584026  1
  H+  H162  1  0.87252035  0.89107306  0.83361011  1
  H+  H163  1  0.61016240  0.13424508  0.35086259  1
  H+  H164  1  0.36392889  0.40065212  0.67637120  1
  H+  H165  1  0.23175785  0.35258283  0.49720998  1
  H+  H166  1  0.82330593  0.65891910  0.38964940  1
  H+  H167  1  0.22853939  0.36195302  0.99648090  1
  H+  H168  1  0.34528935  -0.01185456  0.65773592  1
  H+  H169  1  0.18736651  0.20546841  0.70726134  1
  H+  H170  1  0.63646418  0.86181776  0.33909523  1
  H+  H171  1  0.34242737  0.41788042  0.10036631  1
  H+  H172  1  0.13106889  0.38400480  0.47421300  1
  H+  H173  1  0.13261077  0.61964341  0.84361516  1
  H+  H174  1  0.20660294  0.81438992  0.50259499  1
  H+  H175  1  0.11639970  0.24087065  0.83430234  1
  H+  H176  1  0.89990950  0.25337466  0.14871883  1
  H+  H177  1  0.62972622  0.49072611  -0.00417295  1
  H+  H178  1  0.36329160  0.13250995  0.50596592  1
  H+  H179  1  0.88684525  0.85373058  -0.01444677  1
  H+  H180  1  0.11678025  0.96691393  0.29414077  1
  H+  H181  1  0.91574918  0.26701840  0.64277937  1
  H+  H182  1  0.80033107  0.43540744  -0.00917603  1
  H+  H183  1  0.65735502  0.57332589  0.56370487  1
  H+  H184  1  0.38042333  0.84462520  0.50809856  1
  H+  H185  1  0.35515912  0.89108194  0.15882759  1
  H+  H186  1  0.02223220  0.60887735  0.33693659  1
  H+  H187  1  0.13624510  0.52581596  0.99547042  1
  H+  H188  1  0.09954526  0.67397455  0.76455544  1
  H+  H189  1  0.02601600  0.13577607  0.32933289  1
  H+  H190  1  0.26590480  0.64172365  0.67346103  1
  H+  H191  1  0.38045581  0.52886416  0.66238457  1
  H+  H192  1  0.90330926  0.57547622  -0.01902164  1
  H+  H193  1  0.13084062  0.09868312  0.65665872  1
  H+  H194  1  0.27574235  0.14713250  0.00619752  1
  H+  H195  1  0.36714831  0.39059858  0.00593805  1
  H+  H196  1  0.13741522  0.10559230  0.50231848  1
  H+  H197  1  0.70528769  0.62231327  0.66013673  1
  H+  H198  1  0.59844034  0.72599672  0.17030088  1
  H+  H199  1  0.72070490  0.33386995  0.18162766  1
  H+  H200  1  0.85506257  0.62980967  0.33151728  1
  H+  H201  1  0.40196170  0.04448139  0.83891449  1
  H+  H202  1  0.85751836  0.20990310  0.48136893  1
  H+  H203  1  0.85649402  0.12182197  0.48699705  1
  H+  H204  1  0.72189450  0.86161286  0.64785176  1
  H+  H205  1  0.64699290  0.12311283  0.83900331  1
  H+  H206  1  0.11537944  0.72525957  0.50990312  1
  H+  H207  1  0.08089228  0.56045495  0.51546635  1
  H+  H208  1  0.38518412  0.77175515  1.00274103  1
  H+  H209  1  0.02414758  0.77793962  0.77547652  1
  H+  H210  1  0.59203394  0.38010715  0.67263893  1
  H+  H211  1  1.03318126  0.14880856  0.15480083  1
  H+  H212  1  0.67149762  0.16718217  0.68072111  1
  H+  H213  1  0.77603884  0.15265717  0.00063834  1
  H+  H214  1  0.21494745  0.09945144  0.30568654  1
  H+  H215  1  0.52163499  -0.11347619  0.67098008  1
  H+  H216  1  0.27310536  0.39647661  0.67107864  1
  H+  H217  1  0.34165781  0.95142451  0.50350182  1
  H+  H218  1  0.98222800  0.80520827  0.41593754  1
  H+  H219  1  0.47012387  0.37005274  0.66903289  1
  H+  H220  1  0.73479135  0.87120966  0.49166040  1
  H+  H221  1  0.88800957  0.53393845  0.67435155  1
  H+  H222  1  0.13746890  0.03024750  0.99832667  1
  H+  H223  1  0.60658371  0.73564633  1.01287711  1
  H+  H224  1  0.90235081  0.12398958  0.16192623  1
  H+  H225  1  0.96455337  0.62064314  0.51542537  1
  H+  H226  1  0.57999787  0.90580087  0.40679544  1
  H+  H227  1  0.26883803  0.14399055  0.83853200  1
  H+  H228  1  0.40554831  0.37662597  0.16868468  1
  H+  H229  1  0.62346928  0.49151137  0.82574506  1
  H+  H230  1  0.35682314  0.63980985  0.67717481  1
  H+  H231  1  0.52944720  0.89128064  0.82946127  1
  H+  H232  1  0.41309161  0.57302793  0.56737720  1
  H+  H233  1  0.73912550  0.39186147  0.08856803  1
  H+  H234  1  0.17136393  0.37379794  0.31956626  1
  H+  H235  1  0.02224097  0.14101149  0.00853953  1
  H+  H236  1  0.21534651  0.65236445  0.60607949  1
  H+  H237  1  0.61043752  0.62961593  0.49430307  1
  H+  H238  1  0.41367342  0.81973934  0.56774423  1
  H+  H239  1  0.77794786  0.16445404  0.24630563  1
  H+  H240  1  0.38291056  0.36856534  0.84091691  1
  H+  H241  1  0.62672041  0.49074401  0.15632402  1
  H+  H242  1  0.41368297  0.83757614  0.22314387  1
  H+  H243  1  0.35726264  0.18202762  0.09492880  1
  H+  H244  1  1.01011123  0.65631116  0.67631820  1
  H+  H245  1  0.36749098  0.37456713  0.49890296  1
  H+  H246  1  0.35283392  0.21305165  0.32000929  1
  H+  H247  1  0.64367946  0.00835948  0.51162424  1
  H+  H248  1  0.11888763  1.02084740  0.15905421  1
  H+  H249  1  0.60671045  0.72721233  0.66541413  1
  H+  H250  1  0.90215418  0.37443794  0.32642089  1
  H+  H251  1  0.13642347  0.37369309  0.84637492  1
  H+  H252  1  0.13301464  0.11649581  0.15968829  1
  H+  H253  1  0.11110759  0.95284546  0.52248801  1
  H+  H254  1  0.14903790  0.37839566  0.64864734  1
  H+  H255  1  0.15180870  0.37272602  0.15730739  1
  H+  H256  1  0.69936675  0.42819778  0.13480047  1
  H+  H257  1  0.37115304  0.97511039  0.34084985  1
  H+  H258  1  0.39578370  0.50778233  0.84605082  1
  H+  H259  1  0.26605268  0.88486300  0.00645125  1
  H+  H260  1  0.66239420  0.08495298  0.28349528  1
  H+  H261  1  0.39099198  0.77879310  0.84452369  1
  H+  H262  1  0.23605397  0.36447587  0.16479814  1
  H+  H263  1  0.64106672  0.03236723  0.99126397  1
  H+  H264  1  0.61541624  0.72216438  0.49267042  1
  H+  H265  1  0.37457275  0.61206848  0.99867480  1
  H+  H266  1  0.52019755  0.87093223  0.49979880  1
  H+  H267  1  0.53203764  0.39918629  0.82902804  1
  H+  H268  1  0.88858016  0.71951325  0.98373769  1
  H+  H269  1  0.77703970  0.88708152  0.99898367  1
  H+  H270  1  0.39186664  0.24249414  0.15406446  1
  H+  H271  1  0.58004238  0.42156541  0.73491314  1
  H+  H272  1  0.48051370  0.35517995  0.32259216  1
  H+  H273  1  0.86943957  0.96955954  0.66575930  1
  H+  H274  1  0.36232470  0.14311157  0.99867763  1
  H+  H275  1  0.88410967  0.51598019  0.32659622  1
  H+  H276  1  0.87933748  0.56818821  0.55675021  1
  H+  H277  1  0.85469305  0.64279453  0.49109075  1
  H+  H278  1  0.88647773  0.29286882  0.98656748  1
  H+  H279  1  0.59999203  0.63466601  0.66691117  1
  H+  H280  1  0.45617043  0.07539442  0.51967603  1
  H+  H281  1  0.89978924  0.03801474  0.85177182  1
  H+  H282  1  0.17713108  0.56707684  0.25034503  1
  H+  H283  1  0.36386412  0.73296361  0.15729915  1
  H+  H284  1  0.98669456  0.12937376  0.84450354  1
  H+  H285  1  0.47062795  0.11234646  -0.01298723  1
  H+  H286  1  0.50846408  0.38086608  0.49450369  1
  H+  H287  1  0.32719701  0.91989233  0.06416885  1
  H+  H288  1  0.73029369  0.10187276  0.50387424  1
  H+  H289  1  0.67772115  0.57905079  0.91654328  1
  H+  H290  1  0.13193165  0.54791800  0.57232448  1
  H+  H291  1  0.94278152  0.35694748  0.23313709  1
  H+  H292  1  0.27853720  0.13868020  0.50080199  1
  H+  H293  1  0.26666961  0.39215026  0.82947212  1
  H+  H294  1  0.63347272  0.86349118  0.65347059  1
  H+  H295  1  0.16300768  0.59278255  0.94063111  1
  H+  H296  1  0.94928829  0.65777247  0.62518873  1
  H+  H297  1  0.16548535  0.81528314  0.59793169  1
  H+  H298  1  0.34359371  0.39498060  0.40784617  1
  H+  H299  1  0.56437691  0.14254521  0.40845691  1
  H+  H300  1  0.47878417  0.53679722  0.88520422  1
  H+  H301  1  0.92284820  0.09658269  0.93823743  1
  H+  H302  1  0.64316663  0.19822841  0.73970040  1
  H+  H303  1  0.64622668  0.37719008  0.83643614  1
  H+  H304  1  0.41319306  0.58164733  0.94330472  1
  H+  H305  1  0.38553387  0.28152344  0.84343603  1
  H+  H306  1  0.90451188  0.83365606  0.22378649  1
  H+  H307  1  0.91708605  0.06984989  0.55498587  1
  H+  H308  1  0.32362156  0.66423671  0.06979646  1
  H+  H309  1  0.30274478  0.18867899  0.74760878  1
  H+  H310  1  0.84827120  0.16568000  0.72732240  1
  H+  H311  1  0.19770450  0.78360891  0.26965080  1
  H+  H312  1  0.88071322  0.76874038  0.31772398  1
  H+  H313  1  0.17516206  0.33512765  0.59367248  1
  H+  H314  1  0.65443330  0.58205336  0.23504196  1
  H+  H315  1  0.68093127  0.07955684  0.60049952  1
  H+  H316  1  0.60860921  0.47083473  0.33917997  1
  H+  H317  1  0.37722494  0.89515608  0.85812212  1
  H+  H318  1  0.11477107  0.99544502  0.41465063  1
  H+  H319  1  0.42496152  0.82990189  0.90835412  1
  H+  H320  1  0.12466825  0.24068106  0.15273498  1
  H+  H321  1  0.85991538  0.44630184  0.50199086  1
  H+  H322  1  0.86653143  0.97558150  -0.00106639  1
  H+  H323  1  0.33071970  0.62960343  0.41096917  1
  H+  H324  1  0.12956868  0.85029966  0.24001213  1
  H+  H325  1  0.42655060  0.33831961  0.26038662  1
  H+  H326  1  0.13787912  0.84931963  0.83506007  1
  H+  H327  1  0.83149183  0.87859682  0.70351425  1
  H+  H328  1  0.08313576  0.15791516  0.42663368  1
  H+  H329  1  0.79074286  0.78300396  0.54194590  1
  H+  H330  1  0.09471502  0.18323588  0.77458994  1
  H+  H331  1  0.17019073  0.34000552  0.90292499  1
  H+  H332  1  0.66504371  0.83674088  0.93413192  1
  H+  H333  1  0.39246588  0.09117462  0.66998000  1
  H+  H334  1  0.99763555  0.39005351  0.32555484  1
  H+  H335  1  0.77921280  0.14177541  0.82176436  1
  H+  H336  1  0.42133853  0.08038352  0.26291881  1
  H+  H337  1  0.91679162  0.61197712  0.88194983  1
  H+  H338  1  0.69715759  0.36846993  0.92938811  1
  H+  H339  1  0.57360330  0.66097126  0.40213084  1
  H+  H340  1  0.32459706  0.89706273  0.71838573  1
  H+  H341  1  0.32630422  0.42264681  0.76838671  1
  H+  H342  1  0.42312679  0.34482262  0.93587315  1
  H+  H343  1  0.84459005  0.44817441  0.71098768  1
  H+  H344  1  0.83889048  0.92643523  0.09237221  1
  H+  H345  1  0.38652471  0.05824591  0.57477854  1
  H+  H346  1  0.08651624  0.17481595  0.06671022  1
  H+  H347  1  0.85096435  0.94449962  0.78501192  1
  H+  H348  1  0.91196793  0.57435330  0.26652777  1
  H+  H349  1  0.64003293  0.77974539  0.83616803  1
  H+  H350  1  0.15414181  0.99096823  0.41454970  1
  H+  H351  1  0.15420295  0.07652142  0.24613142  1
  H+  H352  1  0.85766353  0.42580244  0.40097181  1
  H+  H353  1  0.58292667  0.67587972  0.76145190  1
  H+  H354  1  0.06930037  0.87060855  0.74696071  1
  H+  H355  1  0.60492333  0.89467549  0.17340005  1
  H+  H356  1  0.41325485  0.33315987  0.57482390  1
  H+  H357  1  0.91368477  0.34234510  0.88930288  1
  H+  H358  1  0.51214731  0.02110147  0.45932816  1
  H+  H359  1  0.04657808  0.62124653  0.44268027  1
  H+  H360  1  0.86708247  0.47347735  0.04695907  1
  H+  H361  1  0.92081941  0.81814262  0.58967558  1
  H+  H362  1  0.15997834  0.82807661  0.94095285  1
  H+  H363  1  0.67561683  0.31450950  0.28355172  1
  H+  H364  1  0.08616187  0.66944531  0.11781795  1
  H+  H365  1  0.94037143  0.31792384  0.58003969  1
  H+  H366  1  0.60051526  0.29327174  0.59939570  1
  H+  H367  1  0.42504764  0.10490179  0.89391337  1
  H+  H368  1  0.88636690  1.02404056  0.31839432  1
  H+  H369  1  0.84275161  0.18878286  0.05705202  1
  H+  H370  1  0.62867626  0.82297813  0.25357749  1
  H+  H371  1  0.59324011  0.92908886  0.06739957  1
  H+  H372  1  0.33080983  0.90528890  0.43996133  1
  H+  H373  1  0.16795713  0.08031140  0.56343554  1
  H+  H374  1  0.58272599  0.91510677  0.73021878  1
  H+  H375  1  0.58209630  0.67760680  0.10509680  1
  H+  H376  1  0.67323475  0.83390978  0.55464983  1
  H+  H377  1  0.14723998  0.27345279  0.32941552  1
  H+  H378  1  0.91796131  0.82981349  0.92440704  1
  H+  H379  1  0.82853927  0.92446109  0.39869329  1
  H+  H380  1  0.56802286  0.40725594  0.43342169  1
  H+  H381  1  0.57166678  0.16490256  0.05365006  1
  H+  H382  1  0.13926587  0.26575909  0.49669812  1
  H+  H383  1  0.79999391  0.69172062  0.73502630  1
  O2-  O384  1  0.09246166  0.17784187  0.13734605  1
  O2-  O385  1  0.08351633  0.15922747  0.47197882  1
  O2-  O386  1  0.08619609  0.17920980  0.81953216  1
  O2-  O387  1  0.11021520  0.43421621  0.13490676  1
  O2-  O388  1  0.09989570  0.41383937  0.45912343  1
  O2-  O389  1  0.09067609  0.42347530  0.82659773  1
  O2-  O390  1  0.07753642  0.66735975  0.16405186  1
  O2-  O391  1  0.02953589  0.60422566  0.48506518  1
  O2-  O392  1  0.08770421  0.67020540  0.81057167  1
  O2-  O393  1  0.06472266  0.90774200  0.13663077  1
  O2-  O394  1  0.07222844  0.89282375  0.53451804  1
  O2-  O395  1  0.05203940  0.83840074  0.78746028  1
  O2-  O396  1  0.36894050  0.18280742  0.13914840  1
  O2-  O397  1  0.34211921  0.17205406  0.49394604  1
  O2-  O398  1  0.32821564  0.17837850  0.81852510  1
  O2-  O399  1  0.34629585  0.41746598  0.14562301  1
  O2-  O400  1  0.33945331  0.40435211  0.47679816  1
  O2-  O401  1  0.32796584  0.42045057  0.81400352  1
  O2-  O402  1  0.33056003  0.67074712  0.14725044  1
  O2-  O403  1  0.33542072  0.64880511  0.47513241  1
  O2-  O404  1  0.33037113  0.67780939  0.81150852  1
  O2-  O405  1  0.32333764  0.92084971  0.14507149  1
  O2-  O406  1  0.32043499  0.89365925  0.48444051  1
  O2-  O407  1  0.34764627  0.93018782  0.86266949  1
  O2-  O408  1  0.57528342  0.15741798  0.13748297  1
  O2-  O409  1  0.54226360  0.07963230  0.47524945  1
  O2-  O410  1  0.60355552  0.18287933  0.81795176  1
  O2-  O411  1  0.60838760  0.43212379  0.13928727  1
  O2-  O412  1  0.56914661  0.40816015  0.47876168  1
  O2-  O413  1  0.59041994  0.42646508  0.81131489  1
  O2-  O414  1  0.58170519  0.67002761  0.15118405  1
  O2-  O415  1  0.57954854  0.66008408  0.48056273  1
  O2-  O416  1  0.58914385  0.68089329  0.80679085  1
  O2-  O417  1  0.59707557  0.93813174  0.14923802  1
  O2-  O418  1  0.58058928  0.90472876  0.48416855  1
  O2-  O419  1  0.58785027  0.92246960  0.81082450  1
  O2-  O420  1  0.86295417  0.19380702  0.13343553  1
  O2-  O421  1  0.82114719  0.14733131  0.47329495  1
  O2-  O422  1  0.83982271  0.17300771  0.80647170  1
  O2-  O423  1  0.75023513  0.41867800  0.12872354  1
  O2-  O424  1  0.90124754  0.45265547  0.47080936  1
  O2-  O425  1  0.83634608  0.43089756  0.80106344  1
  O2-  O426  1  0.82641787  0.67254946  0.15088679  1
  O2-  O427  1  0.81500669  0.65534814  0.46617430  1
  O2-  O428  1  0.81876139  0.67596149  0.80698882  1
  O2-  O429  1  0.84057723  0.93370484  0.13716459  1
  O2-  O430  1  0.82127932  0.92508471  0.46595494  1
  O2-  O431  1  0.84470885  0.92865513  0.82773969  1
  O2-  O432  1  0.15496957  0.07907317  0.17595739  1
  O2-  O433  1  0.17124847  0.07968785  0.51822775  1
  O2-  O434  1  0.17380682  0.09615410  0.86214484  1
  O2-  O435  1  0.17321016  0.33444736  0.17304735  1
  O2-  O436  1  0.17051020  0.32737820  0.51019369  1
  O2-  O437  1  0.16857045  0.34155228  0.85735674  1
  O2-  O438  1  0.19051216  0.61764178  0.22487846  1
  O2-  O439  1  0.10700093  0.52580886  0.53164051  1
  O2-  O440  1  0.16512143  0.59365278  0.86329735  1
  O2-  O441  1  0.15868959  0.83188572  0.20989676  1
  O2-  O442  1  0.14876847  0.78661633  0.52150534  1
  O2-  O443  1  0.17114356  0.83083216  0.86098849  1
  O2-  O444  1  0.42348103  0.08872169  0.18442538  1
  O2-  O445  1  0.39637576  0.06065453  0.52887570  1
  O2-  O446  1  0.42877417  0.10650226  0.84839018  1
  O2-  O447  1  0.43712724  0.34745597  0.18529031  1
  O2-  O448  1  0.41282015  0.32877749  0.52936163  1
  O2-  O449  1  0.41686554  0.34304708  0.85741153  1
  O2-  O450  1  0.41203204  0.57748384  0.18305137  1
  O2-  O451  1  0.41458906  0.56722785  0.52198546  1
  O2-  O452  1  0.44328920  0.55922637  0.86893895  1
  O2-  O453  1  0.41603512  0.84624941  0.17729564  1
  O2-  O454  1  0.41342782  0.81657218  0.52194300  1
  O2-  O455  1  0.42597937  0.83723302  0.86308907  1
  O2-  O456  1  0.73440154  0.15344598  0.21331089  1
  O2-  O457  1  0.67050016  0.07012986  0.52391172  1
  O2-  O458  1  0.67569067  0.08998054  0.85253249  1
  O2-  O459  1  0.69331948  0.28270966  0.20904732  1
  O2-  O460  1  0.57693960  0.26800765  0.52060285  1
  O2-  O461  1  0.67921341  0.34943033  0.85180363  1
  O2-  O462  1  0.66081663  0.58620514  0.18989972  1
  O2-  O463  1  0.65844333  0.57203815  0.51792476  1
  O2-  O464  1  0.67175884  0.58134471  0.84679156  1
  O2-  O465  1  0.59454188  0.81191322  0.21374506  1
  O2-  O466  1  0.67196210  0.82919347  0.50965560  1
  O2-  O467  1  0.66809241  0.83913444  0.85467628  1
  O2-  O468  1  0.92848554  0.09095751  0.17847645  1
  O2-  O469  1  0.91757701  0.07405600  0.51044054  1
  O2-  O470  1  0.92616057  0.10010118  0.86145270  1
  O2-  O471  1  0.94317695  0.35563470  0.18720377  1
  O2-  O472  1  0.93103157  0.31913121  0.49751392  1
  O2-  O473  1  0.91501291  0.34303828  0.84403815  1
  O2-  O474  1  0.90723077  0.57893220  0.18792326  1
  O2-  O475  1  0.91559495  0.62475938  0.53870684  1
  O2-  O476  1  0.91836438  0.60170063  0.83792860  1
  O2-  O477  1  0.90742813  0.83455786  0.17849507  1
  O2-  O478  1  0.84670893  0.79730663  0.52557344  1
  O2-  O479  1  0.90912017  0.82924327  0.84692502  1
  O2-  O480  1  0.15275691  0.06776577  0.29242529  1
  O2-  O481  1  0.16465035  0.07317737  0.64156142  1
  O2-  O482  1  0.16983093  0.09182036  0.98556213  1
  O2-  O483  1  0.19338107  0.33366888  0.32067805  1
  O2-  O484  1  0.17678686  0.34080312  0.63865268  1
  O2-  O485  1  0.16867332  0.33436908  0.97948607  1
  O2-  O486  1  0.17498684  0.49010047  0.31818061  1
  O2-  O487  1  0.18767724  0.61166033  0.63932434  1
  O2-  O488  1  0.16423739  0.58892040  0.98607267  1
  O2-  O489  1  0.21761731  0.75676298  0.30009650  1
  O2-  O490  1  0.17340598  0.83037508  0.64193718  1
  O2-  O491  1  0.16301127  0.83270998  0.98611669  1
  O2-  O492  1  0.41587947  0.07479406  0.30824574  1
  O2-  O493  1  0.35321596  0.04669024  0.64233465  1
  O2-  O494  1  0.40883280  0.08382713  0.97087215  1
  O2-  O495  1  0.42065347  0.32819894  0.30578302  1
  O2-  O496  1  0.41017749  0.34512990  0.65151573  1
  O2-  O497  1  0.42589405  0.34568504  0.98135582  1
  O2-  O498  1  0.37715965  0.56974701  0.36062090  1
  O2-  O499  1  0.40895631  0.58772485  0.64351091  1
  O2-  O500  1  0.40756127  0.58235575  0.98801252  1
  O2-  O501  1  0.39639037  0.80767061  0.29261251  1
  O2-  O502  1  0.41984157  0.83296086  0.64428413  1
  O2-  O503  1  0.41894153  0.83271108  0.98732472  1
  O2-  O504  1  0.66476402  0.08200069  0.32811584  1
  O2-  O505  1  0.68713083  0.08264342  0.64592577  1
  O2-  O506  1  0.66978197  0.09250888  0.97573329  1
  O2-  O507  1  0.67184840  0.32743799  0.32714352  1
  O2-  O508  1  0.60857102  0.30786681  0.64323228  1
  O2-  O509  1  0.70728963  0.37980737  0.97408175  1
  O2-  O510  1  0.65134812  0.57538312  0.31427130  1
  O2-  O511  1  0.64915457  0.58047657  0.63975189  1
  O2-  O512  1  0.68398730  0.57783955  0.96312630  1
  O2-  O513  1  0.66323277  0.82954752  0.31958157  1
  O2-  O514  1  0.66039445  0.83100115  0.63575211  1
  O2-  O515  1  0.66946478  0.83931059  0.97940528  1
  O2-  O516  1  0.91970489  0.08421617  0.30172352  1
  O2-  O517  1  0.92573967  0.07321309  0.64784056  1
  O2-  O518  1  0.91713828  0.08971181  0.98353848  1
  O2-  O519  1  0.93915215  0.35237720  0.30876187  1
  O2-  O520  1  0.94821682  0.32477763  0.62463893  1
  O2-  O521  1  0.92270082  0.35185660  0.96920705  1
  O2-  O522  1  0.91593311  0.57697820  0.31179977  1
  O2-  O523  1  0.95221106  0.65007886  0.66919833  1
  O2-  O524  1  0.92257632  0.63401863  0.96306639  1
  O2-  O525  1  0.90928882  0.82930072  0.30263637  1
  O2-  O526  1  0.93206184  0.83107826  0.63370557  1
  O2-  O527  1  0.91959180  0.82614914  0.96981652  1
  O2-  O528  1  0.08441409  0.17204064  0.02018992  1
  O2-  O529  1  0.08624962  0.16325739  0.34513752  1
  O2-  O530  1  0.12810514  0.19423620  0.69826352  1
  O2-  O531  1  0.08720296  0.42013668  0.01233045  1
  O2-  O532  1  0.10196154  0.47626476  0.35699523  1
  O2-  O533  1  0.10871433  0.43069039  0.66580086  1
  O2-  O534  1  0.08875157  0.67003362  0.04597638  1
  O2-  O535  1  0.07970559  0.62585459  0.35491985  1
  O2-  O536  1  0.11050152  0.67906810  0.69518341  1
  O2-  O537  1  0.08227003  0.91989832  0.01550671  1
  O2-  O538  1  0.09211515  0.90100236  0.29570117  1
  O2-  O539  1  0.09243082  0.91067817  0.67927496  1
  O2-  O540  1  0.33859855  0.17803238  0.01641223  1
  O2-  O541  1  0.31543470  0.15160876  0.33003555  1
  O2-  O542  1  0.28716546  0.20335392  0.70713812  1
  O2-  O543  1  0.33131316  0.41490159  0.02194975  1
  O2-  O544  1  0.34021667  0.39013789  0.36108465  1
  O2-  O545  1  0.33109864  0.42883926  0.69156132  1
  O2-  O546  1  0.32639234  0.66734962  0.02427073  1
  O2-  O547  1  0.32601327  0.61234376  0.36397491  1
  O2-  O548  1  0.32844562  0.67060848  0.69451013  1
  O2-  O549  1  0.32875584  0.91715366  0.01887371  1
  O2-  O550  1  0.35172009  0.91911729  0.36248660  1
  O2-  O551  1  0.32859779  0.90065299  0.67424810  1
  O2-  O552  1  0.56635467  0.16012948  0.00897146  1
  O2-  O553  1  0.57667597  0.16160149  0.36517632  1
  O2-  O554  1  0.67179050  0.21712740  0.69977726  1
  O2-  O555  1  0.60006384  0.43208003  0.01775825  1
  O2-  O556  1  0.57997039  0.40993197  0.35419580  1
  O2-  O557  1  0.57223404  0.42002376  0.68949985  1
  O2-  O558  1  0.57509642  0.67963123  0.03416807  1
  O2-  O559  1  0.56844936  0.66045149  0.35680055  1
  O2-  O560  1  0.57359077  0.66836099  0.68352076  1
  O2-  O561  1  0.58951172  0.92620812  0.02234561  1
  O2-  O562  1  0.58315178  0.90808159  0.36134669  1
  O2-  O563  1  0.58348551  0.91501696  0.68490292  1
  O2-  O564  1  0.83844039  0.18651471  0.01167959  1
  O2-  O565  1  0.83670269  0.17266752  0.30814346  1
  O2-  O566  1  0.85175260  0.15894469  0.68252989  1
  O2-  O567  1  0.86546179  0.46969389  0.00277612  1
  O2-  O568  1  0.84317753  0.41514203  0.35647566  1
  O2-  O569  1  0.85498063  0.47061297  0.66924104  1
  O2-  O570  1  0.86317452  0.65620359  -0.00719873  1
  O2-  O571  1  0.82418493  0.66053597  0.34399591  1
  O2-  O572  1  0.78509858  0.70570074  0.69420219  1
  O2-  O573  1  0.83903947  0.91392440  0.01079694  1
  O2-  O574  1  0.83099690  0.92336657  0.35046491  1
  O2-  O575  1  0.83164467  0.90482548  0.66477917  1
