# generated using pymatgen
data_H2O
_symmetry_space_group_name_H-M   'P 1'
_cell_length_a   17.98771131
_cell_length_b   17.98948456
_cell_length_c   22.00626938
_cell_angle_alpha   89.99345636
_cell_angle_beta   89.99758620
_cell_angle_gamma   119.97652127
_symmetry_Int_Tables_number   1
_chemical_formula_structural   H2O
_chemical_formula_sum   'H384 O192'
_cell_volume   6168.42629152
_cell_formula_units_Z   192
loop_
 _symmetry_equiv_pos_site_id
 _symmetry_equiv_pos_as_xyz
  1  'x, y, z'
loop_
 _atom_type_symbol
 _atom_type_oxidation_number
  H+  1.0
  O2-  -2.0
loop_
 _atom_site_type_symbol
 _atom_site_label
 _atom_site_symmetry_multiplicity
 _atom_site_fract_x
 _atom_site_fract_y
 _atom_site_fract_z
 _atom_site_occupancy
  H+  H0  1  0.10553330  0.46688006  0.66814579  1
  H+  H1  1  0.22619050  0.38608626  -0.02198664  1
  H+  H2  1  0.13757740  0.01637899  0.65393848  1
  H+  H3  1  -0.01015079  0.61147804  0.83162889  1
  H+  H4  1  0.60531908  0.10550970  0.82813370  1
  H+  H5  1  0.88307623  0.01163830  0.17158292  1
  H+  H6  1  0.39430211  0.53187418  0.16739524  1
  H+  H7  1  -0.10044389  0.59425325  0.24002086  1
  H+  H8  1  0.34626824  0.37020805  0.79681577  1
  H+  H9  1  0.76298238  0.88760811  0.48496523  1
  H+  H10  1  0.36084402  0.71682299  0.66955694  1
  H+  H11  1  0.11176494  0.88698913  0.16134359  1
  H+  H12  1  0.38286951  0.74174633  0.02062490  1
  H+  H13  1  0.49126991  0.13358000  -0.00781402  1
  H+  H14  1  0.84743560  1.00449418  0.03786772  1
  H+  H15  1  0.86413458  0.39616831  0.33931764  1
  H+  H16  1  0.06704891  0.69275420  0.33625132  1
  H+  H17  1  0.87925780  0.09778102  0.66256864  1
  H+  H18  1  0.85076621  0.21628395  0.82417818  1
  H+  H19  1  0.10050862  0.64615221  0.00958301  1
  H+  H20  1  0.88671564  0.77459837  0.50373549  1
  H+  H21  1  0.67546391  0.84501774  0.89667442  1
  H+  H22  1  0.86985401  0.51326524  0.99960851  1
  H+  H23  1  0.48712667  0.37348418  0.17576149  1
  H+  H24  1  0.62510791  0.28114715  0.19456704  1
  H+  H25  1  0.48830318  0.62071425  0.49862366  1
  H+  H26  1  0.62789521  0.23483574  -0.00595443  1
  H+  H27  1  0.32906359  0.65690729  0.76337841  1
  H+  H28  1  0.13216711  0.77038552  0.17083965  1
  H+  H29  1  0.47263720  0.34421739  1.02691035  1
  H+  H30  1  0.76588925  0.11008991  0.34563479  1
  H+  H31  1  0.41722462  0.08616000  0.59751914  1
  H+  H32  1  0.62666236  0.31984760  0.84552892  1
  H+  H33  1  0.34221607  0.20730348  0.68852389  1
  H+  H34  1  0.88237518  0.84816279  0.99405385  1
  H+  H35  1  0.88490965  0.65546879  0.82313645  1
  H+  H36  1  0.49157444  0.86784998  0.50543806  1
  H+  H37  1  0.13004816  0.61081541  0.83171482  1
  H+  H38  1  -0.01666613  0.87791444  -0.00399026  1
  H+  H39  1  0.61195233  0.52994485  0.65305147  1
  H+  H40  1  0.52235954  0.88338900  0.16551127  1
  H+  H41  1  0.43058607  0.63753214  0.01604993  1
  H+  H42  1  0.16299835  0.77561316  0.64014054  1
  H+  H43  1  0.84843732  0.47793936  0.34072475  1
  H+  H44  1  0.14690152  0.70594515  0.82825586  1
  H+  H45  1  0.09891967  0.38514365  0.49396803  1
  H+  H46  1  0.38223431  0.26426757  0.81178278  1
  H+  H47  1  0.08345166  0.64596132  0.74032541  1
  H+  H48  1  0.38632431  0.75726632  0.83981521  1
  H+  H49  1  0.58890007  0.46722001  0.71109140  1
  H+  H50  1  0.87980240  0.26017835  0.65753154  1
  H+  H51  1  0.72937131  0.63392906  0.65393918  1
  H+  H52  1  0.87807585  0.35733670  0.83651401  1
  H+  H53  1  0.87452856  0.03751746  1.01455187  1
  H+  H54  1  0.40939243  0.62375235  0.65565454  1
  H+  H55  1  0.38808245  0.77584684  0.18451884  1
  H+  H56  1  0.92486612  0.16291287  0.96660716  1
  H+  H57  1  0.10608710  0.21391505  0.15298976  1
  H+  H58  1  0.75319277  0.60514126  0.16562973  1
  H+  H59  1  0.60887516  0.72077041  0.82328835  1
  H+  H60  1  0.12101696  0.88574035  0.66913379  1
  H+  H61  1  0.14420484  0.78590905  0.00358554  1
  H+  H62  1  0.21463821  0.50702881  1.00853567  1
  H+  H63  1  0.09437038  0.77494743  0.85848401  1
  H+  H64  1  0.27291676  0.86759549  0.82120910  1
  H+  H65  1  -0.03279145  0.35776835  0.17018506  1
  H+  H66  1  0.13907099  0.36182261  0.14773289  1
  H+  H67  1  0.88712528  0.52354158  0.50403987  1
  H+  H68  1  0.49306441  0.41683085  0.64663870  1
  H+  H69  1  0.83950585  0.21791306  0.00560693  1
  H+  H70  1  0.41002654  1.03717079  0.33362783  1
  H+  H71  1  0.61842992  0.25173680  0.49169364  1
  H+  H72  1  0.96342496  0.35050592  0.83737556  1
  H+  H73  1  0.61277336  0.87280366  0.82514021  1
  H+  H74  1  0.96173123  0.35418222  0.50417430  1
  H+  H75  1  0.62025419  0.41740107  0.00434981  1
  H+  H76  1  0.52828050  0.40235023  0.48888528  1
  H+  H77  1  0.53612402  0.39954022  0.34123690  1
  H+  H78  1  0.88103208  0.85996368  0.50377389  1
  H+  H79  1  0.33652456  0.78034983  0.96728136  1
  H+  H80  1  0.96247863  0.84664609  0.33001358  1
  H+  H81  1  0.38870407  0.86532522  0.18478517  1
  H+  H82  1  0.51620702  0.56054370  1.02445449  1
  H+  H83  1  0.99049069  0.12098590  0.51288292  1
  H+  H84  1  0.36620094  -0.01785460  0.17014333  1
  H+  H85  1  0.70624494  0.65118340  0.96304912  1
  H+  H86  1  0.31167086  0.40031322  0.72172650  1
  H+  H87  1  0.40282673  0.86454119  0.33894787  1
  H+  H88  1  0.13745692  0.02402030  0.49945662  1
  H+  H89  1  0.93903449  0.60434715  0.33244853  1
  H+  H90  1  0.07303887  0.71011169  0.69915248  1
  H+  H91  1  0.11542339  0.72639329  0.48855825  1
  H+  H92  1  0.09970049  0.47436233  0.50000816  1
  H+  H93  1  0.61652927  0.74208188  0.46959029  1
  H+  H94  1  0.10936407  0.45611482  0.82299234  1
  H+  H95  1  0.73971835  0.64863955  0.34149357  1
  H+  H96  1  0.54302493  0.38525888  0.78570568  1
  H+  H97  1  0.16191818  0.57633900  0.59821861  1
  H+  H98  1  0.63447166  0.01202073  0.17770742  1
  H+  H99  1  0.52177919  0.11854258  0.66737266  1
  H+  H100  1  0.82230624  0.88136455  0.10367466  1
  H+  H101  1  0.44190954  0.35648413  0.83997778  1
  H+  H102  1  0.42560652  0.31512988  0.63840831  1
  H+  H103  1  0.12407199  0.89890574  0.82658339  1
  H+  H104  1  0.72463876  0.36265182  0.49849458  1
  H+  H105  1  0.18393440  0.80671828  0.32419175  1
  H+  H106  1  0.88801481  0.10724890  0.82327650  1
  H+  H107  1  0.64452426  0.10315828  0.33607934  1
  H+  H108  1  0.35714271  0.39993709  0.48689840  1
  H+  H109  1  0.76575981  0.12366390  0.82505260  1
  H+  H110  1  0.10143344  0.23029188  0.35736373  1
  H+  H111  1  0.77636575  0.39880114  0.82780414  1
  H+  H112  1  0.38981876  0.12503856  0.50060832  1
  H+  H113  1  0.24923612  0.36320659  0.65685550  1
  H+  H114  1  0.23025472  0.37123642  0.34007768  1
  H+  H115  1  1.01678451  0.13896014  0.34746755  1
  H+  H116  1  0.26350294  0.62640745  0.33424551  1
  H+  H117  1  0.62465164  0.20019962  0.81878182  1
  H+  H118  1  0.30750304  0.91239007  0.35244199  1
  H+  H119  1  0.63458605  0.42982995  0.81397899  1
  H+  H120  1  0.87646386  0.00648284  0.65933284  1
  H+  H121  1  0.66923978  0.61682207  0.17128423  1
  H+  H122  1  0.27385349  0.12765443  0.83507677  1
  H+  H123  1  0.40326717  0.03892964  0.98512189  1
  H+  H124  1  0.23706657  0.87356440  0.99219963  1
  H+  H125  1  0.38497788  0.10651468  0.65947827  1
  H+  H126  1  0.88080512  0.10040592  0.17178524  1
  H+  H127  1  0.19049043  0.08843493  0.34208002  1
  H+  H128  1  0.15194498  0.53616290  0.19356837  1
  H+  H129  1  0.64426760  0.62573351  0.49388935  1
  H+  H130  1  0.15392118  0.53785388  0.34035958  1
  H+  H131  1  0.62879976  0.72547982  0.18539301  1
  H+  H132  1  0.87713740  0.50898223  0.65695099  1
  H+  H133  1  0.52097616  0.15002881  0.49133056  1
  H+  H134  1  0.61874801  0.95399775  0.67141667  1
  H+  H135  1  0.12369436  0.89549140  1.01494530  1
  H+  H136  1  0.12477922  0.25743540  0.65288217  1
  H+  H137  1  0.66474947  0.31845290  0.60022097  1
  H+  H138  1  0.13493894  0.10459943  0.65460970  1
  H+  H139  1  0.82873193  0.41225960  0.76550822  1
  H+  H140  1  0.27660920  0.13593091  0.17561569  1
  H+  H141  1  0.85811289  0.21875752  0.16358833  1
  H+  H142  1  0.16993418  0.08275074  0.55870296  1
  H+  H143  1  0.84876260  0.60550799  0.32618833  1
  H+  H144  1  0.14581796  0.87011566  0.49839882  1
  H+  H145  1  0.08411584  0.43763379  0.40762964  1
  H+  H146  1  0.38590952  0.51802741  0.81563775  1
  H+  H147  1  0.39599199  0.11958149  0.18057490  1
  H+  H148  1  0.65817723  0.66520984  0.64652280  1
  H+  H149  1  0.82431633  0.65638041  0.73488084  1
  H+  H150  1  0.05203268  0.36504884  0.08754905  1
  H+  H151  1  0.09149657  0.45792768  0.11884638  1
  H+  H152  1  1.01853779  0.12140880  0.67150552  1
  H+  H153  1  0.76952927  0.11903963  0.66845356  1
  H+  H154  1  0.92100957  0.34900188  0.27117880  1
  H+  H155  1  0.87853090  0.35950128  -0.00449176  1
  H+  H156  1  0.63211974  0.08519816  0.65404620  1
  H+  H157  1  0.27387704  0.14590225  0.48643418  1
  H+  H158  1  0.36348512  0.13002042  0.01584058  1
  H+  H159  1  0.39399912  0.12273388  0.84209067  1
  H+  H160  1  0.47886312  0.84722712  0.65957045  1
  H+  H161  1  0.25660247  0.37092446  0.80679871  1
  H+  H162  1  0.65230798  0.57776447  0.86003831  1
  H+  H163  1  0.14238912  1.00842004  0.00356171  1
  H+  H164  1  0.88146499  0.36263535  0.17579012  1
  H+  H165  1  0.35254306  0.60372059  0.49225981  1
  H+  H166  1  0.24136076  0.10775205  0.00201056  1
  H+  H167  1  0.58768553  0.17603063  0.43082719  1
  H+  H168  1  0.85102856  0.37644218  0.49300924  1
  H+  H169  1  0.85691180  0.87410267  0.66957572  1
  H+  H170  1  0.73416094  0.95389243  0.96488350  1
  H+  H171  1  0.13003874  0.27221103  0.50224480  1
  H+  H172  1  0.64253149  0.89032491  0.99037671  1
  H+  H173  1  0.77717923  0.11894768  0.49491211  1
  H+  H174  1  0.87054432  0.88710043  0.82473092  1
  H+  H175  1  0.81911004  0.15803161  0.06377147  1
  H+  H176  1  0.63933509  0.86026951  0.17433182  1
  H+  H177  1  0.53227834  0.87830502  0.34873267  1
  H+  H178  1  0.62713324  0.64102909  0.26723138  1
  H+  H179  1  0.36288256  0.42482335  -0.01142732  1
  H+  H180  1  0.67141796  0.60404883  0.55784150  1
  H+  H181  1  0.36984464  0.39585667  0.34069475  1
  H+  H182  1  0.48805226  0.11934889  0.84277594  1
  H+  H183  1  0.08430113  0.15381870  0.72766441  1
  H+  H184  1  0.25922641  0.11880097  0.67305354  1
  H+  H185  1  0.10895476  0.13259651  0.49646087  1
  H+  H186  1  0.62702403  0.23225051  0.34519824  1
  H+  H187  1  0.37065033  0.97187262  0.67058803  1
  H+  H188  1  0.62889879  0.48206811  0.16148385  1
  H+  H189  1  0.30391647  0.64719649  0.01782308  1
  H+  H190  1  0.16303870  0.32510072  0.88207435  1
  H+  H191  1  0.71018727  0.10239383  0.99446935  1
  H+  H192  1  0.02333951  0.88765101  0.49677735  1
  H+  H193  1  0.37811117  0.63513064  0.33352707  1
  H+  H194  1  0.88214609  0.01085798  0.32605790  1
  H+  H195  1  0.39458507  0.85618582  0.65903017  1
  H+  H196  1  0.86195506  0.63756449  0.48762874  1
  H+  H197  1  0.65482185  0.21828702  0.13930829  1
  H+  H198  1  0.14283928  0.11174941  0.84760137  1
  H+  H199  1  0.38479220  0.15025689  0.33118357  1
  H+  H200  1  0.38436198  0.90234482  0.49893922  1
  H+  H201  1  0.13340375  0.60483237  0.65840773  1
  H+  H202  1  0.39974747  0.32657119  0.98106512  1
  H+  H203  1  0.13927068  0.52463478  1.00052173  1
  H+  H204  1  0.95496714  0.60089983  0.98792115  1
  H+  H205  1  0.88783515  0.84250090  0.17162099  1
  H+  H206  1  0.44228291  0.59906790  0.56454805  1
  H+  H207  1  0.48489862  0.11865975  0.17397486  1
  H+  H208  1  0.90822752  0.78949313  0.83820529  1
  H+  H209  1  0.12204579  0.40969446  0.35300397  1
  H+  H210  1  0.37597083  0.72568197  0.34204835  1
  H+  H211  1  0.54325911  0.63504144  0.18213815  1
  H+  H212  1  0.63375206  0.37313134  0.18396830  1
  H+  H213  1  0.90242803  0.31929970  0.56320884  1
  H+  H214  1  0.62035470  0.12591559  0.16447697  1
  H+  H215  1  0.64033014  0.76770489  0.32257491  1
  H+  H216  1  0.64282498  0.07950250  0.50226523  1
  H+  H217  1  0.89562507  0.53216419  0.82688536  1
  H+  H218  1  -0.03217599  0.35028625  0.65646607  1
  H+  H219  1  0.23779987  0.62561249  0.18330327  1
  H+  H220  1  0.63581524  0.36820495  0.50075703  1
  H+  H221  1  0.41297935  0.29449399  0.32577646  1
  H+  H222  1  0.86269333  0.10749953  0.33860399  1
  H+  H223  1  0.75788893  0.85819894  0.00861152  1
  H+  H224  1  0.10636539  0.63579245  0.16703868  1
  H+  H225  1  0.02601731  0.12247763  0.81768268  1
  H+  H226  1  0.86667037  0.63579146  1.01662667  1
  H+  H227  1  0.47477709  0.60695815  0.81909194  1
  H+  H228  1  0.77048371  0.39397164  0.17262715  1
  H+  H229  1  0.62604492  0.38947568  0.34719065  1
  H+  H230  1  0.11328894  0.21211983  0.81878007  1
  H+  H231  1  0.77358269  0.63901724  0.49129270  1
  H+  H232  1  0.98365043  0.32153202  1.00835857  1
  H+  H233  1  0.59228822  0.96999301  0.00818959  1
  H+  H234  1  0.08901170  0.85874870  0.34299536  1
  H+  H235  1  0.72264663  0.28438053  0.94745325  1
  H+  H236  1  0.80064789  0.65941616  0.83812905  1
  H+  H237  1  0.10419876  0.37708665  0.66750849  1
  H+  H238  1  0.73091627  0.36953978  0.33731764  1
  H+  H239  1  0.27275459  0.62719423  0.66913211  1
  H+  H240  1  0.85828323  0.37653113  0.67228565  1
  H+  H241  1  0.84299980  0.61401213  0.67738015  1
  H+  H242  1  0.35479019  0.38327121  0.65622022  1
  H+  H243  1  0.75635360  0.77175333  0.02377503  1
  H+  H244  1  0.41747173  0.57318985  0.96474626  1
  H+  H245  1  0.76835448  0.37364564  0.67151796  1
  H+  H246  1  0.31428450  0.16815170  0.30426007  1
  H+  H247  1  0.24374035  0.86602522  0.65442008  1
  H+  H248  1  0.52030441  0.86803590  0.82509976  1
  H+  H249  1  0.07651922  0.32845133  1.00319636  1
  H+  H250  1  0.77506569  0.87424202  0.16505440  1
  H+  H251  1  0.62009533  0.49050075  0.49238974  1
  H+  H252  1  0.01791089  0.12505142  0.16486592  1
  H+  H253  1  0.73020739  0.85887137  0.83658441  1
  H+  H254  1  0.86711905  0.76460985  0.32465981  1
  H+  H255  1  0.35733534  0.21431446  1.02895363  1
  H+  H256  1  1.02587182  0.63813177  0.49621290  1
  H+  H257  1  0.09410898  0.95016436  0.34121799  1
  H+  H258  1  0.77006129  0.37363650  1.00941670  1
  H+  H259  1  0.13726512  0.10915936  0.18105683  1
  H+  H260  1  0.57104322  0.46819306  0.02930933  1
  H+  H261  1  0.77154855  0.12844712  0.16544819  1
  H+  H262  1  0.50840164  0.87708949  1.00742954  1
  H+  H263  1  0.53952435  0.14256891  0.34181057  1
  H+  H264  1  0.62782289  1.00047890  0.83965518  1
  H+  H265  1  0.12352578  0.34415626  0.82387320  1
  H+  H266  1  0.38926056  0.29366753  0.49681939  1
  H+  H267  1  0.77397580  0.88345755  0.33440348  1
  H+  H268  1  0.89220658  0.11805555  0.51194482  1
  H+  H269  1  0.70343117  0.54295305  0.89569672  1
  H+  H270  1  0.89074503  0.73389691  0.01410622  1
  H+  H271  1  0.86022291  0.21608028  0.49278681  1
  H+  H272  1  0.03591818  0.90029086  0.82529677  1
  H+  H273  1  0.13870905  0.02174048  0.17878262  1
  H+  H274  1  0.67817105  0.34730552  0.90822248  1
  H+  H275  1  0.62327396  0.10637572  0.99002417  1
  H+  H276  1  0.86474881  -0.02757306  0.82095241  1
  H+  H277  1  0.39794489  0.53015343  0.32490088  1
  H+  H278  1  0.34376365  0.93584822  -0.06348682  1
  H+  H279  1  0.42250086  0.36110884  0.55227071  1
  H+  H280  1  0.63976744  0.25381449  0.65540583  1
  H+  H281  1  0.36494116  0.62456348  0.81837361  1
  H+  H282  1  0.98225223  0.38998819  0.32847522  1
  H+  H283  1  -0.03548535  0.59689037  0.66096721  1
  H+  H284  1  0.10849370  0.11963600  0.01154020  1
  H+  H285  1  0.14414731  0.02403176  0.84558773  1
  H+  H286  1  0.28605632  0.39239926  0.14181542  1
  H+  H287  1  0.36691351  0.64026317  0.17107412  1
  H+  H288  1  0.65338985  0.06200199  0.89961536  1
  H+  H289  1  0.22138246  0.86039055  0.17825389  1
  H+  H290  1  0.36040642  0.86585306  0.82254166  1
  H+  H291  1  0.32183986  0.14132233  0.77051286  1
  H+  H292  1  0.58895223  0.41169755  0.10866901  1
  H+  H293  1  0.13856264  0.61172157  0.50505405  1
  H+  H294  1  0.93559780  0.10332402  0.88188965  1
  H+  H295  1  0.50911171  0.65386268  0.65270443  1
  H+  H296  1  0.62936239  0.84360275  0.54212019  1
  H+  H297  1  0.66731823  0.05541912  0.59698524  1
  H+  H298  1  0.37627090  0.39723441  0.15049954  1
  H+  H299  1  0.59299219  0.68947912  0.75579375  1
  H+  H300  1  0.21606397  0.36553653  0.50131783  1
  H+  H301  1  0.59561241  0.67543425  0.41519148  1
  H+  H302  1  0.42875960  0.83869629  0.56250574  1
  H+  H303  1  0.66651921  0.34230650  0.27941872  1
  H+  H304  1  0.09124414  0.92743049  0.07447159  1
  H+  H305  1  0.67239845  0.83767115  0.23600486  1
  H+  H306  1  0.16089095  0.83280676  0.90832828  1
  H+  H307  1  0.58520671  0.89788569  0.73340480  1
  H+  H308  1  0.91366619  0.57997354  0.56388094  1
  H+  H309  1  0.15664475  0.06479320  0.27309300  1
  H+  H310  1  0.41970105  0.40718888  0.91548730  1
  H+  H311  1  0.46561520  0.41559924  0.91578686  1
  H+  H312  1  0.18447071  0.59877848  0.27770727  1
  H+  H313  1  0.72930295  0.84282393  0.67121213  1
  H+  H314  1  0.91972526  0.08184148  0.57594325  1
  H+  H315  1  0.90025338  0.32602844  0.93227769  1
  H+  H316  1  0.18081805  0.84292549  0.55528035  1
  H+  H317  1  0.07091140  0.16114848  0.43921315  1
  H+  H318  1  0.36336223  0.93512210  0.41210430  1
  H+  H319  1  0.91968028  0.82260888  0.23313521  1
  H+  H320  1  0.17939883  0.42400441  0.93894386  1
  H+  H321  1  0.80574607  0.66391062  0.39672177  1
  H+  H322  1  0.49172318  0.61979388  0.32120653  1
  H+  H323  1  0.14136826  0.81048111  0.26210485  1
  H+  H324  1  0.07167023  0.40176207  0.76175430  1
  H+  H325  1  0.02177342  0.88412084  0.16196389  1
  H+  H326  1  0.42537479  0.83386422  0.27690014  1
  H+  H327  1  0.04958892  0.64547368  0.39937701  1
  H+  H328  1  0.17742548  0.07689320  0.93678735  1
  H+  H329  1  0.57559484  0.91029867  0.10319717  1
  H+  H330  1  0.43948504  0.35706006  0.26864374  1
  H+  H331  1  0.64795276  -0.00965839  0.50212865  1
  H+  H332  1  0.58518255  0.17229526  0.05756994  1
  H+  H333  1  0.83361111  0.14247537  0.40572388  1
  H+  H334  1  0.15271825  0.32039866  0.59327167  1
  H+  H335  1  0.93539746  0.84931826  0.89760945  1
  H+  H336  1  0.07468634  0.67123876  0.07146143  1
  H+  H337  1  -0.02495929  0.86766505  0.65747456  1
  H+  H338  1  0.91585639  0.83828715  0.59837215  1
  H+  H339  1  0.18277376  0.33980643  0.20111418  1
  H+  H340  1  0.61490567  0.59419486  0.03341406  1
  H+  H341  1  1.00476423  0.15008445  0.97227668  1
  H+  H342  1  0.41983736  0.58415349  0.23070565  1
  H+  H343  1  0.59669099  0.90522814  0.40702257  1
  H+  H344  1  0.21771197  0.59131048  0.50399920  1
  H+  H345  1  0.33416746  0.17883698  0.42793156  1
  H+  H346  1  0.66508838  0.06933254  0.23884990  1
  H+  H347  1  0.85769309  0.48269248  0.16729053  1
  H+  H348  1  0.43185815  0.10525369  0.91213697  1
  H+  H349  1  0.33626584  0.92094742  0.11297175  1
  H+  H350  1  0.18570103  0.55666406  0.89829734  1
  H+  H351  1  0.33525806  0.42649628  0.39789319  1
  H+  H352  1  0.41611915  0.82163769  0.89792537  1
  H+  H353  1  0.82512008  0.41068559  0.07229085  1
  H+  H354  1  0.76500753  0.66370451  0.02068189  1
  H+  H355  1  0.90958787  0.07439996  0.26700932  1
  H+  H356  1  0.35626633  0.48684326  0.48888048  1
  H+  H357  1  0.15235345  0.33554844  0.29358323  1
  H+  H358  1  0.33274749  0.15986948  0.11591267  1
  H+  H359  1  0.58062744  0.13917743  0.72582879  1
  H+  H360  1  0.82616328  0.15395331  0.72902403  1
  H+  H361  1  0.37660436  0.88694530  -0.01756801  1
  H+  H362  1  0.01785932  0.63854827  0.16742479  1
  H+  H363  1  0.07626527  0.90902111  0.43548365  1
  H+  H364  1  0.64263833  0.85886446  0.32959737  1
  H+  H365  1  0.33346758  0.42841324  0.05548067  1
  H+  H366  1  0.43542231  0.09038389  0.27048034  1
  H+  H367  1  0.82586610  0.90128812  0.73170944  1
  H+  H368  1  0.09436647  0.91929114  0.72836422  1
  H+  H369  1  0.82596777  0.90731166  0.42981529  1
  H+  H370  1  0.39708372  0.28522116  0.17984175  1
  H+  H371  1  0.86321060  0.88332850  0.33426067  1
  H+  H372  1  0.82734354  0.41317546  0.43358888  1
  H+  H373  1  0.63177212  0.84149203  0.67192052  1
  H+  H374  1  0.23843601  0.59318761  0.83584420  1
  H+  H375  1  0.59348480  0.42799783  0.40776008  1
  H+  H376  1  0.33879377  0.90855128  0.72924922  1
  H+  H377  1  0.34035486  0.67682893  0.11436975  1
  H+  H378  1  0.32117489  0.62814245  0.43214573  1
  H+  H379  1  0.06544483  0.13574457  0.06880417  1
  H+  H380  1  0.90297504  0.70186475  0.17658239  1
  H+  H381  1  0.39507881  0.03733839  0.50246689  1
  H+  H382  1  0.29098501  0.89774298  0.49300403  1
  H+  H383  1  0.63781429  0.00915555  0.33704684  1
  O2-  O384  1  0.07811844  0.15088296  0.14917317  1
  O2-  O385  1  0.07542018  0.16199853  0.48597498  1
  O2-  O386  1  0.08854167  0.15062186  0.80625207  1
  O2-  O387  1  0.07066404  0.39828723  0.12990693  1
  O2-  O388  1  0.06755552  0.41515341  0.48118168  1
  O2-  O389  1  0.07199930  0.39681279  0.80717173  1
  O2-  O390  1  0.07696420  0.66489946  0.14937715  1
  O2-  O391  1  0.08444194  0.66452834  0.47763984  1
  O2-  O392  1  0.10617607  0.64724997  0.81567803  1
  O2-  O393  1  0.08333677  0.91914388  0.14664951  1
  O2-  O394  1  0.08372212  0.91766142  0.48063694  1
  O2-  O395  1  0.09764985  0.93142650  0.80990577  1
  O2-  O396  1  0.33771019  0.16638056  0.16087005  1
  O2-  O397  1  0.33534695  0.17947240  0.47271191  1
  O2-  O398  1  0.33219388  0.15330189  0.81523614  1
  O2-  O399  1  0.34794606  0.42740046  0.13193995  1
  O2-  O400  1  0.32293220  0.42661558  0.47310787  1
  O2-  O401  1  0.31492990  0.40150457  0.78659224  1
  O2-  O402  1  0.33488753  0.67158543  0.15980530  1
  O2-  O403  1  0.30091879  0.59855968  0.47123973  1
  O2-  O404  1  0.32988863  0.65390790  0.80908580  1
  O2-  O405  1  0.33306620  0.92028605  0.15727932  1
  O2-  O406  1  0.35342931  0.93309888  0.48250508  1
  O2-  O407  1  0.33190979  0.89717388  0.80603880  1
  O2-  O408  1  0.60066569  0.16521072  0.14621642  1
  O2-  O409  1  0.58383258  0.18208947  0.47720518  1
  O2-  O410  1  0.57915472  0.14120077  0.81171277  1
  O2-  O411  1  0.58975543  0.41683824  0.15386665  1
  O2-  O412  1  0.59035309  0.42879604  0.47679031  1
  O2-  O413  1  0.59359380  0.44176483  0.79250070  1
  O2-  O414  1  0.60536451  0.66237235  0.19054756  1
  O2-  O415  1  0.59668258  0.68109772  0.46113806  1
  O2-  O416  1  0.58066689  0.66803145  0.79841834  1
  O2-  O417  1  0.58165685  0.91228154  0.14836831  1
  O2-  O418  1  0.60152669  0.90386151  0.48004314  1
  O2-  O419  1  0.58075235  0.90173061  0.80946316  1
  O2-  O420  1  0.83064594  0.15872278  0.14810392  1
  O2-  O421  1  0.83841536  0.15460870  0.47955874  1
  O2-  O422  1  0.82409150  0.15685998  0.80710863  1
  O2-  O423  1  0.82918050  0.42147718  0.15502947  1
  O2-  O424  1  0.82262508  0.40928763  0.47923039  1
  O2-  O425  1  0.83424675  0.41733345  0.81092872  1
  O2-  O426  1  0.86974587  0.63971646  0.16624488  1
  O2-  O427  1  0.83258459  0.66864562  0.47300134  1
  O2-  O428  1  0.85480877  0.68898432  0.81482439  1
  O2-  O429  1  0.83410020  0.89878712  0.14722656  1
  O2-  O430  1  0.82238762  0.90383778  0.47484261  1
  O2-  O431  1  0.83456444  0.91066213  0.80826000  1
  O2-  O432  1  0.16966732  0.08095503  0.19642658  1
  O2-  O433  1  0.16855327  0.08570228  0.51347828  1
  O2-  O434  1  0.17415711  0.08309080  0.86514251  1
  O2-  O435  1  0.17348132  0.33325736  0.15745306  1
  O2-  O436  1  0.15620407  0.33236110  0.51764379  1
  O2-  O437  1  0.15903732  0.31760505  0.83711296  1
  O2-  O438  1  0.17703524  0.59750438  0.20123982  1
  O2-  O439  1  0.16013663  0.57514753  0.52312711  1
  O2-  O440  1  0.17787806  0.55739937  0.85420169  1
  O2-  O441  1  0.15937216  0.82945089  0.18895277  1
  O2-  O442  1  0.18001108  0.84213854  0.51012933  1
  O2-  O443  1  0.15236579  0.82371046  0.86309655  1
  O2-  O444  1  0.42721564  0.08813749  0.19254674  1
  O2-  O445  1  0.42428688  0.09923186  0.51591166  1
  O2-  O446  1  0.43025837  0.10047700  0.86277053  1
  O2-  O447  1  0.42634203  0.34672176  0.19147072  1
  O2-  O448  1  0.42134098  0.35591589  0.50684102  1
  O2-  O449  1  0.41171263  0.32719594  0.80277542  1
  O2-  O450  1  0.42088842  0.59038402  0.18537411  1
  O2-  O451  1  0.43200020  0.58850844  0.51921257  1
  O2-  O452  1  0.41419194  0.57501964  0.83478881  1
  O2-  O453  1  0.42049044  0.83677851  0.19924379  1
  O2-  O454  1  0.43268706  0.85222763  0.51846848  1
  O2-  O455  1  0.41782606  0.81909967  0.85235678  1
  O2-  O456  1  0.66446395  0.07265752  0.19370688  1
  O2-  O457  1  0.67790639  0.05634585  0.51800581  1
  O2-  O458  1  0.65526075  0.06191364  0.85404999  1
  O2-  O459  1  0.66295470  0.34182581  0.20390920  1
  O2-  O460  1  0.66114749  0.33127499  0.51161892  1
  O2-  O461  1  0.67410476  0.36981587  0.86461999  1
  O2-  O462  1  0.69060455  0.57566233  0.17073331  1
  O2-  O463  1  0.66879399  0.59202624  0.51268944  1
  O2-  O464  1  0.70287767  0.59555095  0.88560137  1
  O2-  O465  1  0.67264215  0.83403563  0.19026490  1
  O2-  O466  1  0.64510223  0.85512264  0.49911105  1
  O2-  O467  1  0.67014741  0.83127124  0.85262975  1
  O2-  O468  1  0.91123424  0.07107392  0.18863969  1
  O2-  O469  1  0.92677500  0.09198618  0.52971755  1
  O2-  O470  1  0.92080171  0.08007494  0.83879095  1
  O2-  O471  1  0.90965651  0.32972657  0.18926568  1
  O2-  O472  1  0.90048093  0.31816695  0.51756755  1
  O2-  O473  1  0.90343407  0.32261932  0.85278967  1
  O2-  O474  1  0.91498719  0.59925025  0.19434216  1
  O2-  O475  1  0.91788164  0.58388551  0.51840775  1
  O2-  O476  1  0.92908127  0.59501530  0.83372827  1
  O2-  O477  1  0.92481626  0.82001652  0.18779920  1
  O2-  O478  1  0.91625418  0.83478855  0.51919434  1
  O2-  O479  1  0.93807222  0.85141489  0.85202730  1
  O2-  O480  1  0.14324644  0.04811151  0.31678366  1
  O2-  O481  1  0.16897877  0.07792888  0.63970074  1
  O2-  O482  1  0.17939362  0.07425640  0.98349815  1
  O2-  O483  1  0.16556316  0.34401134  0.33668983  1
  O2-  O484  1  0.15535435  0.31888332  0.63909477  1
  O2-  O485  1  0.17120966  0.36993730  0.95530139  1
  O2-  O486  1  0.19324872  0.59881375  0.32285408  1
  O2-  O487  1  0.16163351  0.57326571  0.64416481  1
  O2-  O488  1  0.19708851  0.54255060  0.98579605  1
  O2-  O489  1  0.13073079  0.79919816  0.30721761  1
  O2-  O490  1  0.18340295  0.83696148  0.63674977  1
  O2-  O491  1  0.17323544  0.84517120  0.98583923  1
  O2-  O492  1  0.43768617  0.09641816  0.31590937  1
  O2-  O493  1  0.41662953  0.07925239  0.64244584  1
  O2-  O494  1  0.42839042  0.10232515  0.97556665  1
  O2-  O495  1  0.44241571  0.35648576  0.31451480  1
  O2-  O496  1  0.42902742  0.36984476  0.62967095  1
  O2-  O497  1  0.40826175  0.31359686  1.02260603  1
  O2-  O498  1  0.42707713  0.58965476  0.30838045  1
  O2-  O499  1  0.45125655  0.60946745  0.63821126  1
  O2-  O500  1  0.45965558  0.61128808  0.99430669  1
  O2-  O501  1  0.42624127  0.82906822  0.32231764  1
  O2-  O502  1  0.41969746  0.82169508  0.64301963  1
  O2-  O503  1  0.39537186  0.82548831  0.97572783  1
  O2-  O504  1  0.67154122  0.07039284  0.32069593  1
  O2-  O505  1  0.66512903  0.05615044  0.64242772  1
  O2-  O506  1  0.64954944  0.07081611  0.97791711  1
  O2-  O507  1  0.66697586  0.33903757  0.32517506  1
  O2-  O508  1  0.66914463  0.31542606  0.64450881  1
  O2-  O509  1  0.68942681  0.30818197  0.96561651  1
  O2-  O510  1  0.63245613  0.62997077  0.31109342  1
  O2-  O511  1  0.67688281  0.62424212  0.63058240  1
  O2-  O512  1  0.71154040  0.66622498  1.00645406  1
  O2-  O513  1  0.67364700  0.83157853  0.31068334  1
  O2-  O514  1  0.66349515  0.81025573  0.65549245  1
  O2-  O515  1  0.69363614  0.89277329  0.96981597  1
  O2-  O516  1  0.90926100  0.07411812  0.31275015  1
  O2-  O517  1  0.91019359  0.06800281  0.64626261  1
  O2-  O518  1  0.97048925  0.16272122  0.94255440  1
  O2-  O519  1  0.92160664  0.35745862  0.31573772  1
  O2-  O520  1  0.90722837  0.32010231  0.64155854  1
  O2-  O521  1  0.89895886  0.32151382  0.97757033  1
  O2-  O522  1  0.88089596  0.57724910  0.31099404  1
  O2-  O523  1  0.90721074  0.56996190  0.64211360  1
  O2-  O524  1  0.89284154  0.57181332  0.98210136  1
  O2-  O525  1  0.90559335  0.82431318  0.30924403  1
  O2-  O526  1  0.91517354  0.84202284  0.64361439  1
  O2-  O527  1  0.92892371  0.84062287  0.97482711  1
  O2-  O528  1  0.06140332  0.12846822  0.02403748  1
  O2-  O529  1  0.07194130  0.16936468  0.36958151  1
  O2-  O530  1  0.08082204  0.15468131  0.68204986  1
  O2-  O531  1  0.02962989  0.31784348  0.03170276  1
  O2-  O532  1  0.09532234  0.44531654  0.36234186  1
  O2-  O533  1  0.07371518  0.40624476  0.68350886  1
  O2-  O534  1  0.07772393  0.68075055  0.02638888  1
  O2-  O535  1  0.03343749  0.63602364  0.35568615  1
  O2-  O536  1  0.07464379  0.65675711  0.69685489  1
  O2-  O537  1  0.09692175  0.93063504  0.02789876  1
  O2-  O538  1  0.06235325  0.89106438  0.35978828  1
  O2-  O539  1  0.09184226  0.91698840  0.68313696  1
  O2-  O540  1  0.32516627  0.14908360  0.03479939  1
  O2-  O541  1  0.35375444  0.18310457  0.33853087  1
  O2-  O542  1  0.31835492  0.14572812  0.69362326  1
  O2-  O543  1  0.31960130  0.43046274  0.01155029  1
  O2-  O544  1  0.33545892  0.42301431  0.35203422  1
  O2-  O545  1  0.31141477  0.39884786  0.67343533  1
  O2-  O546  1  0.35840256  0.68276182  0.03924745  1
  O2-  O547  1  0.34350944  0.66199206  0.35045690  1
  O2-  O548  1  0.33173039  0.65718871  0.68630984  1
  O2-  O549  1  0.34924364  0.93313040  -0.01941699  1
  O2-  O550  1  0.36699041  0.93676055  0.36526181  1
  O2-  O551  1  0.34043990  0.91059507  0.68344725  1
  O2-  O552  1  0.58184944  0.17089973  0.01297671  1
  O2-  O553  1  0.59859078  0.17146426  0.36030780  1
  O2-  O554  1  0.58229623  0.14087242  0.68094656  1
  O2-  O555  1  0.57563145  0.41299581  0.03162439  1
  O2-  O556  1  0.59602604  0.42393204  0.36065677  1
  O2-  O557  1  0.57563176  0.46825159  0.66769218  1
  O2-  O558  1  0.55668550  0.54369608  0.04147176  1
  O2-  O559  1  0.58621087  0.66996438  0.34004885  1
  O2-  O560  1  0.61726788  0.72021950  0.67829628  1
  O2-  O561  1  0.56737690  0.90946856  0.02353465  1
  O2-  O562  1  0.59390844  0.91102202  0.36076281  1
  O2-  O563  1  0.58869472  0.89377257  0.68785794  1
  O2-  O564  1  0.81194852  0.15681273  0.01895630  1
  O2-  O565  1  0.82867144  0.13711337  0.35962343  1
  O2-  O566  1  0.83012634  0.15233712  0.68360420  1
  O2-  O567  1  0.82959465  0.41031511  0.02739661  1
  O2-  O568  1  0.82633507  0.41847534  0.35710326  1
  O2-  O569  1  0.82902563  0.40763908  0.68733734  1
  O2-  O570  1  0.85510605  0.67971484  0.03615431  1
  O2-  O571  1  0.79911988  0.66265984  0.35144333  1
  O2-  O572  1  0.80142156  0.62824573  0.69534021  1
  O2-  O573  1  0.79188424  0.83578512  0.02900152  1
  O2-  O574  1  0.83539215  0.91659415  0.34905543  1
  O2-  O575  1  0.81905103  0.89811319  0.68613337  1
