# generated using pymatgen
data_H2O
_symmetry_space_group_name_H-M   'P 1'
_cell_length_a   18.00399655
_cell_length_b   18.00944872
_cell_length_c   22.02069050
_cell_angle_alpha   90.03253645
_cell_angle_beta   90.00489908
_cell_angle_gamma   120.03443656
_symmetry_Int_Tables_number   1
_chemical_formula_structural   H2O
_chemical_formula_sum   'H384 O192'
_cell_volume   6181.30236063
_cell_formula_units_Z   192
loop_
 _symmetry_equiv_pos_site_id
 _symmetry_equiv_pos_as_xyz
  1  'x, y, z'
loop_
 _atom_type_symbol
 _atom_type_oxidation_number
  H+  1.0
  O2-  -2.0
loop_
 _atom_site_type_symbol
 _atom_site_label
 _atom_site_symmetry_multiplicity
 _atom_site_fract_x
 _atom_site_fract_y
 _atom_site_fract_z
 _atom_site_occupancy
  H+  H0  1  0.11145515  0.97495552  0.17566535  1
  H+  H1  1  0.36212852  0.72083924  0.15783074  1
  H+  H2  1  -0.01630413  0.78308536  0.45878059  1
  H+  H3  1  0.88599911  0.02277487  0.17304254  1
  H+  H4  1  0.13790473  0.52359634  0.99393493  1
  H+  H5  1  0.89709391  0.62064087  0.32308492  1
  H+  H6  1  0.28128831  0.95430108  0.11094057  1
  H+  H7  1  0.89443574  0.28469755  0.50689097  1
  H+  H8  1  0.78495711  0.38921787  0.66820736  1
  H+  H9  1  0.35793634  0.71843087  1.00948632  1
  H+  H10  1  0.38630506  0.14000139  0.00198955  1
  H+  H11  1  0.46933438  0.61233254  0.66948699  1
  H+  H12  1  0.97588950  0.11625730  0.86253479  1
  H+  H13  1  0.63954961  0.61920361  0.61085042  1
  H+  H14  1  0.22895699  0.85533453  0.66718608  1
  H+  H15  1  0.52686588  0.39860863  0.00686518  1
  H+  H16  1  0.61740065  0.23092868  0.34127825  1
  H+  H17  1  0.84990247  0.88362297  0.16148001  1
  H+  H18  1  0.61014548  0.57831698  0.62775340  1
  H+  H19  1  1.02727182  0.89765045  1.00660664  1
  H+  H20  1  0.52251940  0.60219690  0.49467781  1
  H+  H21  1  0.11334318  0.73602922  0.82371589  1
  H+  H22  1  0.37259585  0.13872457  0.15522260  1
  H+  H23  1  0.89376882  0.64012779  0.66774089  1
  H+  H24  1  0.10863341  0.88571797  0.00591063  1
  H+  H25  1  0.38668191  0.84258560  0.66127780  1
  H+  H26  1  0.11046924  0.15777534  0.52923666  1
  H+  H27  1  0.73452359  0.35813934  0.32816675  1
  H+  H28  1  0.02078688  0.64024096  0.00334987  1
  H+  H29  1  0.62543630  0.47091693  0.16479103  1
  H+  H30  1  0.03084298  0.42023869  0.83439219  1
  H+  H31  1  0.22427680  0.61320065  1.00263318  1
  H+  H32  1  0.36188626  0.24775396  0.49223973  1
  H+  H33  1  0.14959059  0.12406096  0.31366790  1
  H+  H34  1  0.17642549  0.83812716  0.27627366  1
  H+  H35  1  0.64208945  0.37764894  0.83346147  1
  H+  H36  1  0.72039615  0.08553476  0.34027374  1
  H+  H37  1  0.63761784  -0.00210668  0.32896442  1
  H+  H38  1  0.14753862  0.62288251  0.16993111  1
  H+  H39  1  0.62891040  1.01950826  0.16419570  1
  H+  H40  1  0.11975681  0.73261937  0.50054723  1
  H+  H41  1  0.89365684  0.08233923  0.94324976  1
  H+  H42  1  0.70099630  0.15853016  1.00601875  1
  H+  H43  1  0.27258227  0.63321822  0.16237175  1
  H+  H44  1  0.25483893  0.11002557  0.81359811  1
  H+  H45  1  0.79700837  0.13519586  0.66825968  1
  H+  H46  1  0.14190315  0.11917895  0.84885318  1
  H+  H47  1  0.62702615  0.92311435  0.50043674  1
  H+  H48  1  0.16763470  0.60314717  0.91032360  1
  H+  H49  1  0.61916300  0.87239263  -0.00591726  1
  H+  H50  1  0.61973360  1.03890325  0.85872985  1
  H+  H51  1  0.35619503  0.38174007  0.71371091  1
  H+  H52  1  0.47734814  0.36490102  0.14960675  1
  H+  H53  1  0.40338586  0.77675387  0.50832508  1
  H+  H54  1  0.38489475  0.50941373  0.50548203  1
  H+  H55  1  0.79553572  0.39005693  -0.00810068  1
  H+  H56  1  0.12113860  0.74250611  0.34946551  1
  H+  H57  1  0.76397398  0.89177922  0.16727979  1
  H+  H58  1  1.03351663  0.37394215  0.13973666  1
  H+  H59  1  0.36683188  0.85439248  0.15949781  1
  H+  H60  1  0.75593764  0.89216582  0.01226462  1
  H+  H61  1  0.27329621  0.39025510  0.71134129  1
  H+  H62  1  0.87856951  0.15335462  0.82409397  1
  H+  H63  1  0.77580734  0.65093364  0.14923777  1
  H+  H64  1  0.50981611  0.90559381  0.81963510  1
  H+  H65  1  0.77988582  0.64680105  0.81555708  1
  H+  H66  1  0.84556535  0.67176790  0.48205994  1
  H+  H67  1  0.13398729  0.02643371  0.84212180  1
  H+  H68  1  0.60754776  0.74100974  -0.00004758  1
  H+  H69  1  0.18943599  0.08567306  -0.06004614  1
  H+  H70  1  0.63457625  0.59742534  0.32936575  1
  H+  H71  1  0.75656965  0.86580676  0.48646838  1
  H+  H72  1  0.12283482  0.31223339  0.43980960  1
  H+  H73  1  0.17043865  0.34356998  0.25358377  1
  H+  H74  1  0.73826583  0.86089447  0.66761693  1
  H+  H75  1  0.64399939  0.01956798  0.67032415  1
  H+  H76  1  0.74032216  0.33739654  0.81937293  1
  H+  H77  1  0.83712915  0.66303957  0.75693960  1
  H+  H78  1  0.61627446  0.35318006  -0.00771390  1
  H+  H79  1  0.64950280  0.65528716  0.18296338  1
  H+  H80  1  0.86728939  0.22080338  0.15613839  1
  H+  H81  1  0.10719482  0.88453316  0.18497660  1
  H+  H82  1  0.63245507  0.53899393  0.99094044  1
  H+  H83  1  0.01826414  0.39158310  0.67372872  1
  H+  H84  1  0.14668177  0.55269087  0.84713019  1
  H+  H85  1  0.44586736  0.42664325  0.61168198  1
  H+  H86  1  0.86417243  -0.02379560  0.33733608  1
  H+  H87  1  0.39421605  0.82673962  0.22052729  1
  H+  H88  1  1.00475133  0.15504915  1.01253992  1
  H+  H89  1  0.89582380  0.52220825  0.51404420  1
  H+  H90  1  0.14237066  0.27228817  0.69437462  1
  H+  H91  1  0.60883122  0.68904173  0.48400949  1
  H+  H92  1  0.52489220  0.14549633  0.49684510  1
  H+  H93  1  0.54608823  0.39356369  0.66000999  1
  H+  H94  1  1.03051262  0.89359863  0.33082127  1
  H+  H95  1  0.52815799  0.15841900  0.66613693  1
  H+  H96  1  0.87867187  0.87469613  0.99798529  1
  H+  H97  1  0.65254976  0.84410156  0.93638890  1
  H+  H98  1  0.25333715  0.09428510  0.52630634  1
  H+  H99  1  0.91161490  0.36514710  0.99384751  1
  H+  H100  1  0.13503509  0.84612273  0.67143476  1
  H+  H101  1  0.36351186  0.99289659  0.15222251  1
  H+  H102  1  0.83837068  -0.03918746  0.48901100  1
  H+  H103  1  0.28733038  0.89568350  0.34298788  1
  H+  H104  1  0.14208728  0.27005481  0.17290826  1
  H+  H105  1  0.73802932  0.69755525  0.21803013  1
  H+  H106  1  0.58993845  0.40991876  0.38937384  1
  H+  H107  1  0.11418746  0.42399448  0.46255310  1
  H+  H108  1  0.87730547  0.40212863  0.34820738  1
  H+  H109  1  0.53536141  0.39953971  0.82277702  1
  H+  H110  1  0.90209795  0.90526609  0.84615090  1
  H+  H111  1  0.59228230  0.85352556  0.32224878  1
  H+  H112  1  0.59395215  0.12938383  0.64430075  1
  H+  H113  1  0.37932810  0.40125263  0.85703635  1
  H+  H114  1  0.61696019  0.12796453  0.15548394  1
  H+  H115  1  0.11773958  0.98205637  0.34017865  1
  H+  H116  1  0.11777266  0.23319579  0.86601245  1
  H+  H117  1  0.37779196  0.85093589  0.32268926  1
  H+  H118  1  0.13398965  0.52470965  0.47625100  1
  H+  H119  1  0.36124763  0.71917646  0.66272296  1
  H+  H120  1  0.24392998  0.36633431  0.88267263  1
  H+  H121  1  0.97825199  0.11086225  0.17409509  1
  H+  H122  1  0.14127235  0.35790241  0.16188668  1
  H+  H123  1  0.74833876  0.90157833  0.82660200  1
  H+  H124  1  0.14862230  0.38649846  0.31085982  1
  H+  H125  1  0.13073619  0.39025510  -0.01462686  1
  H+  H126  1  0.85529220  0.32583144  0.27959973  1
  H+  H127  1  0.39734655  0.27305550  0.99656361  1
  H+  H128  1  0.38835755  0.27684176  0.14793043  1
  H+  H129  1  0.02146017  0.90139752  0.83638629  1
  H+  H130  1  0.64800581  0.28029886  0.50270763  1
  H+  H131  1  0.59220573  0.42608849  0.76121596  1
  H+  H132  1  0.60342050  0.80536437  0.44492291  1
  H+  H133  1  0.86601830  0.13069266  0.15664117  1
  H+  H134  1  0.10321211  0.38993244  0.69302606  1
  H+  H135  1  0.48344786  0.36253133  0.31413574  1
  H+  H136  1  -0.01851345  0.87019313  0.50242250  1
  H+  H137  1  0.57572950  0.78388186  0.51211051  1
  H+  H138  1  0.11420008  0.13516143  0.15571830  1
  H+  H139  1  0.88865958  0.77948593  0.16193296  1
  H+  H140  1  0.77148465  0.15450447  0.49191049  1
  H+  H141  1  0.45358363  0.33424871  0.48125794  1
  H+  H142  1  0.43100627  0.07853886  0.93198883  1
  H+  H143  1  0.88237228  0.22681604  0.66328925  1
  H+  H144  1  0.39165042  0.29116588  0.65798789  1
  H+  H145  1  0.97507182  0.11345332  0.31945151  1
  H+  H146  1  0.13566044  0.77083872  -0.00625368  1
  H+  H147  1  0.40590644  0.17450779  0.67032055  1
  H+  H148  1  0.09947928  0.23468563  0.00453473  1
  H+  H149  1  0.65729904  0.59197702  0.48976511  1
  H+  H150  1  0.23288967  0.11419797  0.16018802  1
  H+  H151  1  0.88315877  0.03128443  0.85157027  1
  H+  H152  1  0.12700640  0.72226785  0.67372169  1
  H+  H153  1  0.38944186  0.61788894  0.00175527  1
  H+  H154  1  0.89233714  0.88235856  0.51080278  1
  H+  H155  1  0.38356906  0.10605837  0.51997826  1
  H+  H156  1  0.28149039  0.67926438  0.85819966  1
  H+  H157  1  0.86841645  0.73121341  0.32257310  1
  H+  H158  1  0.50762651  0.88752750  0.14516217  1
  H+  H159  1  0.77939082  0.63847965  0.32950519  1
  H+  H160  1  0.90187769  0.37544526  0.50988554  1
  H+  H161  1  0.81611996  0.91903074  0.07181967  1
  H+  H162  1  0.72222471  0.62773499  -0.01269010  1
  H+  H163  1  0.90538919  0.51835004  0.66789134  1
  H+  H164  1  0.51875834  0.13560425  0.33956119  1
  H+  H165  1  0.85266049  0.63232138  0.14697951  1
  H+  H166  1  0.39798532  0.11220217  0.31869342  1
  H+  H167  1  0.92012578  0.59835049  0.92602243  1
  H+  H168  1  0.88058785  0.78756980  0.98933386  1
  H+  H169  1  0.47588890  0.63023761  0.84856649  1
  H+  H170  1  0.50494973  0.89430359  -0.00826202  1
  H+  H171  1  0.62399211  0.47206088  0.33226241  1
  H+  H172  1  0.99986890  0.60649785  0.66721927  1
  H+  H173  1  0.72041032  0.10299540  0.17023793  1
  H+  H174  1  0.63554404  0.25730489  0.16213466  1
  H+  H175  1  -0.00830815  0.61754583  0.51492427  1
  H+  H176  1  0.22990561  0.08690142  0.72068232  1
  H+  H177  1  0.82821870  0.90403166  0.73567107  1
  H+  H178  1  0.38482462  0.52018078  0.67818196  1
  H+  H179  1  0.30540534  0.20470264  0.67811213  1
  H+  H180  1  -0.04833032  0.08754842  0.52296442  1
  H+  H181  1  0.57086695  0.99335208  0.00938293  1
  H+  H182  1  0.80566755  0.52840574  0.21400581  1
  H+  H183  1  0.61554470  0.46571264  0.49199098  1
  H+  H184  1  0.60853874  0.73450106  0.68091319  1
  H+  H185  1  0.53158681  0.90671480  0.51027310  1
  H+  H186  1  0.90001638  0.10010141  0.66247096  1
  H+  H187  1  0.92779579  0.09157866  0.45570935  1
  H+  H188  1  0.87381627  0.48847258  0.34405764  1
  H+  H189  1  0.38365718  0.52060435  0.16669027  1
  H+  H190  1  0.22516650  0.85966987  0.98906113  1
  H+  H191  1  0.06488896  0.88496272  0.75106798  1
  H+  H192  1  0.26198893  0.62247950  0.66138747  1
  H+  H193  1  0.82898804  0.67384846  0.05171569  1
  H+  H194  1  0.62324755  0.38170441  0.15698468  1
  H+  H195  1  0.13780580  0.77066688  0.17785891  1
  H+  H196  1  0.11690575  0.24398227  0.32072539  1
  H+  H197  1  0.76994371  0.36564085  0.15569321  1
  H+  H198  1  0.38825330  0.51397643  0.31178562  1
  H+  H199  1  0.59204725  0.14477223  0.82853754  1
  H+  H200  1  0.77273672  0.58958101  0.62962175  1
  H+  H201  1  0.60418814  0.74321674  0.17195893  1
  H+  H202  1  0.37099084  0.97262573  -0.00614221  1
  H+  H203  1  0.61229507  0.64809380  0.83310613  1
  H+  H204  1  0.67759856  0.83576703  0.60948339  1
  H+  H205  1  0.48246093  0.60397681  0.31459537  1
  H+  H206  1  0.37903553  0.23481035  0.31688264  1
  H+  H207  1  0.38481095  0.78910796  0.92797304  1
  H+  H208  1  0.39896273  0.28831921  0.85059953  1
  H+  H209  1  0.16177325  0.65016003  0.32968958  1
  H+  H210  1  0.23706371  0.12122353  0.31642705  1
  H+  H211  1  0.39132266  0.08939720  0.69882525  1
  H+  H212  1  0.24312474  0.36667820  -0.02342607  1
  H+  H213  1  0.97835912  0.85263215  0.66375380  1
  H+  H214  1  0.97416122  0.86873498  0.17751669  1
  H+  H215  1  0.36554330  0.39298634  0.14251766  1
  H+  H216  1  0.51047875  0.85424411  0.29694207  1
  H+  H217  1  0.01596967  0.79055146  0.72726340  1
  H+  H218  1  0.87785253  0.35267756  0.84249813  1
  H+  H219  1  0.13802935  0.13859301  0.69528396  1
  H+  H220  1  0.36695775  0.08527275  0.83389760  1
  H+  H221  1  -0.02098625  0.08896780  0.67853017  1
  H+  H222  1  0.09391792  0.16017140  0.64374681  1
  H+  H223  1  0.02436106  0.63493441  0.15817217  1
  H+  H224  1  0.61549351  0.14873997  0.49598447  1
  H+  H225  1  0.14389236  -0.03303416  0.57017036  1
  H+  H226  1  0.49145715  0.08750838  0.99059743  1
  H+  H227  1  0.03460233  0.65020136  0.34431450  1
  H+  H228  1  0.39432755  0.36140442  0.30943636  1
  H+  H229  1  0.68315031  0.50455428  0.63169130  1
  H+  H230  1  0.82886978  0.39620895  0.73146017  1
  H+  H231  1  0.85582878  0.49787694  0.17283706  1
  H+  H232  1  0.14875623  0.87567491  0.33217244  1
  H+  H233  1  0.05579745  0.44305106  0.31578700  1
  H+  H234  1  0.86794270  0.96312941  0.67748038  1
  H+  H235  1  0.40066144  0.02342910  0.32682041  1
  H+  H236  1  0.85219554  0.12650456  0.00743966  1
  H+  H237  1  0.12826608  0.84788732  0.50508558  1
  H+  H238  1  0.37021061  0.95071890  0.68470277  1
  H+  H239  1  0.29650571  0.64669304  0.49609654  1
  H+  H240  1  0.86259283  0.22826762  0.00896683  1
  H+  H241  1  0.27597139  0.39171796  0.32067200  1
  H+  H242  1  0.78473037  0.40140917  0.49709222  1
  H+  H243  1  0.55438601  0.40053309  0.54096814  1
  H+  H244  1  0.89450425  0.35716486  0.16035697  1
  H+  H245  1  0.84710481  0.43627470  0.43938967  1
  H+  H246  1  0.37109178  0.84562682  0.97898876  1
  H+  H247  1  0.85297234  0.14342732  0.49193823  1
  H+  H248  1  0.13749856  0.51816206  0.65654758  1
  H+  H249  1  0.14848095  0.63151818  0.50611737  1
  H+  H250  1  0.89059963  0.85696731  0.66130630  1
  H+  H251  1  0.22471864  0.86095330  0.17816303  1
  H+  H252  1  0.14555516  0.61086475  0.65905229  1
  H+  H253  1  0.86013562  0.64985844  -0.00882572  1
  H+  H254  1  0.62738592  0.78148386  0.84577916  1
  H+  H255  1  0.61840298  0.88495421  0.67763405  1
  H+  H256  1  0.58709225  0.22958672  0.82332222  1
  H+  H257  1  0.67216613  0.11005065  0.69874637  1
  H+  H258  1  0.89071534  0.28029257  0.32095899  1
  H+  H259  1  0.64045956  0.04813991  0.51815125  1
  H+  H260  1  0.33553969  0.17269862  0.77207716  1
  H+  H261  1  0.61279221  0.70308812  0.34232300  1
  H+  H262  1  0.34008550  0.91295859  0.05196894  1
  H+  H263  1  0.62939713  0.27025221  0.98664440  1
  H+  H264  1  0.87978411  0.72118387  0.65734741  1
  H+  H265  1  0.62238213  0.87484969  0.15983873  1
  H+  H266  1  0.62803899  0.38302972  0.66977930  1
  H+  H267  1  0.88822521  0.62026864  0.83624467  1
  H+  H268  1  0.05430680  0.87209562  0.42694059  1
  H+  H269  1  0.48973629  0.11115210  0.16473074  1
  H+  H270  1  0.34831833  0.37337977  0.47118715  1
  H+  H271  1  0.89392830  0.86583516  0.32066933  1
  H+  H272  1  0.88503488  0.54171189  0.98707027  1
  H+  H273  1  0.36463640  0.81417090  0.82025834  1
  H+  H274  1  0.52674619  0.87837374  0.67226874  1
  H+  H275  1  0.36937854  0.47930319  1.00005240  1
  H+  H276  1  0.46719381  0.11205300  0.83425668  1
  H+  H277  1  0.22309965  0.86515466  0.84699675  1
  H+  H278  1  0.61740454  0.86625618  0.84512105  1
  H+  H279  1  0.63858500  0.53848404  0.83184263  1
  H+  H280  1  0.37955742  0.63753442  0.50181744  1
  H+  H281  1  0.28583015  0.89366717  0.49148666  1
  H+  H282  1  0.15696458  1.02511118  -0.00182102  1
  H+  H283  1  0.38170054  0.61101599  0.17201371  1
  H+  H284  1  0.97615631  0.61965866  0.83795782  1
  H+  H285  1  0.65286136  0.27841343  0.64831547  1
  H+  H286  1  0.87184842  0.14739470  0.33744422  1
  H+  H287  1  1.03767914  0.37919041  0.98980567  1
  H+  H288  1  0.57873775  0.92293076  0.77004722  1
  H+  H289  1  0.86542897  0.18373690  0.75877414  1
  H+  H290  1  0.18368813  0.61155174  0.23260460  1
  H+  H291  1  0.90688055  0.28524580  0.83788365  1
  H+  H292  1  0.64312215  0.36542426  0.50726107  1
  H+  H293  1  0.41941651  0.57839268  0.24623054  1
  H+  H294  1  0.42465635  0.09049249  0.57777129  1
  H+  H295  1  0.83113666  0.16755260  0.07359268  1
  H+  H296  1  0.91929771  0.86433495  0.90465963  1
  H+  H297  1  0.19413012  0.06519356  0.65059231  1
  H+  H298  1  0.56363629  0.92032946  0.08395746  1
  H+  H299  1  0.35279761  0.92306867  0.39868439  1
  H+  H300  1  0.07852659  0.66712835  0.09690463  1
  H+  H301  1  0.07600055  0.17228386  0.10496125  1
  H+  H302  1  0.58349020  0.13934787  0.09114106  1
  H+  H303  1  0.37351305  0.68834217  0.85178053  1
  H+  H304  1  0.38967404  0.35993848  0.99603148  1
  H+  H305  1  0.79064809  0.98419948  0.78604876  1
  H+  H306  1  0.37564792  0.97929168  0.49808535  1
  H+  H307  1  0.15878409  0.83273539  0.90217764  1
  H+  H308  1  0.42083341  0.59880994  0.93775356  1
  H+  H309  1  0.57611288  0.67907003  0.77831145  1
  H+  H310  1  0.67879104  0.11471473  0.57253925  1
  H+  H311  1  0.27972032  0.09981628  0.45816415  1
  H+  H312  1  0.66688595  0.59542881  0.89220984  1
  H+  H313  1  0.34839526  0.88420033  0.73787640  1
  H+  H314  1  0.11964663  0.65148777  0.83126845  1
  H+  H315  1  0.17248221  0.83903144  0.56720733  1
  H+  H316  1  0.10909587  0.89446068  0.83702127  1
  H+  H317  1  0.33661180  0.41923333  0.37952967  1
  H+  H318  1  0.37426989  0.96820043  0.84519897  1
  H+  H319  1  0.08455107  0.45180056  0.77412023  1
  H+  H320  1  0.51369887  0.64214770  0.99942437  1
  H+  H321  1  0.33193955  0.66028744  0.07085731  1
  H+  H322  1  0.43339549  0.08258309  0.22656401  1
  H+  H323  1  0.62326806  0.86473865  0.22855937  1
  H+  H324  1  0.86537537  0.68663185  0.41106153  1
  H+  H325  1  0.08340596  0.19448504  0.80123515  1
  H+  H326  1  0.39519058  0.86261456  0.50859671  1
  H+  H327  1  0.56970551  0.63286233  0.39594624  1
  H+  H328  1  0.09554424  0.18166904  0.37702080  1
  H+  H329  1  0.60157185  0.64466702  0.68598947  1
  H+  H330  1  0.34586629  0.16344354  0.09247933  1
  H+  H331  1  0.59169150  0.43109465  0.06302414  1
  H+  H332  1  0.93687934  0.57859759  0.58209966  1
  H+  H333  1  0.09758486  0.40395175  0.08369551  1
  H+  H334  1  0.33067805  0.41930109  0.05787176  1
  H+  H335  1  0.41995493  0.34908942  0.56578077  1
  H+  H336  1  0.64163777  0.10907931  0.91018767  1
  H+  H337  1  0.73598635  0.84659083  0.33238553  1
  H+  H338  1  0.10754982  0.63387748  0.00880468  1
  H+  H339  1  0.76704216  0.27771068  0.78394558  1
  H+  H340  1  0.12242457  0.04226958  0.56305979  1
  H+  H341  1  0.83698439  0.91387376  0.39606822  1
  H+  H342  1  0.86024796  0.02163622  1.00478464  1
  H+  H343  1  0.38618103  0.54315923  0.85390697  1
  H+  H344  1  0.67336710  0.80631529  0.27683004  1
  H+  H345  1  0.41949547  0.82118606  0.59915126  1
  H+  H346  1  0.93702552  0.33579429  0.21604519  1
  H+  H347  1  0.67187671  0.58665520  0.26742875  1
  H+  H348  1  0.26884846  0.39006650  0.46862830  1
  H+  H349  1  0.68835396  0.34625073  0.59478854  1
  H+  H350  1  0.52590868  0.64638282  0.16848703  1
  H+  H351  1  0.35566900  0.18199276  0.37758620  1
  H+  H352  1  0.12491812  0.32375997  0.50986404  1
  H+  H353  1  0.41483091  0.56119988  0.56942932  1
  H+  H354  1  0.08609711  0.67506121  0.43983677  1
  H+  H355  1  0.14891997  0.52993321  0.32182084  1
  H+  H356  1  0.88851160  0.35869761  0.66065521  1
  H+  H357  1  0.75556065  0.43348669  0.02493347  1
  H+  H358  1  0.43471489  0.34087576  0.91163608  1
  H+  H359  1  0.33586133  0.42271793  0.80313548  1
  H+  H360  1  0.66641221  0.31233842  0.22445496  1
  H+  H361  1  0.06939698  0.07884573  0.48737777  1
  H+  H362  1  0.93799140  0.86653836  0.57549758  1
  H+  H363  1  0.17181615  0.58548303  0.56021587  1
  H+  H364  1  0.29328957  0.13401463  0.00262218  1
  H+  H365  1  0.84094943  0.18097383  0.39456513  1
  H+  H366  1  0.35782133  0.62307081  0.66853005  1
  H+  H367  1  0.10529152  0.47318257  0.40197428  1
  H+  H368  1  0.09932314  0.66810583  0.73640000  1
  H+  H369  1  0.57984756  0.17100555  0.40622485  1
  H+  H370  1  0.61452927  0.64893088  -0.00431403  1
  H+  H371  1  0.65607233  0.33733503  0.89498041  1
  H+  H372  1  0.64649540  0.35808768  0.32228161  1
  H+  H373  1  0.91879498  0.83696694  0.25871425  1
  H+  H374  1  0.17812151  0.09052450  0.22124544  1
  H+  H375  1  0.91730868  0.32710851  0.92891680  1
  H+  H376  1  0.82852152  0.40994811  0.09759751  1
  H+  H377  1  0.27520626  0.38975001  0.15306829  1
  H+  H378  1  0.92371704  0.33711591  0.59919990  1
  H+  H379  1  0.90968982  0.07879369  0.26498774  1
  H+  H380  1  0.26072424  0.67089298  0.31547367  1
  H+  H381  1  0.17643130  0.34185926  0.64368159  1
  H+  H382  1  0.70670829  0.56161003  0.53623147  1
  H+  H383  1  0.92267443  0.58051955  0.26925600  1
  O2-  O384  1  0.08020541  0.16483788  0.14973012  1
  O2-  O385  1  0.06978266  0.09599908  0.52964756  1
  O2-  O386  1  0.08339013  0.17742559  0.84323210  1
  O2-  O387  1  0.09440647  0.39900038  0.12857201  1
  O2-  O388  1  0.09880757  0.46790470  0.44941954  1
  O2-  O389  1  0.08990608  0.45615148  0.81867353  1
  O2-  O390  1  0.08261728  0.66954648  0.14289583  1
  O2-  O391  1  0.08660655  0.67168678  0.48587463  1
  O2-  O392  1  0.08862335  0.67613497  0.80807668  1
  O2-  O393  1  0.07340417  0.91387572  0.18684985  1
  O2-  O394  1  0.03485642  0.84290231  0.46731856  1
  O2-  O395  1  0.08083324  0.92419606  0.81746521  1
  O2-  O396  1  0.33898734  0.16355021  0.13788082  1
  O2-  O397  1  0.30128320  0.12824406  0.49725620  1
  O2-  O398  1  0.30004011  0.11275228  0.78431811  1
  O2-  O399  1  0.33391883  0.42570996  0.13522416  1
  O2-  O400  1  0.33069541  0.41596963  0.45998158  1
  O2-  O401  1  0.34160400  0.42600669  0.84795476  1
  O2-  O402  1  0.33433498  0.65923225  0.14613449  1
  O2-  O403  1  0.35872223  0.67628203  0.48860690  1
  O2-  O404  1  0.34479854  0.72247680  0.85607860  1
  O2-  O405  1  0.31814955  0.93737859  0.13222099  1
  O2-  O406  1  0.34695241  0.92146998  0.47916462  1
  O2-  O407  1  0.34163304  0.90275776  0.84730969  1
  O2-  O408  1  0.58680691  0.15699744  0.13529826  1
  O2-  O409  1  0.58258712  0.17510091  0.47722458  1
  O2-  O410  1  0.55842703  0.16909946  0.80932707  1
  O2-  O411  1  0.59896606  0.41751382  0.14185607  1
  O2-  O412  1  0.56980491  0.40146613  0.49814415  1
  O2-  O413  1  0.59449417  0.43310257  0.80633262  1
  O2-  O414  1  0.58824411  0.68336054  0.16107903  1
  O2-  O415  1  0.57926454  0.62782353  0.47330424  1
  O2-  O416  1  0.57989375  0.67941293  0.82327762  1
  O2-  O417  1  0.56727214  0.91702673  0.12925337  1
  O2-  O418  1  0.59255710  0.95083860  0.50146741  1
  O2-  O419  1  0.57070718  0.92264884  0.81479717  1
  O2-  O420  1  0.83502378  0.16042855  0.14062764  1
  O2-  O421  1  0.83128406  0.17986631  0.47580032  1
  O2-  O422  1  0.86241736  0.19153314  0.80312005  1
  O2-  O423  1  0.83144786  0.40252628  0.14212428  1
  O2-  O424  1  0.84675784  0.43604584  0.48494342  1
  O2-  O425  1  0.78976957  0.33673701  0.79755588  1
  O2-  O426  1  0.83277749  0.67018393  0.13003527  1
  O2-  O427  1  0.89118324  0.70330706  0.45268228  1
  O2-  O428  1  0.83924801  0.66849313  0.80160100  1
  O2-  O429  1  0.82167089  0.91715386  0.14861999  1
  O2-  O430  1  0.81868744  0.89967867  0.47872030  1
  O2-  O431  1  0.80368356  0.94274566  0.80468247  1
  O2-  O432  1  0.17292561  0.08753094  0.17636336  1
  O2-  O433  1  0.16761344  0.02874757  0.57499028  1
  O2-  O434  1  0.17325788  0.08758268  0.85490079  1
  O2-  O435  1  0.17332932  0.33239998  0.18443369  1
  O2-  O436  1  0.15041669  0.35462767  0.47213736  1
  O2-  O437  1  0.18171848  0.33184863  0.89522013  1
  O2-  O438  1  0.18065101  0.59871593  0.18852796  1
  O2-  O439  1  0.17745323  0.59703835  0.51539572  1
  O2-  O440  1  0.17580768  0.61242815  0.86537300  1
  O2-  O441  1  0.16823854  0.82783687  0.19817507  1
  O2-  O442  1  0.17451434  0.83901651  0.52186126  1
  O2-  O443  1  0.16124888  0.83868268  0.85632302  1
  O2-  O444  1  0.42938416  0.08445038  0.18181390  1
  O2-  O445  1  0.42341669  0.08609733  0.53312226  1
  O2-  O446  1  0.40783756  0.07059351  0.85265278  1
  O2-  O447  1  0.41515385  0.34013640  0.14532239  1
  O2-  O448  1  0.39304223  0.31128705  0.49415806  1
  O2-  O449  1  0.43548675  0.34669134  0.86525707  1
  O2-  O450  1  0.41359848  0.58022981  0.18588415  1
  O2-  O451  1  0.42222692  0.56645945  0.52473939  1
  O2-  O452  1  0.41586964  0.60511956  0.86433226  1
  O2-  O453  1  0.40100665  0.83021565  0.17509463  1
  O2-  O454  1  0.42792656  0.83649476  0.52610652  1
  O2-  O455  1  0.38557439  0.87440670  0.80441992  1
  O2-  O456  1  0.66007717  0.07748859  0.18303183  1
  O2-  O457  1  0.67261391  0.11201784  0.52814449  1
  O2-  O458  1  0.64508294  0.10058774  0.86612862  1
  O2-  O459  1  0.66739259  0.31756094  0.17964264  1
  O2-  O460  1  0.68070125  0.34103877  0.51697910  1
  O2-  O461  1  0.65853043  0.33605869  0.84979672  1
  O2-  O462  1  0.69686880  0.64292967  0.19935904  1
  O2-  O463  1  0.68918659  0.56067918  0.49244634  1
  O2-  O464  1  0.66569735  0.59875424  0.84723261  1
  O2-  O465  1  0.64736502  0.85260806  0.19124296  1
  O2-  O466  1  0.62553145  0.80389669  0.48528719  1
  O2-  O467  1  0.65474903  0.84317559  0.85954043  1
  O2-  O468  1  0.91654079  0.08317384  0.18819948  1
  O2-  O469  1  0.90241629  0.07165927  0.49590395  1
  O2-  O470  1  0.91301985  0.08842560  0.87124063  1
  O2-  O471  1  0.92635625  0.32706928  0.17194448  1
  O2-  O472  1  0.92924600  0.34306611  0.52457863  1
  O2-  O473  1  0.92218375  0.34076644  0.85944103  1
  O2-  O474  1  0.86113876  0.55019548  0.19395659  1
  O2-  O475  1  0.93270098  0.58237045  0.53479538  1
  O2-  O476  1  0.91811280  0.59214695  0.85594522  1
  O2-  O477  1  0.90866500  0.83579856  0.18177134  1
  O2-  O478  1  0.94687150  0.89007462  0.53014686  1
  O2-  O479  1  0.92709152  0.87113468  0.85939441  1
  O2-  O480  1  0.17552241  0.08825358  0.30448561  1
  O2-  O481  1  0.20607223  0.10371422  0.68586615  1
  O2-  O482  1  0.19708168  0.08532568  0.98420883  1
  O2-  O483  1  0.17076185  0.34764423  0.30058907  1
  O2-  O484  1  0.17008581  0.33589303  0.68770955  1
  O2-  O485  1  0.18075146  0.33356122  0.96211783  1
  O2-  O486  1  0.19548915  0.62639102  0.31062623  1
  O2-  O487  1  0.17216302  0.57876965  0.63943714  1
  O2-  O488  1  0.16411331  0.58666560  0.98697810  1
  O2-  O489  1  0.17972634  0.84430195  0.32159093  1
  O2-  O490  1  0.17150420  0.82947281  0.64754415  1
  O2-  O491  1  0.16366541  0.83020743  0.97673388  1
  O2-  O492  1  0.43298852  0.08422554  0.31042952  1
  O2-  O493  1  0.41750803  0.12632001  0.66356506  1
  O2-  O494  1  0.43225318  0.07509184  0.97703461  1
  O2-  O495  1  0.42421362  0.32989166  0.29827853  1
  O2-  O496  1  0.44840035  0.37423373  0.60592448  1
  O2-  O497  1  0.42537183  0.33480216  0.98247374  1
  O2-  O498  1  0.42261764  0.57605522  0.29657565  1
  O2-  O499  1  0.40932484  0.57436846  0.65418315  1
  O2-  O500  1  0.42508240  0.59383167  0.98347893  1
  O2-  O501  1  0.39558549  0.81699929  0.29619549  1
  O2-  O502  1  0.41693018  0.81281037  0.64499867  1
  O2-  O503  1  0.40082330  0.81237971  0.96974646  1
  O2-  O504  1  0.66712779  0.04287325  0.35963000  1
  O2-  O505  1  0.67814548  0.08291281  0.66202541  1
  O2-  O506  1  0.65264398  0.16027774  0.98674661  1
  O2-  O507  1  0.67529951  0.32435464  0.31136350  1
  O2-  O508  1  0.68605060  0.34189731  0.64005563  1
  O2-  O509  1  0.65054349  0.32965916  0.97361868  1
  O2-  O510  1  0.67028201  0.57397291  0.31176609  1
  O2-  O511  1  0.73035025  0.54155447  0.60397189  1
  O2-  O512  1  0.65990649  0.59889083  0.97457550  1
  O2-  O513  1  0.67483048  0.80446249  0.32118103  1
  O2-  O514  1  0.67579990  0.83480839  0.65375843  1
  O2-  O515  1  0.64945571  0.84117347  0.98208395  1
  O2-  O516  1  0.91269594  0.07967508  0.31078991  1
  O2-  O517  1  0.92465289  0.06169698  0.65571876  1
  O2-  O518  1  0.88780838  0.08313672  0.98901763  1
  O2-  O519  1  0.90811066  0.33764938  0.30033974  1
  O2-  O520  1  0.92182507  0.33145363  0.64509592  1
  O2-  O521  1  0.92116218  0.32139511  0.97554391  1
  O2-  O522  1  0.92883303  0.58911056  0.31366568  1
  O2-  O523  1  0.93987462  0.57760316  0.64979884  1
  O2-  O524  1  0.91917289  0.60143974  0.97295408  1
  O2-  O525  1  0.92319127  0.83556913  0.30423178  1
  O2-  O526  1  0.92649273  0.83817825  0.63801958  1
  O2-  O527  1  0.91197846  0.85009137  0.97977564  1
  O2-  O528  1  0.05797966  0.19409555  0.03398229  1
  O2-  O529  1  0.08922780  0.18157131  0.33312412  1
  O2-  O530  1  0.09927059  0.16333017  0.68800865  1
  O2-  O531  1  0.09760146  0.41546444  0.00360520  1
  O2-  O532  1  0.11223191  0.46600415  0.33494053  1
  O2-  O533  1  0.07845845  0.42773527  0.69066348  1
  O2-  O534  1  0.07915477  0.66687300  0.02248385  1
  O2-  O535  1  0.09157856  0.68163940  0.36472796  1
  O2-  O536  1  0.10090457  0.66282138  0.69017789  1
  O2-  O537  1  0.08707962  0.92316036  0.02095866  1
  O2-  O538  1  0.08584121  0.92110960  0.35384107  1
  O2-  O539  1  0.04994715  0.84915381  0.71174056  1
  O2-  O540  1  0.35620160  0.17027759  0.01639248  1
  O2-  O541  1  0.34912615  0.17272223  0.33390747  1
  O2-  O542  1  0.36601019  0.24531460  0.68908992  1
  O2-  O543  1  0.33644166  0.41800273  0.01230860  1
  O2-  O544  1  0.33753713  0.41901984  0.33430632  1
  O2-  O545  1  0.33623020  0.42241481  0.72132058  1
  O2-  O546  1  0.33075226  0.65802359  0.02502529  1
  O2-  O547  1  0.35829909  0.73226354  0.32250400  1
  O2-  O548  1  0.32588163  0.65566831  0.67732185  1
  O2-  O549  1  0.33576695  0.91052183  0.00730737  1
  O2-  O550  1  0.34985044  0.92361333  0.35345625  1
  O2-  O551  1  0.33466968  0.88992437  0.69407485  1
  O2-  O552  1  0.57831996  0.09364671  0.02237069  1
  O2-  O553  1  0.57994569  0.17106936  0.35937198  1
  O2-  O554  1  0.58968978  0.17710204  0.66116473  1
  O2-  O555  1  0.58935098  0.43237296  0.01792653  1
  O2-  O556  1  0.59353153  0.40973697  0.34512594  1
  O2-  O557  1  0.60009509  0.41705820  0.68255278  1
  O2-  O558  1  0.58046451  0.67761839  0.01092545  1
  O2-  O559  1  0.57412284  0.64017878  0.35072140  1
  O2-  O560  1  0.57158045  0.67529400  0.69774778  1
  O2-  O561  1  0.56308105  0.93373583  0.00853174  1
  O2-  O562  1  0.57364431  0.88079490  0.29216593  1
  O2-  O563  1  0.58546650  0.91350428  0.68951782  1
  O2-  O564  1  0.82624027  0.16805758  0.02601937  1
  O2-  O565  1  0.84908954  0.18532968  0.34974203  1
  O2-  O566  1  0.85884999  0.16624992  0.67835628  1
  O2-  O567  1  0.81060342  0.43464530  0.02266946  1
  O2-  O568  1  0.84327918  0.42876714  0.36145196  1
  O2-  O569  1  0.84303661  0.41473120  0.68816355  1
  O2-  O570  1  0.82619742  0.67652477  0.00658012  1
  O2-  O571  1  0.84217166  0.67063212  0.33825622  1
  O2-  O572  1  0.85494207  0.66365919  0.67558386  1
  O2-  O573  1  0.81673476  0.92324385  0.02627722  1
  O2-  O574  1  0.83833089  0.91489773  0.35117312  1
  O2-  O575  1  0.83451435  0.90054517  0.69104027  1
