# generated using pymatgen
data_H2O
_symmetry_space_group_name_H-M   'P 1'
_cell_length_a   17.97577802
_cell_length_b   17.98383136
_cell_length_c   22.00229978
_cell_angle_alpha   89.96973492
_cell_angle_beta   90.01204687
_cell_angle_gamma   119.98763287
_symmetry_Int_Tables_number   1
_chemical_formula_structural   H2O
_chemical_formula_sum   'H384 O192'
_cell_volume   6160.59520792
_cell_formula_units_Z   192
loop_
 _symmetry_equiv_pos_site_id
 _symmetry_equiv_pos_as_xyz
  1  'x, y, z'
loop_
 _atom_type_symbol
 _atom_type_oxidation_number
  H+  1.0
  O2-  -2.0
loop_
 _atom_site_type_symbol
 _atom_site_label
 _atom_site_symmetry_multiplicity
 _atom_site_fract_x
 _atom_site_fract_y
 _atom_site_fract_z
 _atom_site_occupancy
  H+  H0  1  0.36730145  0.12450096  0.84414786  1
  H+  H1  1  1.03489636  0.65153476  0.33638893  1
  H+  H2  1  0.41746718  0.59064861  0.26348473  1
  H+  H3  1  0.39541279  0.52135725  0.83793936  1
  H+  H4  1  0.11180365  0.12925266  0.83038982  1
  H+  H5  1  0.11916748  0.13914966  0.33970259  1
  H+  H6  1  0.08895663  0.42374877  0.06090111  1
  H+  H7  1  -0.02899616  0.09748948  0.66826931  1
  H+  H8  1  0.85716885  0.88100117  0.00571019  1
  H+  H9  1  0.35811394  -0.00089913  0.85243002  1
  H+  H10  1  0.23063386  0.60414739  0.83008387  1
  H+  H11  1  0.84998891  0.63132131  0.16932102  1
  H+  H12  1  0.37016241  0.71936882  0.81770769  1
  H+  H13  1  0.36264521  0.88284123  0.33275806  1
  H+  H14  1  0.23289285  0.11421427  0.32462434  1
  H+  H15  1  0.62067285  0.85501930  0.64555288  1
  H+  H16  1  0.96789845  0.36504516  0.65842664  1
  H+  H17  1  0.82489885  0.15464906  0.06767625  1
  H+  H18  1  0.82074424  0.13012747  0.33168938  1
  H+  H19  1  0.48586065  0.11978940  0.17449504  1
  H+  H20  1  0.85273256  0.96908500  0.83712736  1
  H+  H21  1  0.14536118  0.87333599  0.32382934  1
  H+  H22  1  0.53860399  0.63606201  0.32329130  1
  H+  H23  1  0.13854149  0.27862547  0.16344497  1
  H+  H24  1  1.01378171  0.64278125  0.84811324  1
  H+  H25  1  0.72936057  0.83863728  0.50096069  1
  H+  H26  1  0.51357127  0.38583698  0.34150194  1
  H+  H27  1  0.86416907  0.63812311  0.01469715  1
  H+  H28  1  0.82492032  0.66636335  0.11101178  1
  H+  H29  1  0.36165806  0.36608583  1.01294885  1
  H+  H30  1  0.60988075  0.69309039  0.51485985  1
  H+  H31  1  0.12466693  0.74156620  0.15660381  1
  H+  H32  1  0.35443123  0.11732248  0.01351786  1
  H+  H33  1  0.61520547  0.85892946  0.17086992  1
  H+  H34  1  0.59148701  -0.02606289  0.50821917  1
  H+  H35  1  0.85808870  0.75623537  0.19165288  1
  H+  H36  1  0.63343482  1.01806425  -0.00798001  1
  H+  H37  1  0.51173915  0.11119806  0.67676414  1
  H+  H38  1  0.40918539  0.85083654  0.64494631  1
  H+  H39  1  0.88399858  0.10709304  0.99940887  1
  H+  H40  1  0.34308379  0.36151013  0.50052924  1
  H+  H41  1  0.79611084  0.30292788  0.86285982  1
  H+  H42  1  0.97376429  0.87112471  0.84880130  1
  H+  H43  1  0.60344276  0.88021769  0.00174967  1
  H+  H44  1  0.66009789  0.58043747  0.95828307  1
  H+  H45  1  0.60702435  0.63282089  0.65887015  1
  H+  H46  1  0.62606666  0.72301832  0.32562371  1
  H+  H47  1  0.47298628  0.63325941  0.98687218  1
  H+  H48  1  0.94414652  0.84551376  0.19322601  1
  H+  H49  1  0.79685623  0.40760916  0.31586620  1
  H+  H50  1  0.89632850  0.54836705  0.33153293  1
  H+  H51  1  0.59567309  0.36598446  0.66427979  1
  H+  H52  1  0.59918912  0.13032946  0.48073247  1
  H+  H53  1  0.23105979  0.35753335  0.84104344  1
  H+  H54  1  0.86266329  0.73310919  0.35102002  1
  H+  H55  1  0.62512773  0.53980963  0.64249370  1
  H+  H56  1  -0.01900101  0.12325770  0.32259501  1
  H+  H57  1  0.81946115  0.40879152  0.10117705  1
  H+  H58  1  0.85680731  0.20359221  0.82740885  1
  H+  H59  1  0.10313844  0.37598656  0.32179543  1
  H+  H60  1  0.89164335  0.11189909  0.17090571  1
  H+  H61  1  0.49140523  0.36054065  0.66777336  1
  H+  H62  1  0.86393576  0.28470742  0.31736546  1
  H+  H63  1  0.37103346  0.38293546  0.83128040  1
  H+  H64  1  0.00952329  0.37404599  0.52412620  1
  H+  H65  1  0.63595856  0.35648075  -0.01988396  1
  H+  H66  1  0.37435829  0.35737918  0.33611129  1
  H+  H67  1  0.12427049  0.14786496  0.15432650  1
  H+  H68  1  0.11449409  0.46974067  0.81791250  1
  H+  H69  1  0.82301101  0.42730759  0.82853392  1
  H+  H70  1  0.36437742  0.22771034  0.32783813  1
  H+  H71  1  0.28250837  0.90737492  0.15089667  1
  H+  H72  1  0.00743376  0.92317764  0.11447971  1
  H+  H73  1  0.13995998  1.00986846  0.66330673  1
  H+  H74  1  0.63278261  0.11069232  0.17035719  1
  H+  H75  1  0.85237634  0.47445964  0.65753163  1
  H+  H76  1  0.13566125  0.61238752  0.50625427  1
  H+  H77  1  0.11686033  0.98274440  0.33719529  1
  H+  H78  1  0.37928775  0.60392914  0.65918533  1
  H+  H79  1  0.62040549  0.25983150  0.65938799  1
  H+  H80  1  0.37327513  0.14767422  0.34884700  1
  H+  H81  1  -0.01501757  0.12255585  0.17019211  1
  H+  H82  1  0.65997143  0.07392261  0.89955130  1
  H+  H83  1  0.58863551  0.36466454  0.34413560  1
  H+  H84  1  0.69306981  0.30867970  0.82830977  1
  H+  H85  1  0.38249022  0.09267880  0.50806930  1
  H+  H86  1  0.37656249  0.65144358  0.98048613  1
  H+  H87  1  0.79736574  0.92201264  0.74490427  1
  H+  H88  1  0.26786377  0.36888453  0.00568399  1
  H+  H89  1  0.82783962  0.86248936  0.16380799  1
  H+  H90  1  0.56593794  0.06390972  0.31183459  1
  H+  H91  1  0.58621425  0.36679443  0.49413851  1
  H+  H92  1  0.12732220  0.73573661  0.33453406  1
  H+  H93  1  0.85728583  -0.03003866  1.00823007  1
  H+  H94  1  0.85965011  0.21826954  1.01037830  1
  H+  H95  1  0.72760918  0.61667815  1.01231459  1
  H+  H96  1  0.02567719  0.87756700  0.66832042  1
  H+  H97  1  0.13873050  0.09872970  0.66916565  1
  H+  H98  1  0.37847167  0.86019180  0.54994590  1
  H+  H99  1  0.13295004  0.27302422  0.84282620  1
  H+  H100  1  0.13737323  0.35066428  0.66402051  1
  H+  H101  1  0.12882736  0.90213977  -0.01519300  1
  H+  H102  1  0.37430269  0.52692357  0.16234719  1
  H+  H103  1  0.37473464  0.76988906  0.32260258  1
  H+  H104  1  0.96559768  0.33336880  0.31055193  1
  H+  H105  1  0.98372845  0.61902458  1.00299022  1
  H+  H106  1  0.12897387  0.52104773  0.51980974  1
  H+  H107  1  0.12575321  0.38717397  0.82053091  1
  H+  H108  1  0.36284012  0.74624947  -0.01366280  1
  H+  H109  1  0.60823726  0.13256112  0.67463551  1
  H+  H110  1  1.02661829  0.89464324  0.34343465  1
  H+  H111  1  0.52654557  0.38365654  0.82194761  1
  H+  H112  1  0.14879371  0.74300100  0.81819628  1
  H+  H113  1  0.78032808  0.63540560  0.34953098  1
  H+  H114  1  0.89026468  0.77860642  0.84582053  1
  H+  H115  1  0.45431715  0.07971758  0.84974848  1
  H+  H116  1  0.61694108  0.13346880  0.00994228  1
  H+  H117  1  0.14837519  0.03591684  0.17339721  1
  H+  H118  1  0.37975428  0.86435357  0.16107931  1
  H+  H119  1  0.26724641  0.63968103  0.16187873  1
  H+  H120  1  0.66392425  0.59488220  0.49909041  1
  H+  H121  1  0.27625602  0.37937735  0.67781774  1
  H+  H122  1  0.87178740  0.09687103  0.84236842  1
  H+  H123  1  0.14261429  0.86368270  0.65564651  1
  H+  H124  1  0.16603253  0.31572937  0.60775182  1
  H+  H125  1  0.75269064  0.45166167  0.34929524  1
  H+  H126  1  0.14262955  0.53014559  -0.01462409  1
  H+  H127  1  0.13188825  0.65849036  -0.00558046  1
  H+  H128  1  0.60648653  0.36989852  0.81407862  1
  H+  H129  1  0.92171921  0.56152762  0.84107610  1
  H+  H130  1  0.27840167  0.11214107  0.48425713  1
  H+  H131  1  0.10964198  0.69280708  0.05467042  1
  H+  H132  1  0.39182678  0.88444119  0.98473701  1
  H+  H133  1  0.72524077  0.11532452  0.33837473  1
  H+  H134  1  0.70361315  0.60603512  0.17068918  1
  H+  H135  1  0.59270605  0.96046589  0.83546029  1
  H+  H136  1  0.21611707  0.34578454  0.51326701  1
  H+  H137  1  0.27306128  0.62515304  0.48964501  1
  H+  H138  1  0.87921650  0.01214082  0.49702920  1
  H+  H139  1  0.35120151  0.95747017  0.05775771  1
  H+  H140  1  0.65795738  0.61453429  0.79888297  1
  H+  H141  1  0.18569414  0.12081854  0.80024514  1
  H+  H142  1  0.72756890  0.86819375  0.31331499  1
  H+  H143  1  0.61461003  0.60730304  0.16620045  1
  H+  H144  1  0.46973944  0.60526405  0.65897837  1
  H+  H145  1  0.98149110  0.60931470  0.49847855  1
  H+  H146  1  0.39676757  0.04598198  0.94848021  1
  H+  H147  1  0.65538316  0.52556598  0.80161953  1
  H+  H148  1  0.87107640  1.00835277  0.33541039  1
  H+  H149  1  0.46718373  0.58416408  0.51533277  1
  H+  H150  1  0.21937565  0.60878381  0.66276224  1
  H+  H151  1  0.34842157  0.45418705  0.50031300  1
  H+  H152  1  0.09871073  0.67896149  0.76309093  1
  H+  H153  1  0.16217942  0.79979032  0.98184975  1
  H+  H154  1  0.37415022  0.63136542  0.82162534  1
  H+  H155  1  0.45417823  0.33771013  0.50611170  1
  H+  H156  1  0.85502873  0.21697946  0.15456901  1
  H+  H157  1  0.50328229  0.13079986  0.39504107  1
  H+  H158  1  0.16689660  0.83130801  0.55933141  1
  H+  H159  1  0.13939067  0.27418194  0.99157972  1
  H+  H160  1  0.32742237  0.76620592  0.86623526  1
  H+  H161  1  0.85828001  0.38001178  0.00133704  1
  H+  H162  1  0.35533246  0.38532791  0.15866269  1
  H+  H163  1  0.87742720  0.36419325  0.65848814  1
  H+  H164  1  0.65628799  0.27735219  0.34172266  1
  H+  H165  1  0.89774785  0.61898157  0.50207728  1
  H+  H166  1  0.97739942  0.86385121  0.98986955  1
  H+  H167  1  0.61592860  0.22080399  0.00579628  1
  H+  H168  1  0.37579648  0.27474375  0.17790528  1
  H+  H169  1  0.62953087  0.89519827  0.35140862  1
  H+  H170  1  0.14268677  0.62277665  0.16572233  1
  H+  H171  1  0.89368098  0.77579063  0.65072868  1
  H+  H172  1  0.09491207  0.12884605  0.49837419  1
  H+  H173  1  0.39962868  0.30920370  0.56792975  1
  H+  H174  1  0.39980394  0.94808918  0.68438915  1
  H+  H175  1  0.70126409  0.85131920  0.16955308  1
  H+  H176  1  0.38519978  0.35918540  0.66685025  1
  H+  H177  1  0.23826769  0.12203105  0.17506343  1
  H+  H178  1  0.71933585  0.85840193  0.99195456  1
  H+  H179  1  0.41123317  1.00754119  0.33392638  1
  H+  H180  1  0.14706379  0.61404626  0.82845172  1
  H+  H181  1  0.17260161  0.10339450  0.92129472  1
  H+  H182  1  0.72442118  0.10587934  0.99253323  1
  H+  H183  1  0.83146960  0.34784483  0.87053659  1
  H+  H184  1  0.87459683  0.35563163  0.50277057  1
  H+  H185  1  0.12694740  0.34723059  0.52535921  1
  H+  H186  1  0.47036634  0.09298029  0.50832968  1
  H+  H187  1  0.59578551  0.21653173  0.48004441  1
  H+  H188  1  0.62096547  0.09390181  0.84005525  1
  H+  H189  1  0.83335240  -0.01617777  0.68604180  1
  H+  H190  1  0.02181003  0.13652295  0.00264990  1
  H+  H191  1  0.46504911  0.61701686  0.16486571  1
  H+  H192  1  0.86410499  0.72713140  0.01184727  1
  H+  H193  1  0.87077006  0.10688962  0.49534135  1
  H+  H194  1  0.70532106  0.85659683  0.65685255  1
  H+  H195  1  0.48544949  0.61053103  0.82909993  1
  H+  H196  1  0.90451739  0.78728960  0.50211904  1
  H+  H197  1  0.65032606  0.51981817  0.33847223  1
  H+  H198  1  0.88214074  0.87306852  0.34316506  1
  H+  H199  1  0.03559598  0.65353210  0.15273439  1
  H+  H200  1  0.96894491  0.11322070  0.49753524  1
  H+  H201  1  0.36205205  0.96123247  0.48712558  1
  H+  H202  1  0.14403704  0.03598705  0.97543121  1
  H+  H203  1  0.13366762  0.61140028  0.31900122  1
  H+  H204  1  0.55855102  0.22494597  0.32633881  1
  H+  H205  1  0.46791414  0.86275171  0.16349684  1
  H+  H206  1  0.27632789  0.13332502  0.68392350  1
  H+  H207  1  0.37404189  0.99181219  0.15768241  1
  H+  H208  1  0.59866926  0.63760749  0.01518203  1
  H+  H209  1  0.78923048  0.48733222  0.80406933  1
  H+  H210  1  0.24600844  0.89508013  0.98427300  1
  H+  H211  1  0.59222036  0.72625705  0.16405820  1
  H+  H212  1  0.44212879  0.85889759  0.71416309  1
  H+  H213  1  0.79910404  0.64865472  0.50194315  1
  H+  H214  1  0.76000517  0.12235443  0.82423648  1
  H+  H215  1  0.36178167  0.63621721  0.16038020  1
  H+  H216  1  0.11585884  0.72646074  0.48957037  1
  H+  H217  1  0.59607333  0.47436429  0.17084897  1
  H+  H218  1  0.13013557  0.99237411  0.49115518  1
  H+  H219  1  0.86217564  0.22890810  0.67121764  1
  H+  H220  1  0.48001708  0.35317171  1.00876534  1
  H+  H221  1  0.97741129  0.36159154  0.99719458  1
  H+  H222  1  0.88288130  0.52550573  0.17728271  1
  H+  H223  1  0.61036228  0.71704106  0.81514840  1
  H+  H224  1  0.70882944  0.35183465  0.65582970  1
  H+  H225  1  0.59338407  0.61948940  0.56121913  1
  H+  H226  1  0.27211718  0.87542463  0.48397040  1
  H+  H227  1  0.71469992  0.35578281  0.50241996  1
  H+  H228  1  0.11946806  0.39283888  0.00291945  1
  H+  H229  1  0.37107271  0.14145633  0.16884812  1
  H+  H230  1  0.37510197  0.01638815  0.59275915  1
  H+  H231  1  0.14171827  0.86607664  0.50051936  1
  H+  H232  1  0.60605797  0.72980173  0.00635163  1
  H+  H233  1  1.02189278  0.38885540  0.15212122  1
  H+  H234  1  0.28976076  0.14172194  0.84829359  1
  H+  H235  1  0.66680362  0.97491478  0.39602225  1
  H+  H236  1  0.33228970  0.86290169  0.83770656  1
  H+  H237  1  0.14079583  0.87329604  0.17185634  1
  H+  H238  1  0.76465805  0.38138760  0.16272159  1
  H+  H239  1  0.25943699  0.37173848  0.34331376  1
  H+  H240  1  0.40142821  0.27165290  0.84973852  1
  H+  H241  1  0.71194110  0.10993237  0.50662831  1
  H+  H242  1  0.89396683  0.32193323  0.56486443  1
  H+  H243  1  0.21078312  0.85888581  0.88813141  1
  H+  H244  1  0.89204665  0.11302080  0.66098247  1
  H+  H245  1  0.99772533  0.33639161  0.84255243  1
  H+  H246  1  0.85038113  0.21675274  0.49086830  1
  H+  H247  1  0.88300923  0.89704410  0.49173132  1
  H+  H248  1  0.27722454  0.13616430  0.00460439  1
  H+  H249  1  0.65091802  0.31214790  0.89091854  1
  H+  H250  1  0.80252652  0.65032910  0.81359575  1
  H+  H251  1  0.11756875  0.21347186  0.68012377  1
  H+  H252  1  0.85263334  0.88075682  0.83342405  1
  H+  H253  1  0.35596456  0.61605962  0.48525758  1
  H+  H254  1  0.61321345  0.22708802  0.16093696  1
  H+  H255  1  0.07021399  0.40344024  0.58082352  1
  H+  H256  1  0.72900298  0.12651481  0.65635669  1
  H+  H257  1  0.10884190  0.98337379  0.82527130  1
  H+  H258  1  0.12566647  0.51795830  0.31317171  1
  H+  H259  1  0.23595894  0.88068768  0.64140613  1
  H+  H260  1  0.60116687  0.97488224  0.15501019  1
  H+  H261  1  0.62512433  0.35976002  0.18578267  1
  H+  H262  1  0.11091248  0.47964894  0.15479041  1
  H+  H263  1  0.96790217  0.11222882  0.84600409  1
  H+  H264  1  0.62561041  0.47987417  0.02399260  1
  H+  H265  1  0.88148010  0.35699171  0.16382886  1
  H+  H266  1  0.06939639  0.40579974  0.37786139  1
  H+  H267  1  0.71464185  0.85491580  0.84207610  1
  H+  H268  1  0.50169645  0.87387200  0.83119618  1
  H+  H269  1  0.34687483  0.72241885  0.67874964  1
  H+  H270  1  0.76658594  0.12708287  0.16106802  1
  H+  H271  1  0.12846271  0.26840010  0.31971330  1
  H+  H272  1  0.64676274  0.03666335  0.66365776  1
  H+  H273  1  0.89268956  0.66283795  0.83898585  1
  H+  H274  1  0.96922753  0.60899580  0.65473152  1
  H+  H275  1  0.99274568  0.87871260  0.49969687  1
  H+  H276  1  0.37923373  0.26387337  0.67273729  1
  H+  H277  1  0.62180285  0.84860794  0.84170565  1
  H+  H278  1  0.26526062  0.38611663  0.15335986  1
  H+  H279  1  0.57796783  0.19137758  0.82821746  1
  H+  H280  1  0.17673253  0.33678135  0.93325080  1
  H+  H281  1  0.86028694  0.47640370  0.49108463  1
  H+  H282  1  0.36326870  0.47119674  0.67566394  1
  H+  H283  1  0.21953969  0.16182010  0.53217833  1
  H+  H284  1  0.36196239  0.73536692  0.15925769  1
  H+  H285  1  0.27077299  0.63193381  0.33414406  1
  H+  H286  1  0.35955592  0.20393830  0.49594337  1
  H+  H287  1  0.51737617  0.88703937  -0.00304902  1
  H+  H288  1  0.32629118  0.40154366  0.07534386  1
  H+  H289  1  0.69167423  0.59250101  0.56504787  1
  H+  H290  1  0.33657001  0.16638771  0.74350925  1
  H+  H291  1  0.08382351  0.16752557  0.39698779  1
  H+  H292  1  0.66467022  0.81841389  0.55467156  1
  H+  H293  1  0.11085234  0.63681280  0.67192900  1
  H+  H294  1  0.42170971  0.60301475  0.92193532  1
  H+  H295  1  -0.00310709  0.83295230  0.10615248  1
  H+  H296  1  0.60528173  0.00400672  0.32730864  1
  H+  H297  1  0.16809452  0.58171166  0.92207539  1
  H+  H298  1  0.40634979  0.33877511  0.27293721  1
  H+  H299  1  0.64650158  0.41687934  0.06088381  1
  H+  H300  1  0.92387593  0.31706975  0.93883087  1
  H+  H301  1  0.59228196  0.57278363  0.89309959  1
  H+  H302  1  0.86100602  0.47027158  0.00352229  1
  H+  H303  1  0.33788002  0.91473021  0.39533584  1
  H+  H304  1  0.16826123  0.08824695  0.26940092  1
  H+  H305  1  0.65504932  0.09099929  0.56605166  1
  H+  H306  1  0.57951004  0.52595203  0.89242936  1
  H+  H307  1  0.39369239  0.26246203  1.00265842  1
  H+  H308  1  0.55951950  0.40273668  0.11980064  1
  H+  H309  1  0.64576004  0.31311898  0.23905493  1
  H+  H310  1  0.39863506  0.55991356  0.56643213  1
  H+  H311  1  0.10010020  0.93438837  0.43050572  1
  H+  H312  1  0.55502341  0.13528599  0.76874578  1
  H+  H313  1  0.65488520  0.83781793  0.26268769  1
  H+  H314  1  0.58702885  0.16816972  0.10016881  1
  H+  H315  1  0.91050974  0.07674216  0.93893570  1
  H+  H316  1  0.47143946  0.87243163  0.55018609  1
  H+  H317  1  0.55515731  0.89595895  0.46293155  1
  H+  H318  1  0.90000705  0.63732724  0.33116774  1
  H+  H319  1  0.09325055  0.66947253  0.42951754  1
  H+  H320  1  0.91065198  0.82974089  0.93602391  1
  H+  H321  1  0.76241473  0.64602002  0.65163617  1
  H+  H322  1  0.72584311  0.35849500  0.98013797  1
  H+  H323  1  0.10125351  0.93118000  0.04440657  1
  H+  H324  1  0.16126026  0.32908567  0.25971250  1
  H+  H325  1  0.80812452  0.15171610  0.43353111  1
  H+  H326  1  0.09899325  0.21873980  0.49765600  1
  H+  H327  1  0.84513721  0.63431294  0.65167262  1
  H+  H328  1  0.46246902  0.36472204  0.18298593  1
  H+  H329  1  0.33990930  0.41023350  0.77114199  1
  H+  H330  1  0.32711973  0.65519802  0.73022283  1
  H+  H331  1  0.64651418  0.06838846  0.22947514  1
  H+  H332  1  0.59464795  0.71829371  0.66403596  1
  H+  H333  1  0.43436243  0.08439579  0.23659907  1
  H+  H334  1  0.56597575  0.67172088  0.10174328  1
  H+  H335  1  0.08066551  0.40826034  0.72432542  1
  H+  H336  1  0.93490464  0.84424178  0.59762745  1
  H+  H337  1  0.16818476  0.08689156  0.57860930  1
  H+  H338  1  0.08483617  0.15631327  0.73972255  1
  H+  H339  1  0.13622958  0.36745367  0.16555340  1
  H+  H340  1  0.11393350  0.14159844  -0.00276006  1
  H+  H341  1  0.80703041  0.89205892  0.10000904  1
  H+  H342  1  0.39842372  0.62468307  0.32349770  1
  H+  H343  1  0.91871226  0.59070652  0.23381659  1
  H+  H344  1  0.91919263  0.57966090  0.59128744  1
  H+  H345  1  0.57135762  0.91498063  0.09489158  1
  H+  H346  1  0.27429922  0.64800942  0.98502104  1
  H+  H347  1  0.11084856  0.47444527  0.66895391  1
  H+  H348  1  0.40088369  0.82688811  0.26205686  1
  H+  H349  1  0.60564325  0.93074388  0.74123653  1
  H+  H350  1  0.78556303  0.95817824  0.37398576  1
  H+  H351  1  0.33879312  0.16447932  0.10722550  1
  H+  H352  1  0.82165703  0.41781635  0.43288152  1
  H+  H353  1  0.65221037  0.31816875  0.55948032  1
  H+  H354  1  0.17502896  0.44106224  0.43674654  1
  H+  H355  1  0.65571224  0.60887496  0.32490682  1
  H+  H356  1  0.84894952  0.92761223  0.43296842  1
  H+  H357  1  0.85333499  0.67921952  0.44004288  1
  H+  H358  1  0.32804206  0.65947649  0.39487582  1
  H+  H359  1  0.43222445  0.33556828  0.90584097  1
  H+  H360  1  0.89832545  0.83385770  0.28388011  1
  H+  H361  1  0.30987437  0.39037154  0.40667280  1
  H+  H362  1  0.23701531  0.87737909  0.32215830  1
  H+  H363  1  0.17660838  0.84952911  0.23069265  1
  H+  H364  1  0.82838793  0.16269327  0.72755985  1
  H+  H365  1  0.91208948  0.31828104  0.21784864  1
  H+  H366  1  0.82265203  0.42656984  0.71995675  1
  H+  H367  1  0.57740809  0.66226565  0.75195996  1
  H+  H368  1  0.16207362  0.58395830  0.60250562  1
  H+  H369  1  0.97893780  0.25273824  0.87678546  1
  H+  H370  1  0.08350054  0.90725871  0.72990317  1
  H+  H371  1  0.93230075  0.59451836  0.94272651  1
  H+  H372  1  0.65775427  0.82465596  0.93267839  1
  H+  H373  1  0.09091972  0.17217160  0.09346481  1
  H+  H374  1  0.11685956  0.72815116  0.66859052  1
  H+  H375  1  0.03784351  0.20250420  0.78748737  1
  H+  H376  1  0.69301605  0.95296716  0.70837584  1
  H+  H377  1  0.12944275  0.90716463  0.82963628  1
  H+  H378  1  0.55534119  0.39688392  0.43691365  1
  H+  H379  1  0.16511502  0.58659807  0.22626712  1
  H+  H380  1  0.92488957  0.09396318  0.26081477  1
  H+  H381  1  0.57040855  0.39938470  0.72707343  1
  H+  H382  1  0.18906595  0.48702283  0.42922648  1
  H+  H383  1  0.40447221  0.84519653  0.92148397  1
  O2-  O384  1  0.09397932  0.17748702  0.13876062  1
  O2-  O385  1  0.06651613  0.15867587  0.47981633  1
  O2-  O386  1  0.06181678  0.18154959  0.81833493  1
  O2-  O387  1  0.08367337  0.41988791  0.13890570  1
  O2-  O388  1  0.07171673  0.40362617  0.53632878  1
  O2-  O389  1  0.08827339  0.40898453  0.80358315  1
  O2-  O390  1  0.09593477  0.68265928  0.13858633  1
  O2-  O391  1  0.08814112  0.66549319  0.47470702  1
  O2-  O392  1  0.10913117  0.68163325  0.80831332  1
  O2-  O393  1  0.03296991  0.88826063  0.12607542  1
  O2-  O394  1  0.10054690  0.93295545  0.47616537  1
  O2-  O395  1  0.08606044  0.92193636  0.81627208  1
  O2-  O396  1  0.33832032  0.16869270  0.15227029  1
  O2-  O397  1  0.34038066  0.14568591  0.47839627  1
  O2-  O398  1  0.34614024  0.16444379  0.82943955  1
  O2-  O399  1  0.32655957  0.41447114  0.13699178  1
  O2-  O400  1  0.31179881  0.39191245  0.48781715  1
  O2-  O401  1  0.33931161  0.41164754  0.81661793  1
  O2-  O402  1  0.33016766  0.67066040  0.14746529  1
  O2-  O403  1  0.32889469  0.64821904  0.46887521  1
  O2-  O404  1  0.33933624  0.65786344  0.80657321  1
  O2-  O405  1  0.34221214  0.93586184  0.13504225  1
  O2-  O406  1  0.33255427  0.90211653  0.46948446  1
  O2-  O407  1  0.30114494  0.90146311  0.82418319  1
  O2-  O408  1  0.58395700  0.16657361  0.14648569  1
  O2-  O409  1  0.56555259  0.15647903  0.46427250  1
  O2-  O410  1  0.55249764  0.13108486  0.81423544  1
  O2-  O411  1  0.56544705  0.40829051  0.16416399  1
  O2-  O412  1  0.54748555  0.38817425  0.48160336  1
  O2-  O413  1  0.58124698  0.40445752  0.79850470  1
  O2-  O414  1  0.56255381  0.66586316  0.14688609  1
  O2-  O415  1  0.57532288  0.62939275  0.52091927  1
  O2-  O416  1  0.58089271  0.65797900  0.79814962  1
  O2-  O417  1  0.56783767  0.91381897  0.14033105  1
  O2-  O418  1  0.55780731  0.91042052  0.50597800  1
  O2-  O419  1  0.56250915  0.90048399  0.81895755  1
  O2-  O420  1  0.82550372  0.15505674  0.14309447  1
  O2-  O421  1  0.82049964  0.15492718  0.47822615  1
  O2-  O422  1  0.81959194  0.14783550  0.80722340  1
  O2-  O423  1  0.82415719  0.41190474  0.14613282  1
  O2-  O424  1  0.82648686  0.41464167  0.47725392  1
  O2-  O425  1  0.83321870  0.47123223  0.79811413  1
  O2-  O426  1  0.81958207  0.66249126  0.15608627  1
  O2-  O427  1  0.86083212  0.68388841  0.48520327  1
  O2-  O428  1  0.86482035  0.69170137  0.81923896  1
  O2-  O429  1  0.79509534  0.88638130  0.14425858  1
  O2-  O430  1  0.84892571  0.92612097  0.47815820  1
  O2-  O431  1  0.81929837  0.90924574  0.82103421  1
  O2-  O432  1  0.17571234  0.09501853  0.18762809  1
  O2-  O433  1  0.17117267  0.10304887  0.53363991  1
  O2-  O434  1  0.14907231  0.10162944  0.83625606  1
  O2-  O435  1  0.16877579  0.33898951  0.17997676  1
  O2-  O436  1  0.15534013  0.31212540  0.53077882  1
  O2-  O437  1  0.17195140  0.33531167  0.85754723  1
  O2-  O438  1  0.17024359  0.58957171  0.18022844  1
  O2-  O439  1  0.16448755  0.58356614  0.52664502  1
  O2-  O440  1  0.16966782  0.57656430  0.84391048  1
  O2-  O441  1  0.17533670  0.84794564  0.18446486  1
  O2-  O442  1  0.16599355  0.82965399  0.51373023  1
  O2-  O443  1  0.20953039  0.85437589  0.84266732  1
  O2-  O444  1  0.42602162  0.08980002  0.19265796  1
  O2-  O445  1  0.41027203  0.05921079  0.52328903  1
  O2-  O446  1  0.39728295  0.05832620  0.87004680  1
  O2-  O447  1  0.39884117  0.33539312  0.19113100  1
  O2-  O448  1  0.39261028  0.30429370  0.52338949  1
  O2-  O449  1  0.43043484  0.33396903  0.86079802  1
  O2-  O450  1  0.40146549  0.58708288  0.17685208  1
  O2-  O451  1  0.40313541  0.55620000  0.52151419  1
  O2-  O452  1  0.42580818  0.58383986  0.84821112  1
  O2-  O453  1  0.40539242  0.82988982  0.17636714  1
  O2-  O454  1  0.41790075  0.85113725  0.57530858  1
  O2-  O455  1  0.37607893  0.82184084  0.85489033  1
  O2-  O456  1  0.65840698  0.07545816  0.18485870  1
  O2-  O457  1  0.65193360  0.08712892  0.52060581  1
  O2-  O458  1  0.65661150  0.06877425  0.85390953  1
  O2-  O459  1  0.65814162  0.33007007  0.19565215  1
  O2-  O460  1  0.65337918  0.32007203  0.51438649  1
  O2-  O461  1  0.64035534  0.30276470  0.84547108  1
  O2-  O462  1  0.64044572  0.57030377  0.17227535  1
  O2-  O463  1  0.70649447  0.58627988  0.52135414  1
  O2-  O464  1  0.69448645  0.58786727  0.80139221  1
  O2-  O465  1  0.64147166  0.82596895  0.18817202  1
  O2-  O466  1  0.66853448  0.80369287  0.51176273  1
  O2-  O467  1  0.65326077  0.81932420  0.85585052  1
  O2-  O468  1  0.92769643  0.09049084  0.18932327  1
  O2-  O469  1  0.90518457  0.07832669  0.50915511  1
  O2-  O470  1  0.90680105  0.07458302  0.86201093  1
  O2-  O471  1  0.91492643  0.32772394  0.17270409  1
  O2-  O472  1  0.89943023  0.32097603  0.51961756  1
  O2-  O473  1  0.95247296  0.28743175  0.86716747  1
  O2-  O474  1  0.91425800  0.58727753  0.18847106  1
  O2-  O475  1  0.92089389  0.57967886  0.51358688  1
  O2-  O476  1  0.95466112  0.61317899  0.86616412  1
  O2-  O477  1  0.88478324  0.81679034  0.20793260  1
  O2-  O478  1  0.93179002  0.85015802  0.51335400  1
  O2-  O479  1  0.91380376  0.83969569  0.86356019  1
  O2-  O480  1  0.16903218  0.08541342  0.31445101  1
  O2-  O481  1  0.17151724  0.07275554  0.65095624  1
  O2-  O482  1  0.17567643  0.09878624  0.96586596  1
  O2-  O483  1  0.15494842  0.32906978  0.30475844  1
  O2-  O484  1  0.16853395  0.31986635  0.65338736  1
  O2-  O485  1  0.17711249  0.33603909  0.97932196  1
  O2-  O486  1  0.15973214  0.57893529  0.30018287  1
  O2-  O487  1  0.15820917  0.57803257  0.64815404  1
  O2-  O488  1  0.17253357  0.58922461  0.96743049  1
  O2-  O489  1  0.17675121  0.84575747  0.30584021  1
  O2-  O490  1  0.17476615  0.83675689  0.63700066  1
  O2-  O491  1  0.18827208  0.85939659  0.96502517  1
  O2-  O492  1  0.46544883  0.06581881  0.31659499  1
  O2-  O493  1  0.34139681  -0.01276058  0.63065952  1
  O2-  O494  1  0.39362079  0.04789072  0.99433831  1
  O2-  O495  1  0.41174976  0.33517330  0.31752461  1
  O2-  O496  1  0.41293836  0.32461250  0.65313627  1
  O2-  O497  1  0.42209986  0.32499368  0.99087476  1
  O2-  O498  1  0.43139473  0.59860977  0.30689762  1
  O2-  O499  1  0.40629903  0.56972254  0.64718871  1
  O2-  O500  1  0.41555536  0.61142372  0.96663837  1
  O2-  O501  1  0.40078145  0.82997134  0.30674830  1
  O2-  O502  1  0.39176239  0.84604708  0.68981879  1
  O2-  O503  1  0.41364309  0.84772238  0.96850335  1
  O2-  O504  1  0.61745623  0.05799009  0.30570739  1
  O2-  O505  1  0.66651450  0.09448946  0.64482209  1
  O2-  O506  1  0.66439963  0.07845319  0.97635874  1
  O2-  O507  1  0.61321301  0.27984699  0.31630286  1
  O2-  O508  1  0.64739646  0.31952506  0.64245546  1
  O2-  O509  1  0.66541491  0.32698803  0.96370619  1
  O2-  O510  1  0.68997372  0.57851917  0.32365097  1
  O2-  O511  1  0.65251284  0.59969064  0.62992932  1
  O2-  O512  1  0.66421225  0.58181099  1.00268378  1
  O2-  O513  1  0.66509989  0.84103437  0.30799846  1
  O2-  O514  1  0.65020944  0.82348475  0.63408179  1
  O2-  O515  1  0.65784367  0.82746597  0.97845873  1
  O2-  O516  1  0.92090976  0.09545442  0.30722710  1
  O2-  O517  1  0.91188996  0.07164331  0.65266286  1
  O2-  O518  1  0.91574201  0.07793991  0.98445299  1
  O2-  O519  1  0.91022605  0.29190178  0.29069561  1
  O2-  O520  1  0.90743423  0.33343107  0.64354539  1
  O2-  O521  1  0.91693367  0.32799522  0.98216069  1
  O2-  O522  1  0.92988390  0.60628136  0.31384999  1
  O2-  O523  1  0.91129156  0.57509554  0.63651782  1
  O2-  O524  1  0.92383459  0.58687649  0.98780180  1
  O2-  O525  1  0.91110100  0.84254321  0.32850222  1
  O2-  O526  1  0.93545955  0.83826278  0.64216880  1
  O2-  O527  1  0.91480074  0.82936823  0.98240340  1
  O2-  O528  1  0.08412676  0.17069290  0.01496311  1
  O2-  O529  1  0.08694574  0.16908090  0.35200123  1
  O2-  O530  1  0.08877362  0.15279263  0.69490110  1
  O2-  O531  1  0.08884806  0.42361992  0.01525815  1
  O2-  O532  1  0.06860517  0.40511922  0.33355806  1
  O2-  O533  1  0.07907461  0.41099148  0.67883661  1
  O2-  O534  1  0.10686922  0.69347679  0.00961417  1
  O2-  O535  1  0.09612296  0.67531891  0.34933857  1
  O2-  O536  1  0.08310326  0.66982660  0.68673302  1
  O2-  O537  1  0.09558071  0.93017284  0.00010409  1
  O2-  O538  1  0.08873360  0.92233951  0.35364638  1
  O2-  O539  1  0.08815950  0.90859507  0.68514264  1
  O2-  O540  1  0.33421518  0.15824492  0.02450723  1
  O2-  O541  1  0.33505338  0.16350407  0.32787456  1
  O2-  O542  1  0.33507785  0.17417717  0.69924713  1
  O2-  O543  1  0.32799425  0.39485742  0.02596227  1
  O2-  O544  1  0.31621688  0.39180398  0.36190400  1
  O2-  O545  1  0.33733643  0.41032987  0.69170934  1
  O2-  O546  1  0.33723861  0.68289930  -0.00290318  1
  O2-  O547  1  0.33024624  0.66664757  0.34911030  1
  O2-  O548  1  0.32329165  0.66015077  0.68514872  1
  O2-  O549  1  0.34861411  0.95615785  0.01175724  1
  O2-  O550  1  0.34156096  0.92287568  0.34944890  1
  O2-  O551  1  0.40758254  1.00658980  0.67676330  1
  O2-  O552  1  0.59084273  0.16599096  0.02783716  1
  O2-  O553  1  0.47563591  0.13602761  0.35667942  1
  O2-  O554  1  0.57003795  0.15497422  0.69016126  1
  O2-  O555  1  0.60233267  0.41737386  0.03515474  1
  O2-  O556  1  0.57350581  0.40756706  0.35774336  1
  O2-  O557  1  0.56365888  0.39544898  0.68078727  1
  O2-  O558  1  0.56813870  0.66960244  0.02281021  1
  O2-  O559  1  0.60108985  0.66103272  0.33205399  1
  O2-  O560  1  0.56875988  0.65851930  0.67975935  1
  O2-  O561  1  0.57529024  0.91287037  0.01629389  1
  O2-  O562  1  0.61426606  0.93330984  0.37551736  1
  O2-  O563  1  0.63592720  0.94900216  0.70179450  1
  O2-  O564  1  0.82804930  0.15650470  0.02181128  1
  O2-  O565  1  0.77992342  0.13257568  0.36004995  1
  O2-  O566  1  0.83167273  0.16688102  0.68233130  1
  O2-  O567  1  0.82492669  0.40835066  0.01404749  1
  O2-  O568  1  0.80064722  0.44068074  0.35201837  1
  O2-  O569  1  0.81903913  0.41462185  0.67595482  1
  O2-  O570  1  0.83320773  0.66770609  0.02964377  1
  O2-  O571  1  0.84357112  0.67302013  0.36321348  1
  O2-  O572  1  0.82420901  0.67318796  0.66363420  1
  O2-  O573  1  0.82338763  0.90790101  0.01977836  1
  O2-  O574  1  0.83128234  0.94974603  0.35757676  1
  O2-  O575  1  0.78022207  0.93585294  0.70541037  1
