# generated using pymatgen
data_H2O
_symmetry_space_group_name_H-M   'P 1'
_cell_length_a   17.96391672
_cell_length_b   17.98263792
_cell_length_c   21.98297197
_cell_angle_alpha   89.96155796
_cell_angle_beta   90.12564584
_cell_angle_gamma   119.97713840
_symmetry_Int_Tables_number   1
_chemical_formula_structural   H2O
_chemical_formula_sum   'H384 O192'
_cell_volume   6151.34911804
_cell_formula_units_Z   192
loop_
 _symmetry_equiv_pos_site_id
 _symmetry_equiv_pos_as_xyz
  1  'x, y, z'
loop_
 _atom_type_symbol
 _atom_type_oxidation_number
  H+  1.0
  O2-  -2.0
loop_
 _atom_site_type_symbol
 _atom_site_label
 _atom_site_symmetry_multiplicity
 _atom_site_fract_x
 _atom_site_fract_y
 _atom_site_fract_z
 _atom_site_occupancy
  H+  H0  1  0.42601131  0.56758672  0.56377158  1
  H+  H1  1  0.36148868  0.47119936  0.48309628  1
  H+  H2  1  0.47136438  0.35547808  0.96544856  1
  H+  H3  1  0.46814657  0.85845507  0.66285383  1
  H+  H4  1  0.75339619  0.37260589  0.32574762  1
  H+  H5  1  0.88245289  0.03209189  0.33280959  1
  H+  H6  1  0.39950377  0.60707449  0.50954956  1
  H+  H7  1  0.38845930  0.97501194  0.00157078  1
  H+  H8  1  0.37337569  0.98780864  0.15254272  1
  H+  H9  1  0.56924673  0.79052561  1.01927327  1
  H+  H10  1  0.22148698  0.09581688  0.68703329  1
  H+  H11  1  0.88724512  0.54595781  0.17202355  1
  H+  H12  1  0.02292540  0.89187875  0.48802994  1
  H+  H13  1  0.60389610  0.97739600  0.18992565  1
  H+  H14  1  0.60828360  0.96297592  0.49360242  1
  H+  H15  1  0.68829162  0.56107995  1.00085590  1
  H+  H16  1  0.87642361  0.12354928  0.18374374  1
  H+  H17  1  0.33408268  0.66185320  0.71989282  1
  H+  H18  1  0.64555717  0.35730699  0.83382193  1
  H+  H19  1  0.14710564  0.78635598  0.16779089  1
  H+  H20  1  0.79017002  0.41172225  0.82853332  1
  H+  H21  1  0.32596571  0.64252585  0.55098292  1
  H+  H22  1  0.27424643  0.39971825  0.68302159  1
  H+  H23  1  0.56956835  0.06222572  0.25160985  1
  H+  H24  1  0.63165645  0.51325954  0.50006159  1
  H+  H25  1  0.26059127  0.37608778  0.13725690  1
  H+  H26  1  0.87533560  0.65633663  0.15975155  1
  H+  H27  1  0.75364974  0.40992753  0.15852340  1
  H+  H28  1  0.39893797  0.12783094  0.16150457  1
  H+  H29  1  0.88132034  0.04843979  0.67859881  1
  H+  H30  1  0.90179029  0.79263386  0.31993213  1
  H+  H31  1  0.73073707  0.86176895  0.49872727  1
  H+  H32  1  0.24855040  0.89037785  0.31850601  1
  H+  H33  1  0.66701936  0.27993162  0.33045550  1
  H+  H34  1  0.82600270  0.91120538  0.68681843  1
  H+  H35  1  0.38164793  0.73288760  0.51156620  1
  H+  H36  1  0.60428232  0.38286494  0.15837759  1
  H+  H37  1  0.88803223  0.48536843  0.33797916  1
  H+  H38  1  0.14280010  0.87747965  0.49932967  1
  H+  H39  1  0.92433820  0.81957063  0.00265012  1
  H+  H40  1  0.12029127  0.65466784  0.49324416  1
  H+  H41  1  0.38632752  0.51902022  0.66308174  1
  H+  H42  1  0.64627660  0.30796885  0.66419939  1
  H+  H43  1  0.15180843  0.39565913  0.66692568  1
  H+  H44  1  0.36076975  0.62822825  0.81859763  1
  H+  H45  1  0.14608770  0.61905110  0.17936581  1
  H+  H46  1  0.64528288  0.77220010  0.32686845  1
  H+  H47  1  0.86972857  0.20797756  0.56115046  1
  H+  H48  1  0.09883744  0.18629628  0.86876277  1
  H+  H49  1  0.63118702  0.18975838  0.67179880  1
  H+  H50  1  0.99305690  0.36307005  0.32412860  1
  H+  H51  1  0.91291303  0.62012228  0.33341734  1
  H+  H52  1  0.62465917  0.52461421  0.65277042  1
  H+  H53  1  1.01515214  0.14698372  0.16977942  1
  H+  H54  1  0.77878246  0.89856589  0.15909953  1
  H+  H55  1  0.67558532  0.83176952  0.26749011  1
  H+  H56  1  0.01421406  0.90438827  -0.00310388  1
  H+  H57  1  0.89582974  0.79006125  0.16887927  1
  H+  H58  1  0.13410864  0.27877340  0.17464216  1
  H+  H59  1  0.53807267  0.34992439  0.33793511  1
  H+  H60  1  1.00898924  0.41865657  0.84633880  1
  H+  H61  1  0.91007169  0.63407417  -0.00097803  1
  H+  H62  1  0.23540998  0.61493227  0.33168789  1
  H+  H63  1  0.61196406  0.92425666  0.40581674  1
  H+  H64  1  0.38419332  0.36163697  0.49634845  1
  H+  H65  1  0.67549346  0.34904092  0.59780499  1
  H+  H66  1  0.72092253  0.78639223  -0.01929687  1
  H+  H67  1  0.21629887  0.11353016  0.19738652  1
  H+  H68  1  0.41800216  0.58648859  0.27118315  1
  H+  H69  1  0.38768035  0.60812094  0.65303989  1
  H+  H70  1  0.79975564  0.11047376  0.01588792  1
  H+  H71  1  0.01179735  0.59809841  0.01664973  1
  H+  H72  1  0.14003045  0.62944585  0.64943521  1
  H+  H73  1  0.27894039  0.63871352  0.15656980  1
  H+  H74  1  0.27015708  0.62382629  0.81529764  1
  H+  H75  1  0.73067502  0.36857743  0.98985326  1
  H+  H76  1  0.16914261  1.03026365  -0.00385286  1
  H+  H77  1  0.64158610  0.36180466  0.50735095  1
  H+  H78  1  0.03240890  0.89916805  0.15637644  1
  H+  H79  1  0.23029313  0.86975976  0.64908762  1
  H+  H80  1  0.11458217  -0.01656229  0.34194389  1
  H+  H81  1  0.40836971  0.11211180  0.98753165  1
  H+  H82  1  0.26368918  -0.13483792  0.81798838  1
  H+  H83  1  0.91648246  0.31245536  0.64279616  1
  H+  H84  1  0.47293904  0.60221208  -0.01011568  1
  H+  H85  1  0.63955916  0.27838592  0.17331556  1
  H+  H86  1  0.54075975  0.08953406  0.84753618  1
  H+  H87  1  0.63270112  0.10553585  0.50768769  1
  H+  H88  1  0.14343226  0.90416847  1.01209322  1
  H+  H89  1  0.90704160  0.36561922  0.32862753  1
  H+  H90  1  0.60819050  0.39816816  0.66604295  1
  H+  H91  1  0.62191574  0.93282658  0.03034953  1
  H+  H92  1  0.01798261  0.16125103  0.34134524  1
  H+  H93  1  0.41256134  0.81584173  0.92496819  1
  H+  H94  1  0.38540121  0.77135639  0.32472408  1
  H+  H95  1  0.87960639  0.08090058  0.89482534  1
  H+  H96  1  0.47716265  0.10654687  0.66578387  1
  H+  H97  1  1.02781907  0.39559103  1.01268985  1
  H+  H98  1  0.22568683  0.61909949  0.50501389  1
  H+  H99  1  0.36384326  -0.02754563  0.66752707  1
  H+  H100  1  0.37076443  0.99360602  0.48142206  1
  H+  H101  1  0.78243626  0.64840951  0.15061505  1
  H+  H102  1  0.58854307  0.59530861  0.01096673  1
  H+  H103  1  1.03033287  0.62780267  0.83940220  1
  H+  H104  1  0.91393924  0.94583947  1.01502096  1
  H+  H105  1  0.75878355  0.22591525  0.78971760  1
  H+  H106  1  0.64093190  0.78089745  0.17251616  1
  H+  H107  1  0.61322168  0.98481621  -0.04851314  1
  H+  H108  1  0.11977125  0.73726100  0.65327203  1
  H+  H109  1  0.61866845  0.63981036  0.16175910  1
  H+  H110  1  0.12036204  0.08264567  0.85160367  1
  H+  H111  1  0.78301935  0.39258753  0.49439510  1
  H+  H112  1  0.12272450  0.09735102  0.70214145  1
  H+  H113  1  0.59972655  0.47501778  0.99421146  1
  H+  H114  1  0.43433130  0.37631626  0.30920059  1
  H+  H115  1  0.68151812  0.58189650  0.21722071  1
  H+  H116  1  0.61670210  0.87716727  0.49139593  1
  H+  H117  1  0.61691626  0.14539329  0.16255622  1
  H+  H118  1  0.51994697  0.39192881  0.15013039  1
  H+  H119  1  0.62740111  0.50077367  0.33619188  1
  H+  H120  1  0.36522801  0.72978233  0.15403203  1
  H+  H121  1  0.72301710  0.80083809  1.01329285  1
  H+  H122  1  0.65852885  0.06519192  0.56384956  1
  H+  H123  1  0.03339095  0.65551452  0.48685447  1
  H+  H124  1  0.00275808  0.10874117  0.01693931  1
  H+  H125  1  0.99423564  0.87659104  0.32441964  1
  H+  H126  1  0.13442497  0.32662101  0.84771686  1
  H+  H127  1  0.89874294  0.38154803  0.99916242  1
  H+  H128  1  0.35452527  0.38552436  0.68177579  1
  H+  H129  1  0.65778085  0.15466792  0.35850059  1
  H+  H130  1  0.88401299  0.75802454  0.65265531  1
  H+  H131  1  0.13291692  0.74815883  0.31973366  1
  H+  H132  1  0.66436615  0.08508502  0.26439471  1
  H+  H133  1  0.80278431  0.17595877  0.61297767  1
  H+  H134  1  0.76002212  0.88709269  0.84456036  1
  H+  H135  1  0.13936388  0.59594962  -0.01033910  1
  H+  H136  1  0.15911435  0.08759142  0.55356675  1
  H+  H137  1  0.69745110  0.10111607  0.91231265  1
  H+  H138  1  0.13009466  0.84471493  0.84237573  1
  H+  H139  1  0.97983598  0.11894119  0.51200828  1
  H+  H140  1  0.34659154  0.22476135  0.33380161  1
  H+  H141  1  0.37777898  0.23234551  -0.02469493  1
  H+  H142  1  0.12102210  0.87964381  0.67002336  1
  H+  H143  1  0.63598169  0.37728128  0.33897661  1
  H+  H144  1  0.51460650  0.38647600  0.66908395  1
  H+  H145  1  0.23996653  0.33634022  0.03745587  1
  H+  H146  1  0.13285934  0.02624708  0.17823727  1
  H+  H147  1  0.61735399  0.96699267  0.88012495  1
  H+  H148  1  0.88741732  0.61766646  0.49383896  1
  H+  H149  1  0.64367352  0.77204917  0.49478611  1
  H+  H150  1  0.88849078  0.86641208  0.50326641  1
  H+  H151  1  0.22143276  0.36969352  0.50383209  1
  H+  H152  1  0.11295430  0.39427799  0.49510485  1
  H+  H153  1  0.25462514  0.87148346  0.99451158  1
  H+  H154  1  0.89540830  0.53775014  0.65009137  1
  H+  H155  1  0.84443438  0.98167421  0.83769944  1
  H+  H156  1  0.34963062  0.12188834  0.82204254  1
  H+  H157  1  0.48136402  0.84851590  0.50207300  1
  H+  H158  1  0.69231836  0.18490807  0.83959987  1
  H+  H159  1  0.54114119  0.13142340  0.85036322  1
  H+  H160  1  0.86474426  0.23606811  0.16808063  1
  H+  H161  1  1.00173002  0.39733587  0.50438908  1
  H+  H162  1  0.17228978  0.84952080  0.58779958  1
  H+  H163  1  0.13166746  0.60091822  0.83721700  1
  H+  H164  1  0.88133643  1.03650462  0.18198909  1
  H+  H165  1  0.00212605  0.11944181  0.84908848  1
  H+  H166  1  0.13364283  0.65787882  0.32252602  1
  H+  H167  1  0.48766159  0.12859512  0.15952953  1
  H+  H168  1  0.76202790  0.11504489  0.49625469  1
  H+  H169  1  0.32068279  0.45238547  0.32299995  1
  H+  H170  1  1.00343982  0.62923382  0.31605234  1
  H+  H171  1  0.39498712  0.62953225  0.18237000  1
  H+  H172  1  0.84125969  1.01387559  -0.01618799  1
  H+  H173  1  0.91135129  0.14318194  0.65453858  1
  H+  H174  1  0.39546965  0.12794077  0.50308202  1
  H+  H175  1  0.52052774  0.37807992  0.49150799  1
  H+  H176  1  0.13160317  0.28332443  0.50883981  1
  H+  H177  1  0.47778238  0.61180889  0.84289985  1
  H+  H178  1  0.31463187  0.40867997  0.42556562  1
  H+  H179  1  0.88570978  0.87920383  0.85169267  1
  H+  H180  1  0.71913013  0.60626828  0.50038273  1
  H+  H181  1  0.57568166  0.65900232  0.10643814  1
  H+  H182  1  0.38289655  0.27182709  0.49702904  1
  H+  H183  1  0.12810055  0.35770521  1.00556621  1
  H+  H184  1  0.88958063  0.13525112  0.83539899  1
  H+  H185  1  0.37940764  0.36969286  0.14650283  1
  H+  H186  1  0.11433465  0.24291914  0.34096067  1
  H+  H187  1  0.86103805  0.48456009  1.00589347  1
  H+  H188  1  0.38903860  0.10844373  0.66223654  1
  H+  H189  1  0.60839889  0.63306190  0.83563883  1
  H+  H190  1  0.77238064  0.15493921  0.18185646  1
  H+  H191  1  0.52017184  0.36285012  0.83342526  1
  H+  H192  1  0.38848227  0.86642700  0.17129657  1
  H+  H193  1  0.97802092  0.36425047  0.17340289  1
  H+  H194  1  0.28171153  0.90676101  0.47852676  1
  H+  H195  1  0.62691282  0.76229813  0.85299463  1
  H+  H196  1  0.60187534  0.36165204  -0.00184918  1
  H+  H197  1  0.50395340  0.61320940  0.34038562  1
  H+  H198  1  0.75407012  0.62724454  0.65358841  1
  H+  H199  1  0.88557016  0.61955070  0.64017021  1
  H+  H200  1  0.87122009  0.74962362  0.85650081  1
  H+  H201  1  0.03114746  0.64893843  0.65212837  1
  H+  H202  1  0.26641505  0.12485290  0.98267353  1
  H+  H203  1  0.91992543  0.59000284  0.55265281  1
  H+  H204  1  -0.00013401  0.40032729  0.66715154  1
  H+  H205  1  0.37568514  0.75757575  0.83115368  1
  H+  H206  1  0.37990114  0.85810260  0.65269080  1
  H+  H207  1  0.01809097  0.87828945  0.83114131  1
  H+  H208  1  0.27419762  0.14109850  0.48790492  1
  H+  H209  1  0.76155043  0.01105499  0.94478033  1
  H+  H210  1  0.37785305  0.25136330  0.13622563  1
  H+  H211  1  0.12593834  0.50603971  0.67622656  1
  H+  H212  1  0.12488387  0.47528665  1.01120089  1
  H+  H213  1  1.02703862  0.87012240  0.67380995  1
  H+  H214  1  0.58737592  0.86710473  0.68685482  1
  H+  H215  1  0.87165727  0.98102008  0.49853376  1
  H+  H216  1  0.10201188  0.14313069  0.16711690  1
  H+  H217  1  0.58392812  0.40227730  0.43435696  1
  H+  H218  1  0.86860205  0.48730934  0.48938183  1
  H+  H219  1  0.11576306  0.39369542  0.16611314  1
  H+  H220  1  0.69416195  0.85883828  0.67882765  1
  H+  H221  1  0.32757329  0.90673934  0.72406969  1
  H+  H222  1  0.90050790  0.63194069  0.85472185  1
  H+  H223  1  0.62808220  0.23192190  1.00456747  1
  H+  H224  1  0.47703206  0.86549170  0.17577239  1
  H+  H225  1  0.72499162  0.62620907  0.85941534  1
  H+  H226  1  0.37185702  0.89264177  0.33361372  1
  H+  H227  1  0.59779416  0.86501767  0.83219063  1
  H+  H228  1  0.65305674  0.90226446  0.34650137  1
  H+  H229  1  0.29508534  0.27679760  0.62128678  1
  H+  H230  1  0.35212269  -0.00944535  0.83821022  1
  H+  H231  1  0.03427141  0.64899946  0.16619280  1
  H+  H232  1  0.61081531  0.62377287  0.48394030  1
  H+  H233  1  0.80869851  0.14040483  0.41339315  1
  H+  H234  1  0.12782227  0.90057543  0.33544578  1
  H+  H235  1  0.81649231  0.19487869  0.86067128  1
  H+  H236  1  0.56671457  0.13982419  0.33772802  1
  H+  H237  1  0.23578791  0.87635829  0.16391448  1
  H+  H238  1  0.61109336  0.69126251  0.00664895  1
  H+  H239  1  0.77129000  0.48920813  0.11942463  1
  H+  H240  1  0.92708093  0.59984469  0.23326799  1
  H+  H241  1  0.68550024  0.29433157  0.83147930  1
  H+  H242  1  0.38290107  0.59201293  0.33969651  1
  H+  H243  1  0.13292554  0.00070192  0.84344191  1
  H+  H244  1  0.64004874  0.52224718  0.15866798  1
  H+  H245  1  0.73334769  0.18756262  0.94938553  1
  H+  H246  1  0.16178688  0.78922649  0.00017235  1
  H+  H247  1  0.38830535  0.51894057  0.84489497  1
  H+  H248  1  0.85363707  0.11604803  0.49378003  1
  H+  H249  1  0.28045688  0.39669113  0.84263179  1
  H+  H250  1  0.43701136  0.02070405  0.31036962  1
  H+  H251  1  0.84367966  0.11761180  0.34325566  1
  H+  H252  1  0.12284855  0.89906994  0.15966479  1
  H+  H253  1  0.33736472  0.65998566  0.06296544  1
  H+  H254  1  0.64030819  0.87009240  0.17930803  1
  H+  H255  1  0.78617429  0.89225999  0.34062110  1
  H+  H256  1  0.82310393  0.42776220  0.06461811  1
  H+  H257  1  0.53254997  0.14601581  0.49537952  1
  H+  H258  1  0.29076252  0.16989422  0.11780728  1
  H+  H259  1  0.64653065  0.27530670  0.51078456  1
  H+  H260  1  1.02911549  0.12809881  0.69815136  1
  H+  H261  1  0.48469878  0.63033573  0.18628348  1
  H+  H262  1  0.12214727  0.71121856  0.83585150  1
  H+  H263  1  0.87844982  0.41337784  0.67383971  1
  H+  H264  1  0.13001126  0.02683723  0.49550034  1
  H+  H265  1  0.13175904  0.49022420  0.33833488  1
  H+  H266  1  0.38466189  0.88310023  1.00184085  1
  H+  H267  1  0.87050812  0.90430960  0.16076772  1
  H+  H268  1  0.54631074  0.13899583  0.00511837  1
  H+  H269  1  0.10085436  0.43067068  0.39891721  1
  H+  H270  1  0.39299319  0.36534461  0.86850185  1
  H+  H271  1  0.27766525  0.62758091  1.00205544  1
  H+  H272  1  0.34245665  0.20483753  0.66701481  1
  H+  H273  1  0.10953798  0.14649668  0.48978543  1
  H+  H274  1  0.85878726  0.73131589  0.49017959  1
  H+  H275  1  0.61439973  0.76284617  0.67734568  1
  H+  H276  1  0.60678316  0.63449153  0.67529305  1
  H+  H277  1  0.91400141  0.40471673  0.84175413  1
  H+  H278  1  0.68519144  1.02624563  0.35460881  1
  H+  H279  1  0.82102244  0.69148688  0.00161412  1
  H+  H280  1  0.52029191  0.62344248  0.48890295  1
  H+  H281  1  0.90178370  0.85273796  0.65806372  1
  H+  H282  1  0.22983632  0.62527745  0.65138316  1
  H+  H283  1  0.17223648  0.39065118  0.33304647  1
  H+  H284  1  0.51513261  0.62723934  0.67801947  1
  H+  H285  1  0.59773708  0.61217110  0.34492262  1
  H+  H286  1  0.12625399  -0.00201125  0.68980087  1
  H+  H287  1  0.36577693  0.72666400  0.66309989  1
  H+  H288  1  0.36169608  0.18810993  0.04203186  1
  H+  H289  1  0.63578251  0.82148737  0.91080215  1
  H+  H290  1  0.33601555  0.41409869  0.78207714  1
  H+  H291  1  0.64747914  0.56754871  0.90299301  1
  H+  H292  1  0.78766332  0.41136730  0.67279193  1
  H+  H293  1  0.33754722  0.34616997  0.30559419  1
  H+  H294  1  0.59527248  0.95920261  0.68053358  1
  H+  H295  1  0.11320242  0.26303746  0.99434603  1
  H+  H296  1  0.93298516  0.86740673  0.91078934  1
  H+  H297  1  0.81297749  0.63554668  0.70983942  1
  H+  H298  1  0.56435046  0.38498723  0.05813801  1
  H+  H299  1  0.14238765  0.18622755  0.60997909  1
  H+  H300  1  0.57039572  0.64772037  0.40948692  1
  H+  H301  1  0.08456342  0.42221564  0.10749264  1
  H+  H302  1  0.16495268  0.58906872  0.56322915  1
  H+  H303  1  0.17280629  0.57470740  0.92723302  1
  H+  H304  1  0.89858948  0.27202685  0.83309927  1
  H+  H305  1  0.46171552  0.08593729  0.25494353  1
  H+  H306  1  0.65332368  0.58029078  0.59094655  1
  H+  H307  1  0.57703715  0.66099804  0.77510890  1
  H+  H308  1  0.41591537  0.58314165  0.92158423  1
  H+  H309  1  0.46453074  0.84693902  0.83640678  1
  H+  H310  1  0.42301938  0.82941010  0.56318144  1
  H+  H311  1  0.59598045  0.94651300  0.12106700  1
  H+  H312  1  0.75953149  0.58242761  0.30221898  1
  H+  H313  1  0.07728304  0.14643491  0.76355816  1
  H+  H314  1  0.93060782  0.85149725  0.22723899  1
  H+  H315  1  0.07663731  0.89423820  0.77129932  1
  H+  H316  1  0.38381360  0.61171950  0.99054185  1
  H+  H317  1  0.80859901  0.93357265  0.75245728  1
  H+  H318  1  0.11120511  0.93770085  0.06992727  1
  H+  H319  1  0.92478233  0.33048757  0.23436183  1
  H+  H320  1  0.42462709  0.09516193  0.56191077  1
  H+  H321  1  0.82402409  0.67195845  0.43173697  1
  H+  H322  1  0.38819746  0.75979454  0.98641210  1
  H+  H323  1  0.86232848  0.70026531  0.06731707  1
  H+  H324  1  0.41155712  0.82594667  0.26426805  1
  H+  H325  1  0.26474529  0.54070710  0.39703300  1
  H+  H326  1  0.17408887  0.82913538  0.90060080  1
  H+  H327  1  0.17615686  0.36363761  0.60641935  1
  H+  H328  1  0.57183755  0.90729084  0.77680498  1
  H+  H329  1  0.11905860  0.11761575  0.33644223  1
  H+  H330  1  0.63263825  0.16446607  0.73983274  1
  H+  H331  1  0.35437572  0.86889173  0.81802110  1
  H+  H332  1  0.38309611  0.31337451  0.58808338  1
  H+  H333  1  0.18469127  0.59220770  0.26679544  1
  H+  H334  1  0.27082183  0.13556916  0.81903015  1
  H+  H335  1  0.14401413  0.08448199  0.27680641  1
  H+  H336  1  0.08417393  0.92189350  0.42892036  1
  H+  H337  1  0.11959546  0.48864491  0.49310315  1
  H+  H338  1  0.92461702  0.08503843  0.57350166  1
  H+  H339  1  0.67635126  0.33627049  0.92790149  1
  H+  H340  1  0.56787585  0.39569767  0.76934672  1
  H+  H341  1  0.32376589  0.62782385  0.42940621  1
  H+  H342  1  0.18579466  0.07666793  0.92691787  1
  H+  H343  1  0.42197960  0.06902344  0.93073105  1
  H+  H344  1  0.16830774  0.35578076  0.91544928  1
  H+  H345  1  0.90173364  0.39607425  0.50745222  1
  H+  H346  1  0.40015973  0.34097207  0.21103336  1
  H+  H347  1  0.14156649  0.52724380  0.17725477  1
  H+  H348  1  0.25844353  0.13959632  0.34325380  1
  H+  H349  1  0.18145516  0.22151878  0.59472887  1
  H+  H350  1  0.94813935  0.38456915  0.57269727  1
  H+  H351  1  0.33166322  0.17147935  0.42780121  1
  H+  H352  1  0.65420704  0.09208342  0.67053688  1
  H+  H353  1  0.07527882  0.18094679  0.43594086  1
  H+  H354  1  0.87386358  0.96839959  0.07181959  1
  H+  H355  1  0.83706678  0.69028873  0.80001899  1
  H+  H356  1  0.14532686  0.78937514  0.50040103  1
  H+  H357  1  0.06635233  0.16493157  0.06764104  1
  H+  H358  1  0.91980181  0.83016656  0.55930165  1
  H+  H359  1  0.67064904  0.33608050  0.23462918  1
  H+  H360  1  0.59960379  0.17424186  0.43959472  1
  H+  H361  1  0.60167676  0.17701997  0.09621872  1
  H+  H362  1  0.67182465  1.03439364  0.04644347  1
  H+  H363  1  0.29973209  0.01293679  0.88374197  1
  H+  H364  1  0.34972933  0.93919502  0.38738656  1
  H+  H365  1  0.10601375  0.45991096  0.74133502  1
  H+  H366  1  0.14864442  0.45258603  0.84618300  1
  H+  H367  1  0.34855482  0.92304157  0.09620149  1
  H+  H368  1  0.85016984  0.44658777  0.76887214  1
  H+  H369  1  0.85226203  0.42635715  0.39764905  1
  H+  H370  1  0.72090465  0.05628922  0.66916726  1
  H+  H371  1  0.03630953  0.53865137  0.05388242  1
  H+  H372  1  0.89532029  0.54013282  0.84564402  1
  H+  H373  1  0.88040759  0.90500982  0.33872305  1
  H+  H374  1  0.84685512  0.92847371  0.43533495  1
  H+  H375  1  0.92758738  0.59363933  0.93898420  1
  H+  H376  1  0.52180056  0.82441297  0.97698943  1
  H+  H377  1  0.08864042  0.65781721  0.10779034  1
  H+  H378  1  0.18346138  0.34582615  0.22861868  1
  H+  H379  1  0.90251264  0.09344633  0.27363807  1
  H+  H380  1  0.78996390  0.14537369  0.08049247  1
  H+  H381  1  0.18509100  0.85957701  0.26061867  1
  H+  H382  1  0.33210492  0.15736857  0.73257422  1
  H+  H383  1  0.93951679  0.36892151  0.93855373  1
  O2-  O384  1  0.07443096  0.17555417  0.15237373  1
  O2-  O385  1  0.07773656  0.17777634  0.48124940  1
  O2-  O386  1  0.06531802  0.13740146  0.84208632  1
  O2-  O387  1  0.08629871  0.42566038  0.15305538  1
  O2-  O388  1  0.08468861  0.42687838  0.47829278  1
  O2-  O389  1  0.11995234  0.48160799  0.82550296  1
  O2-  O390  1  0.09470861  0.67545407  0.15113867  1
  O2-  O391  1  0.09557570  0.68971074  0.47876335  1
  O2-  O392  1  0.09032960  0.64911579  0.82536812  1
  O2-  O393  1  0.09467026  0.93212991  0.14430822  1
  O2-  O394  1  0.08383430  0.92706062  0.47444208  1
  O2-  O395  1  0.07791451  0.89842780  0.81673189  1
  O2-  O396  1  0.35252407  0.19142757  0.11818726  1
  O2-  O397  1  0.33491345  0.17244312  0.47415763  1
  O2-  O398  1  0.32955012  0.15893805  0.80314292  1
  O2-  O399  1  0.31116209  0.39342755  0.10943985  1
  O2-  O400  1  0.32412000  0.41031406  0.46999905  1
  O2-  O401  1  0.33988993  0.41819272  0.82743816  1
  O2-  O402  1  0.33819519  0.66901790  0.13900791  1
  O2-  O403  1  0.34381718  0.66006422  0.50893205  1
  O2-  O404  1  0.33064636  0.65633953  0.80001484  1
  O2-  O405  1  0.34200769  0.92563153  0.14104676  1
  O2-  O406  1  0.33982101  0.93782420  0.46035034  1
  O2-  O407  1  0.32361978  0.89872489  0.80187992  1
  O2-  O408  1  0.59537504  0.17979978  0.14237305  1
  O2-  O409  1  0.59547306  0.17246536  0.48511638  1
  O2-  O410  1  0.69900577  0.21142372  0.79842596  1
  O2-  O411  1  0.58064472  0.41500223  0.13596040  1
  O2-  O412  1  0.58269825  0.40745195  0.47932302  1
  O2-  O413  1  0.57069367  0.37319103  0.80937952  1
  O2-  O414  1  0.58756469  0.67077977  0.15032947  1
  O2-  O415  1  0.57885342  0.65324179  0.46806555  1
  O2-  O416  1  0.57602919  0.66262009  0.82063384  1
  O2-  O417  1  0.58598656  0.92529167  0.16441186  1
  O2-  O418  1  0.58220375  0.90431812  0.47593619  1
  O2-  O419  1  0.56853466  0.89836431  0.82210565  1
  O2-  O420  1  0.82391673  0.17135774  0.15796649  1
  O2-  O421  1  0.82228813  0.14577859  0.47918781  1
  O2-  O422  1  0.85529840  0.21077379  0.82468845  1
  O2-  O423  1  0.80061487  0.45968336  0.13493079  1
  O2-  O424  1  0.84348289  0.42396734  0.47910911  1
  O2-  O425  1  0.85170304  0.44590389  0.81418049  1
  O2-  O426  1  0.84484354  0.68462996  0.14054788  1
  O2-  O427  1  0.82577898  0.66926489  0.47598288  1
  O2-  O428  1  0.84216047  0.68703405  0.84392739  1
  O2-  O429  1  0.84041470  0.93547441  0.14753609  1
  O2-  O430  1  0.84328245  0.92202629  0.48053493  1
  O2-  O431  1  0.81836949  0.91997125  0.82558563  1
  O2-  O432  1  0.15371654  0.08432295  0.19798939  1
  O2-  O433  1  0.16125127  0.08927471  0.50924617  1
  O2-  O434  1  0.16157250  0.06159920  0.85879279  1
  O2-  O435  1  0.17247310  0.34144894  0.18442977  1
  O2-  O436  1  0.16248674  0.34526837  0.52100250  1
  O2-  O437  1  0.17750051  0.37546739  0.87093641  1
  O2-  O438  1  0.17758773  0.58873662  0.19138469  1
  O2-  O439  1  0.16439890  0.58661116  0.51688663  1
  O2-  O440  1  0.16933732  0.57061816  0.84853127  1
  O2-  O441  1  0.17536940  0.84820993  0.17964180  1
  O2-  O442  1  0.17631696  0.85122727  0.51497368  1
  O2-  O443  1  0.16641660  0.82012233  0.85600602  1
  O2-  O444  1  0.42739364  0.09609702  0.17547834  1
  O2-  O445  1  0.42968017  0.10120017  0.51710507  1
  O2-  O446  1  0.35558871  0.03902200  0.86374055  1
  O2-  O447  1  0.41353726  0.34581854  0.16686126  1
  O2-  O448  1  0.41364519  0.33233701  0.51448081  1
  O2-  O449  1  0.42555243  0.33690474  0.88223854  1
  O2-  O450  1  0.42710210  0.60641465  0.20503530  1
  O2-  O451  1  0.42642913  0.57063186  0.51799146  1
  O2-  O452  1  0.41594925  0.58151214  0.85832039  1
  O2-  O453  1  0.41405445  0.83123792  0.18532276  1
  O2-  O454  1  0.42133123  0.81681371  0.51870448  1
  O2-  O455  1  0.40217411  0.81681522  0.84878515  1
  O2-  O456  1  0.62277279  0.07057138  0.23073962  1
  O2-  O457  1  0.66048428  0.07071328  0.51918494  1
  O2-  O458  1  0.65194809  -0.00034926  0.91647517  1
  O2-  O459  1  0.66260111  0.33818802  0.18983286  1
  O2-  O460  1  0.67641142  0.33724416  0.52456902  1
  O2-  O461  1  0.69162136  0.34663475  0.85136279  1
  O2-  O462  1  0.67469732  0.58352248  0.17247836  1
  O2-  O463  1  0.65777326  0.57477251  0.51364859  1
  O2-  O464  1  0.66187361  0.58999761  0.86111136  1
  O2-  O465  1  0.67297711  0.83995218  0.18998121  1
  O2-  O466  1  0.66927101  0.83089485  0.51050306  1
  O2-  O467  1  0.65419491  0.82305214  0.86821552  1
  O2-  O468  1  0.90906027  0.09539261  0.20012055  1
  O2-  O469  1  0.91966875  0.08348034  0.52849895  1
  O2-  O470  1  0.90353368  0.09154418  0.85193351  1
  O2-  O471  1  0.91847175  0.32888726  0.18906239  1
  O2-  O472  1  0.94132510  0.37502129  0.52646573  1
  O2-  O473  1  0.94836717  0.37917879  0.85785503  1
  O2-  O474  1  0.92649628  0.60493580  0.18781202  1
  O2-  O475  1  0.91821869  0.58739601  0.50681755  1
  O2-  O476  1  0.92881159  0.59840843  0.86577502  1
  O2-  O477  1  0.92864791  0.85147014  0.18188581  1
  O2-  O478  1  0.91662570  0.83141079  0.51426597  1
  O2-  O479  1  0.92109366  0.85394467  0.86612326  1
  O2-  O480  1  0.14787863  0.08580991  0.32203719  1
  O2-  O481  1  0.15550321  0.06402451  0.68516598  1
  O2-  O482  1  0.19930441  0.08747751  0.97276497  1
  O2-  O483  1  0.19862700  0.35641520  0.31477535  1
  O2-  O484  1  0.18295714  0.36714847  0.65109104  1
  O2-  O485  1  0.15407201  0.32533097  0.98596921  1
  O2-  O486  1  0.17852715  0.59160099  0.31253505  1
  O2-  O487  1  0.16896451  0.59447514  0.63668378  1
  O2-  O488  1  0.17872680  0.57739871  0.97261446  1
  O2-  O489  1  0.18609255  0.86065345  0.30590310  1
  O2-  O490  1  0.16973831  0.84486054  0.63410489  1
  O2-  O491  1  0.19167903  0.84677507  0.98271937  1
  O2-  O492  1  0.48729684  0.06993995  0.28878825  1
  O2-  O493  1  0.42116049  0.08086367  0.64527684  1
  O2-  O494  1  0.43509208  0.07777075  0.97498832  1
  O2-  O495  1  0.38136496  0.33143881  0.29092546  1
  O2-  O496  1  0.35605561  0.29842100  0.62998004  1
  O2-  O497  1  0.41193510  0.33036466  0.94861445  1
  O2-  O498  1  0.41457162  0.56879032  0.31691485  1
  O2-  O499  1  0.41791024  0.57591438  0.64175170  1
  O2-  O500  1  0.41422750  0.58125486  0.97104307  1
  O2-  O501  1  0.41383394  0.82991689  0.30962669  1
  O2-  O502  1  0.41214051  0.82839416  0.64012189  1
  O2-  O503  1  0.42510874  0.81896639  0.96990219  1
  O2-  O504  1  0.71661671  0.09698510  0.34263011  1
  O2-  O505  1  0.68018745  0.06455602  0.64472203  1
  O2-  O506  1  0.72762844  0.16570183  0.90790515  1
  O2-  O507  1  0.69100177  0.33921532  0.31310973  1
  O2-  O508  1  0.67785603  0.36269992  0.64314938  1
  O2-  O509  1  0.67077250  0.33440746  0.97335023  1
  O2-  O510  1  0.65482683  0.56504123  0.34123553  1
  O2-  O511  1  0.65726129  0.58455427  0.63651074  1
  O2-  O512  1  0.63074792  0.54002238  0.98441257  1
  O2-  O513  1  0.68114208  0.83174254  0.31314439  1
  O2-  O514  1  0.63488410  0.82323602  0.66427094  1
  O2-  O515  1  0.57835968  0.82594710  0.98352437  1
  O2-  O516  1  0.90206262  0.09306787  0.32013443  1
  O2-  O517  1  0.92927292  0.09982330  0.65858619  1
  O2-  O518  1  0.82242107  0.04652658  0.95653929  1
  O2-  O519  1  0.93216189  0.33160150  0.31247262  1
  O2-  O520  1  0.94319997  0.37588714  0.64432160  1
  O2-  O521  1  0.93701534  0.36116398  0.98333289  1
  O2-  O522  1  0.93666958  0.59103505  0.30988930  1
  O2-  O523  1  0.92071683  0.59371556  0.62773313  1
  O2-  O524  1  0.92554106  0.59111313  0.98515320  1
  O2-  O525  1  0.93340495  0.85263127  0.30737523  1
  O2-  O526  1  0.92467989  0.81899908  0.63992995  1
  O2-  O527  1  0.95235119  0.87878715  0.98565252  1
  O2-  O528  1  0.05998930  0.15922685  0.02288677  1
  O2-  O529  1  0.07718535  0.18450659  0.35754249  1
  O2-  O530  1  0.08423786  0.14324101  0.71886503  1
  O2-  O531  1  0.08803432  0.41902380  0.03109258  1
  O2-  O532  1  0.11410198  0.43144991  0.35490992  1
  O2-  O533  1  0.09718527  0.44806405  0.69719984  1
  O2-  O534  1  0.06125350  0.59705866  0.03803055  1
  O2-  O535  1  0.09709869  0.68469659  0.32246665  1
  O2-  O536  1  0.09115514  0.67631582  0.66684595  1
  O2-  O537  1  0.11761459  0.93997225  0.02407282  1
  O2-  O538  1  0.08882744  0.92109491  0.35247558  1
  O2-  O539  1  0.08489241  0.90101355  0.69309052  1
  O2-  O540  1  0.35560803  0.17531681  -0.00284822  1
  O2-  O541  1  0.32012269  0.16923544  0.35503091  1
  O2-  O542  1  0.32323705  0.14791604  0.68635669  1
  O2-  O543  1  0.27648842  0.32300874  0.06452727  1
  O2-  O544  1  0.28587635  0.39387826  0.34158346  1
  O2-  O545  1  0.33441265  0.42196949  0.70073711  1
  O2-  O546  1  0.33888425  0.65711444  0.01697553  1
  O2-  O547  1  0.30855211  0.60010338  0.38874155  1
  O2-  O548  1  0.33555850  0.66385143  0.67450154  1
  O2-  O549  1  0.35502920  0.91420327  0.01663846  1
  O2-  O550  1  0.35292083  0.93548749  0.34135330  1
  O2-  O551  1  0.32999182  0.91050148  0.67857229  1
  O2-  O552  1  0.60380804  0.17416516  0.02349615  1
  O2-  O553  1  0.61890802  0.17884780  0.36250958  1
  O2-  O554  1  0.60335224  0.14098323  0.69931903  1
  O2-  O555  1  0.56119434  0.38163482  0.01272522  1
  O2-  O556  1  0.59307947  0.39601430  0.35272210  1
  O2-  O557  1  0.57361196  0.42280675  0.68312929  1
  O2-  O558  1  0.56667469  0.63567550  0.02244104  1
  O2-  O559  1  0.56767743  0.64496600  0.35743588  1
  O2-  O560  1  0.57413203  0.65795290  0.69653472  1
  O2-  O561  1  0.61438158  0.97896009  0.04767295  1
  O2-  O562  1  0.63500545  0.94217100  0.36304506  1
  O2-  O563  1  0.56079555  0.90380384  0.70116962  1
  O2-  O564  1  0.76249691  0.12487667  0.04006087  1
  O2-  O565  1  0.80564525  0.14274006  0.36438444  1
  O2-  O566  1  0.86495524  0.20739896  0.60587141  1
  O2-  O567  1  0.83121020  0.42379889  0.02024262  1
  O2-  O568  1  0.85412135  0.42482936  0.35251050  1
  O2-  O569  1  0.84729789  0.44292689  0.68867320  1
  O2-  O570  1  0.87573186  0.71018573  0.02212663  1
  O2-  O571  1  0.71866488  0.60197146  0.29225069  1
  O2-  O572  1  0.81699358  0.65465718  0.66792171  1
  O2-  O573  1  0.89710841  0.98737160  0.03004577  1
  O2-  O574  1  0.84626215  0.93002934  0.35561035  1
  O2-  O575  1  0.80534109  0.94516884  0.70757288  1
