# generated using pymatgen
data_H2O
_symmetry_space_group_name_H-M   'P 1'
_cell_length_a   17.94936188
_cell_length_b   17.95357009
_cell_length_c   21.93114650
_cell_angle_alpha   89.94609667
_cell_angle_beta   90.03530454
_cell_angle_gamma   119.99853067
_symmetry_Int_Tables_number   1
_chemical_formula_structural   H2O
_chemical_formula_sum   'H384 O192'
_cell_volume   6120.65688716
_cell_formula_units_Z   192
loop_
 _symmetry_equiv_pos_site_id
 _symmetry_equiv_pos_as_xyz
  1  'x, y, z'
loop_
 _atom_type_symbol
 _atom_type_oxidation_number
  H+  1.0
  O2-  -2.0
loop_
 _atom_site_type_symbol
 _atom_site_label
 _atom_site_symmetry_multiplicity
 _atom_site_fract_x
 _atom_site_fract_y
 _atom_site_fract_z
 _atom_site_occupancy
  H+  H0  1  0.63764691  1.02220840  0.85104294  1
  H+  H1  1  0.89281720  0.60723336  0.83359213  1
  H+  H2  1  0.89644415  0.36399571  0.66295783  1
  H+  H3  1  0.88836856  0.27533569  0.50148562  1
  H+  H4  1  0.67192010  0.08173278  0.27688591  1
  H+  H5  1  0.33136023  0.67358650  0.41913332  1
  H+  H6  1  1.02553097  0.14036824  0.48470230  1
  H+  H7  1  0.20788627  0.81922799  0.21167305  1
  H+  H8  1  0.77752312  0.65232663  0.15620349  1
  H+  H9  1  0.03571812  0.15296382  0.64780368  1
  H+  H10  1  0.61243688  -0.02378589  0.34154077  1
  H+  H11  1  0.64461399  0.11290797  0.66687953  1
  H+  H12  1  0.14473718  0.78738488  0.64387361  1
  H+  H13  1  0.67475008  0.58459435  0.59969588  1
  H+  H14  1  0.50427511  0.89119186  -0.00104570  1
  H+  H15  1  0.14453974  0.11878466  0.50667308  1
  H+  H16  1  0.36686300  0.23597012  0.00101967  1
  H+  H17  1  0.36216576  0.47901896  0.66792452  1
  H+  H18  1  0.97712599  0.61928504  0.31631679  1
  H+  H19  1  0.62775933  0.48475932  0.49424404  1
  H+  H20  1  0.35851696  0.37631991  0.01351333  1
  H+  H21  1  -0.02283534  0.86312271  0.83974240  1
  H+  H22  1  0.64180924  0.62042511  0.50515660  1
  H+  H23  1  0.35034141  0.10878592  0.34869241  1
  H+  H24  1  0.36615172  0.64025768  0.33518992  1
  H+  H25  1  0.91130147  0.33753387  0.23687322  1
  H+  H26  1  0.48780247  0.85608383  0.15207071  1
  H+  H27  1  0.01223106  -0.08669452  1.04069870  1
  H+  H28  1  0.88349072  0.10772348  1.01320712  1
  H+  H29  1  0.24267918  0.12773296  1.00019927  1
  H+  H30  1  0.32925851  0.60862086  0.94413698  1
  H+  H31  1  0.13206381  0.11371009  0.86508674  1
  H+  H32  1  0.45601788  0.02192787  0.21160018  1
  H+  H33  1  0.97757791  0.36442056  0.50283756  1
  H+  H34  1  0.73110175  0.37787256  0.17703725  1
  H+  H35  1  0.11522673  0.74159001  0.46368312  1
  H+  H36  1  0.49618681  0.63333163  0.82181366  1
  H+  H37  1  0.14545869  0.16351369  0.30626582  1
  H+  H38  1  0.17481417  0.28169663  0.75613498  1
  H+  H39  1  0.97354388  0.36950296  0.32849840  1
  H+  H40  1  0.40830001  0.04172951  0.51698584  1
  H+  H41  1  0.64907682  0.86264008  0.83464269  1
  H+  H42  1  0.79431975  0.38929479  0.68338131  1
  H+  H43  1  0.27752892  0.43021670  0.82264545  1
  H+  H44  1  0.87262995  0.87622811  0.84659363  1
  H+  H45  1  0.11770746  0.12209585  0.20944043  1
  H+  H46  1  0.60057215  0.72502286  0.15630177  1
  H+  H47  1  0.49700845  0.71484014  0.60436120  1
  H+  H48  1  0.33142913  0.43324904  0.76429383  1
  H+  H49  1  0.64905740  0.61642194  0.99581934  1
  H+  H50  1  0.87151220  0.63913206  1.00450650  1
  H+  H51  1  0.10431218  0.88727496  0.82806655  1
  H+  H52  1  0.97907174  0.87944609  0.66289230  1
  H+  H53  1  -0.01224202  0.41280642  0.76832921  1
  H+  H54  1  0.77808868  0.90861814  0.66538298  1
  H+  H55  1  0.86820173  0.74000935  0.67515596  1
  H+  H56  1  0.65433899  0.37120783  0.66745104  1
  H+  H57  1  0.74608965  0.10651814  0.18401289  1
  H+  H58  1  0.10413606  0.71467010  0.16976243  1
  H+  H59  1  0.11388158  0.72313081  0.82076807  1
  H+  H60  1  0.40040387  -0.05327476  0.25966891  1
  H+  H61  1  0.87272323  0.34737812  0.99930615  1
  H+  H62  1  0.63100040  0.86847061  0.50265112  1
  H+  H63  1  0.67567987  0.07381890  0.94006944  1
  H+  H64  1  0.10202190  0.61774588  0.00729593  1
  H+  H65  1  0.88641395  1.03989696  0.65238922  1
  H+  H66  1  0.32901369  0.84135654  0.15813959  1
  H+  H67  1  0.99246321  0.20610798  0.75179269  1
  H+  H68  1  0.87933539  0.09703337  0.85513654  1
  H+  H69  1  0.64264917  0.54088376  0.16869001  1
  H+  H70  1  0.37025368  0.73244987  0.33020625  1
  H+  H71  1  0.99317953  0.23881866  0.73003974  1
  H+  H72  1  0.60918011  0.98097703  0.49182081  1
  H+  H73  1  0.96131293  0.34192073  0.85993636  1
  H+  H74  1  0.12497310  0.41237128  0.81530764  1
  H+  H75  1  0.88886788  0.62003202  0.49272479  1
  H+  H76  1  0.60851820  0.84881881  0.17011862  1
  H+  H77  1  0.40061879  0.63977670  0.81884806  1
  H+  H78  1  0.36334474  0.47776799  0.33338663  1
  H+  H79  1  0.35744562  0.89843346  0.67370675  1
  H+  H80  1  0.37845045  0.66506465  0.65739964  1
  H+  H81  1  0.53380430  0.88536458  0.82725795  1
  H+  H82  1  0.36867586  0.14578393  0.49301868  1
  H+  H83  1  0.71188869  0.85877760  0.99095991  1
  H+  H84  1  0.40818090  0.80874806  0.22695983  1
  H+  H85  1  0.99677005  0.85782626  0.49353225  1
  H+  H86  1  0.78439951  0.64643671  0.67193260  1
  H+  H87  1  0.61430694  0.22939962  0.34269234  1
  H+  H88  1  0.28365082  0.64610543  0.81842782  1
  H+  H89  1  0.10131550  0.21062423  0.83568521  1
  H+  H90  1  0.12249320  0.14723193  0.65283230  1
  H+  H91  1  0.90712234  0.63651604  0.64739878  1
  H+  H92  1  -0.02981626  0.61219088  0.16942693  1
  H+  H93  1  0.86879427  -0.02765512  0.85330715  1
  H+  H94  1  0.50447718  0.35047941  0.35863806  1
  H+  H95  1  0.33998935  0.19016354  0.33522071  1
  H+  H96  1  0.85187317  0.21467943  0.02354965  1
  H+  H97  1  0.49847053  0.57936651  0.97206660  1
  H+  H98  1  1.01674176  0.14934542  0.32979814  1
  H+  H99  1  0.73233881  0.60719602  0.83751425  1
  H+  H100  1  0.35614999  0.79180118  0.00570910  1
  H+  H101  1  0.36182770  0.97351093  0.40771523  1
  H+  H102  1  0.86681956  0.71942252  0.82804944  1
  H+  H103  1  0.11327172  -0.07183619  0.17156136  1
  H+  H104  1  0.78228763  0.37993904  0.95651056  1
  H+  H105  1  0.10724406  0.70552316  -0.00661441  1
  H+  H106  1  0.53222116  0.38968809  0.67947682  1
  H+  H107  1  0.61525152  0.73412254  0.49038045  1
  H+  H108  1  0.60190304  0.33813459  0.00401609  1
  H+  H109  1  0.63589055  0.77599430  0.32364724  1
  H+  H110  1  0.12332288  0.65201412  0.65956339  1
  H+  H111  1  0.62865542  0.64063808  0.66884668  1
  H+  H112  1  0.37049789  0.74048239  0.16837415  1
  H+  H113  1  0.52672253  0.64421346  0.48619096  1
  H+  H114  1  0.23438264  0.61469811  0.48788861  1
  H+  H115  1  0.76056703  0.20213648  0.71323663  1
  H+  H116  1  0.47452318  0.36645274  0.84208488  1
  H+  H117  1  0.50251129  0.40124674  0.51548894  1
  H+  H118  1  0.02038362  0.13490949  0.86843124  1
  H+  H119  1  0.12980098  0.25443087  0.17851535  1
  H+  H120  1  0.88678028  0.87766196  0.32012446  1
  H+  H121  1  1.11969463  0.89544797  0.45517705  1
  H+  H122  1  0.37245332  0.40300053  0.48687578  1
  H+  H123  1  0.09201155  0.68683915  0.36800433  1
  H+  H124  1  0.47808515  0.61699415  0.32979544  1
  H+  H125  1  0.38312008  1.03580240  0.66765867  1
  H+  H126  1  0.78030472  0.38220348  0.85087129  1
  H+  H127  1  0.10989668  0.39304793  0.33340991  1
  H+  H128  1  0.39386071  0.28292318  0.16759741  1
  H+  H129  1  0.15826716  0.30687516  0.77316731  1
  H+  H130  1  -0.01149924  0.90408625  0.14684376  1
  H+  H131  1  0.67012514  0.25253523  0.69026282  1
  H+  H132  1  0.30016973  0.90672805  0.07642109  1
  H+  H133  1  0.88414763  0.27919595  0.32819737  1
  H+  H134  1  0.77557983  0.89986979  0.32310772  1
  H+  H135  1  0.88498751  0.62068588  0.16866919  1
  H+  H136  1  0.36871050  0.88304150  0.99843311  1
  H+  H137  1  0.64239336  0.12052263  0.50840156  1
  H+  H138  1  0.29331297  0.25376194  0.28641275  1
  H+  H139  1  0.85679555  0.21108027  0.84259148  1
  H+  H140  1  0.61473429  0.47902087  1.00767009  1
  H+  H141  1  0.86437019  0.64761536  0.33481995  1
  H+  H142  1  0.57881924  0.91917281  0.43255084  1
  H+  H143  1  0.02848444  0.65282878  0.46474129  1
  H+  H144  1  0.13892458  0.11057994  0.00862261  1
  H+  H145  1  0.27301690  0.39059813  0.66471536  1
  H+  H146  1  0.62301843  0.72706235  0.82380695  1
  H+  H147  1  0.86153105  0.48398788  0.33725767  1
  H+  H148  1  0.47661335  0.46127673  0.54968639  1
  H+  H149  1  0.89371647  0.13307571  0.64821038  1
  H+  H150  1  0.86715035  0.14085527  0.48781405  1
  H+  H151  1  0.22148330  0.37079031  0.31977079  1
  H+  H152  1  0.64799540  0.25632629  0.84876767  1
  H+  H153  1  0.10838028  0.46868150  0.16149055  1
  H+  H154  1  0.33471876  0.13739602  0.15901957  1
  H+  H155  1  0.49415563  0.13176384  0.51386692  1
  H+  H156  1  0.20599324  0.98678960  0.28627591  1
  H+  H157  1  0.12435090  0.50593101  0.99624903  1
  H+  H158  1  0.23075902  0.36797607  0.48998048  1
  H+  H159  1  0.87443664  0.14858535  0.18611701  1
  H+  H160  1  0.63550903  0.29628955  0.17093924  1
  H+  H161  1  0.10602408  0.97684033  0.83169416  1
  H+  H162  1  0.65003202  0.37223516  0.51385102  1
  H+  H163  1  0.35600684  0.73200210  0.48064786  1
  H+  H164  1  0.37796989  0.60975914  0.18172929  1
  H+  H165  1  0.52869972  0.40153225  0.16380752  1
  H+  H166  1  0.09356156  0.67132441  0.75777990  1
  H+  H167  1  -0.03124004  0.09897547  0.01260260  1
  H+  H168  1  0.20543840  0.12315454  0.29563599  1
  H+  H169  1  0.15466689  0.89025638  0.26238671  1
  H+  H170  1  0.84097817  0.88432241  0.15830625  1
  H+  H171  1  -0.03099781  0.60149177  -0.00864441  1
  H+  H172  1  0.47077894  0.87183440  0.49680597  1
  H+  H173  1  0.93688631  0.61046446  0.58571871  1
  H+  H174  1  0.35938610  0.01930384  0.99797084  1
  H+  H175  1  0.09895419  0.37435813  0.16308580  1
  H+  H176  1  0.17493372  0.08879900  0.59656345  1
  H+  H177  1  0.23370984  0.87850921  0.47589061  1
  H+  H178  1  0.73218915  0.09942079  1.00957420  1
  H+  H179  1  0.73035981  0.10586093  0.85338029  1
  H+  H180  1  0.77265610  0.90198670  0.47967251  1
  H+  H181  1  0.71437671  0.41899181  0.89361768  1
  H+  H182  1  0.88765659  0.78278375  0.17140227  1
  H+  H183  1  0.64673447  0.52609886  0.66116459  1
  H+  H184  1  0.87207946  0.72875155  0.48918448  1
  H+  H185  1  0.83159665  0.93398713  0.42008213  1
  H+  H186  1  0.11365468  0.48380708  0.33423083  1
  H+  H187  1  0.64274771  0.60621785  0.83901899  1
  H+  H188  1  0.24017460  0.65709077  0.02253751  1
  H+  H189  1  0.42088252  0.10137390  0.61256783  1
  H+  H190  1  0.22841085  0.11745148  0.66088722  1
  H+  H191  1  0.72410633  0.36751894  0.33004699  1
  H+  H192  1  0.11968768  0.39086775  0.48482464  1
  H+  H193  1  0.77514436  0.87751332  0.84362308  1
  H+  H194  1  0.22764384  0.59892103  0.16466511  1
  H+  H195  1  0.86428644  0.73728363  0.33411725  1
  H+  H196  1  0.85334415  0.23730912  0.68397269  1
  H+  H197  1  0.23493586  0.62251641  0.64192295  1
  H+  H198  1  0.83660731  0.42322315  0.43193274  1
  H+  H199  1  0.38060309  0.78828165  0.64915404  1
  H+  H200  1  0.83791950  -0.03769755  1.01026814  1
  H+  H201  1  0.35614693  0.23022907  0.83254454  1
  H+  H202  1  0.85538432  0.47939443  0.16475057  1
  H+  H203  1  0.61214312  0.72029154  0.00068776  1
  H+  H204  1  0.62854777  0.86360575  0.66047251  1
  H+  H205  1  0.89597894  0.53501183  0.49693590  1
  H+  H206  1  0.86930540  0.39366369  0.49077680  1
  H+  H207  1  0.10931949  0.80426921  1.02458297  1
  H+  H208  1  0.36130397  0.73776218  0.82142055  1
  H+  H209  1  0.61783671  0.46963490  0.83428802  1
  H+  H210  1  0.45753916  0.09917936  0.99513472  1
  H+  H211  1  0.60112574  0.07653575  0.17606222  1
  H+  H212  1  0.11453784  0.22938424  0.48246842  1
  H+  H213  1  0.74901365  0.87678673  0.15918387  1
  H+  H214  1  0.60580303  -0.02620591  0.67342788  1
  H+  H215  1  0.74034348  0.37410935  0.50986196  1
  H+  H216  1  0.22971384  0.61586440  0.31721164  1
  H+  H217  1  0.59976092  0.36989406  0.34849457  1
  H+  H218  1  0.78625073  0.64561415  0.00551369  1
  H+  H219  1  1.02980475  0.39168811  0.64632832  1
  H+  H220  1  0.33380430  0.88844028  0.83086854  1
  H+  H221  1  0.13664575  0.60117661  0.16724871  1
  H+  H222  1  0.16007944  0.32726210  1.08772302  1
  H+  H223  1  0.26876531  0.37471228  1.02336476  1
  H+  H224  1  0.63064887  0.00601725  1.00097933  1
  H+  H225  1  0.34649556  0.37912047  0.32886302  1
  H+  H226  1  0.57575527  0.19689896  0.01388828  1
  H+  H227  1  0.63479098  0.16277587  0.84932060  1
  H+  H228  1  0.03613041  0.65566935  0.65984624  1
  H+  H229  1  0.87578282  0.34870020  0.85535502  1
  H+  H230  1  0.33613162  0.41927330  0.42303360  1
  H+  H231  1  0.63815350  0.62707744  0.16436831  1
  H+  H232  1  0.69064022  0.00918303  0.20435111  1
  H+  H233  1  0.08346083  0.66928757  0.10333888  1
  H+  H234  1  0.72202633  0.10070811  0.66134900  1
  H+  H235  1  0.51353973  0.88933175  0.67069397  1
  H+  H236  1  0.61594188  0.64716634  0.33205402  1
  H+  H237  1  0.96703799  0.86399061  0.33361972  1
  H+  H238  1  0.39012136  0.37551121  0.84213810  1
  H+  H239  1  0.14571821  0.53196408  0.63729477  1
  H+  H240  1  0.39235522  0.36852602  0.66775384  1
  H+  H241  1  0.10667930  0.20680563  0.04007930  1
  H+  H242  1  0.61803594  0.85140711  0.98320971  1
  H+  H243  1  0.36253777  0.23127527  0.68232308  1
  H+  H244  1  0.61869965  0.14187943  0.34618648  1
  H+  H245  1  0.92453684  0.82924371  0.90343600  1
  H+  H246  1  0.86070211  0.39413044  0.33828768  1
  H+  H247  1  0.13997730  0.51306502  0.49232230  1
  H+  H248  1  0.14878059  0.27882753  0.64045515  1
  H+  H249  1  0.84214221  0.68053191  0.09897050  1
  H+  H250  1  0.33021916  0.87868871  0.39349625  1
  H+  H251  1  0.27471484  0.38285671  0.16413555  1
  H+  H252  1  0.36559659  0.11703019  0.84582264  1
  H+  H253  1  0.38299473  0.52828719  0.49265703  1
  H+  H254  1  -0.03215640  0.36237563  0.17579942  1
  H+  H255  1  0.00832911  0.37038456  1.01261325  1
  H+  H256  1  0.14056250  0.87375461  0.64523310  1
  H+  H257  1  0.09808600  0.90209934  0.34958683  1
  H+  H258  1  0.56455968  0.13890892  0.17485908  1
  H+  H259  1  0.58023706  0.42563266  1.06966053  1
  H+  H260  1  0.79939131  0.90001230  0.06697244  1
  H+  H261  1  0.73011093  0.11636772  0.33539555  1
  H+  H262  1  0.21130026  0.86726845  0.84422769  1
  H+  H263  1  0.24477838  0.89618292  0.01662946  1
  H+  H264  1  0.40700887  0.50015576  -0.02437099  1
  H+  H265  1  0.17189185  0.54063334  0.84634772  1
  H+  H266  1  0.99073056  0.79226337  0.54263076  1
  H+  H267  1  0.27881047  0.76421610  0.87850822  1
  H+  H268  1  -0.02739603  0.10272034  0.22126236  1
  H+  H269  1  0.47886174  0.10459741  0.35534744  1
  H+  H270  1  0.44948356  -0.06630430  0.34110758  1
  H+  H271  1  0.62016448  0.40691310  0.16389157  1
  H+  H272  1  0.13976716  0.75936933  0.26511985  1
  H+  H273  1  0.66402558  0.82762480  0.89886352  1
  H+  H274  1  0.11610166  0.64086100  0.31624188  1
  H+  H275  1  0.86627108  0.14489378  0.33099575  1
  H+  H276  1  0.39475699  0.54136467  0.82410331  1
  H+  H277  1  0.73206868  0.62295316  0.50338111  1
  H+  H278  1  0.47736839  0.36851104  0.99719668  1
  H+  H279  1  0.17594675  0.58555358  0.55329044  1
  H+  H280  1  0.36048757  0.14092266  0.00191480  1
  H+  H281  1  0.57250446  0.94975734  0.14971106  1
  H+  H282  1  0.11836725  0.98527295  0.66805999  1
  H+  H283  1  0.36413287  0.65492387  -0.05451425  1
  H+  H284  1  0.32869593  0.92414150  0.17784953  1
  H+  H285  1  0.87563325  0.46407027  0.83361354  1
  H+  H286  1  0.26844740  0.89697477  0.66867754  1
  H+  H287  1  0.98297293  0.60920632  0.83263925  1
  H+  H288  1  0.41802384  0.58608321  0.27030781  1
  H+  H289  1  0.07769423  0.17390601  0.39114374  1
  H+  H290  1  0.18121177  0.85559083  0.53924717  1
  H+  H291  1  0.90808539  0.77898854  0.99852059  1
  H+  H292  1  0.84076468  0.66723831  0.76539737  1
  H+  H293  1  0.58327506  0.91767022  0.76463653  1
  H+  H294  1  0.64648208  0.82794883  0.23155809  1
  H+  H295  1  0.82727153  0.15565075  0.08410479  1
  H+  H296  1  0.86698641  0.90988969  0.66316689  1
  H+  H297  1  0.90913395  0.58570588  0.26309926  1
  H+  H298  1  0.52544875  0.88063947  0.33256501  1
  H+  H299  1  0.29345019  0.69634424  0.08321764  1
  H+  H300  1  0.58263015  0.66292884  0.06147241  1
  H+  H301  1  0.14923890  0.37025995  0.63986357  1
  H+  H302  1  0.09261460  0.42964973  0.70094032  1
  H+  H303  1  0.33225512  0.17740377  0.09548663  1
  H+  H304  1  0.91681451  0.58138830  0.92911765  1
  H+  H305  1  0.32655022  0.16942335  0.77286852  1
  H+  H306  1  0.86399002  0.99253526  0.32039396  1
  H+  H307  1  0.16251342  0.57401870  0.93935785  1
  H+  H308  1  0.07795529  0.13068464  0.08742990  1
  H+  H309  1  0.17609630  0.33994452  0.55113308  1
  H+  H310  1  0.77714891  0.14017505  0.49069061  1
  H+  H311  1  0.54749123  0.12236280  0.06469120  1
  H+  H312  1  0.90596923  0.07242188  0.92007615  1
  H+  H313  1  0.38421141  0.52360513  0.17989092  1
  H+  H314  1  0.58469491  0.41153542  0.44132496  1
  H+  H315  1  0.14707183  0.61590690  0.83429808  1
  H+  H316  1  0.08824365  0.92335705  0.72669653  1
  H+  H317  1  0.66364097  0.33815054  0.27097325  1
  H+  H318  1  0.85278500  0.38870156  0.16788186  1
  H+  H319  1  0.38338698  0.61848625  0.48858712  1
  H+  H320  1  0.00082946  0.08044096  0.75879725  1
  H+  H321  1  0.33690439  0.41771768  0.10584446  1
  H+  H322  1  0.92046604  0.84683927  0.23000148  1
  H+  H323  1  0.02830235  0.06005052  0.76222473  1
  H+  H324  1  0.38663224  0.31219436  0.25916358  1
  H+  H325  1  0.83873586  0.17133397  0.39511273  1
  H+  H326  1  0.17032060  0.57719389  0.25749821  1
  H+  H327  1  0.58733174  0.67432272  0.39445731  1
  H+  H328  1  0.62887523  0.24091316  0.50131812  1
  H+  H329  1  0.38366618  0.87259251  0.48620100  1
  H+  H330  1  0.68661000  0.34453141  0.60772570  1
  H+  H331  1  0.67781901  0.58389753  0.93731457  1
  H+  H332  1  0.88618751  0.03030662  0.49332274  1
  H+  H333  1  0.66742257  0.08214624  0.56553696  1
  H+  H334  1  0.59180740  0.41754280  0.73817489  1
  H+  H335  1  0.67124195  0.60797137  0.25993459  1
  H+  H336  1  0.16905101  0.08348200  0.94171069  1
  H+  H337  1  0.59581046  0.66962041  0.76216686  1
  H+  H338  1  0.39351092  0.37106911  0.17389398  1
  H+  H339  1  0.22041973  0.11333643  0.85099812  1
  H+  H340  1  0.06898772  0.40861425  0.07088927  1
  H+  H341  1  0.85438450  0.46196346  -0.01046266  1
  H+  H342  1  0.23491819  0.12249214  0.50805006  1
  H+  H343  1  0.36461479  0.82512993  0.91304465  1
  H+  H344  1  0.31755098  0.92491322  0.76730715  1
  H+  H345  1  0.83202997  0.67563074  0.42691917  1
  H+  H346  1  0.36171296  0.02011786  0.84202579  1
  H+  H347  1  0.59526172  0.18052406  0.44115479  1
  H+  H348  1  0.54485723  0.65090060  0.66417031  1
  H+  H349  1  0.66667889  0.84222577  0.56060315  1
  H+  H350  1  0.14722446  0.82885266  0.90181149  1
  H+  H351  1  0.32461769  0.15463484  0.43292616  1
  H+  H352  1  0.08641335  0.42266286  0.42665376  1
  H+  H353  1  0.86440006  0.23172091  0.17373993  1
  H+  H354  1  0.64696816  0.31269790  0.95217072  1
  H+  H355  1  0.90274216  0.30574236  0.95008095  1
  H+  H356  1  0.55814895  0.90056312  0.05888556  1
  H+  H357  1  0.82476461  0.16034220  0.78006397  1
  H+  H358  1  0.43779509  0.62323435  0.57727782  1
  H+  H359  1  0.05934354  0.04921715  0.16248395  1
  H+  H360  1  0.39186190  0.07641223  0.91012156  1
  H+  H361  1  0.91768738  0.08986237  0.55438227  1
  H+  H362  1  0.64433019  0.78270491  0.65983182  1
  H+  H363  1  0.33963288  0.68080003  0.71934710  1
  H+  H364  1  0.72773000  0.63310713  0.32047036  1
  H+  H365  1  -0.00417181  0.33049312  0.75951535  1
  H+  H366  1  0.91475468  0.32970074  0.59839315  1
  H+  H367  1  0.42934072  0.34972344  0.60864504  1
  H+  H368  1  0.15976657  0.32615963  0.22985382  1
  H+  H369  1  0.40862542  0.04330884  0.30729888  1
  H+  H370  1  0.33651014  0.62880391  0.10949881  1
  H+  H371  1  0.41006783  0.85079641  0.59162832  1
  H+  H372  1  0.41786872  0.34049755  0.93658668  1
  H+  H373  1  0.51463183  0.63412840  0.15742923  1
  H+  H374  1  0.15702590  0.40928610  0.88088790  1
  H+  H375  1  0.12982565  0.28226898  0.32184777  1
  H+  H376  1  0.63657705  0.86546460  0.32615012  1
  H+  H377  1  0.61255505  0.37853028  0.83701071  1
  H+  H378  1  0.64592011  0.20210340  0.75511092  1
  H+  H379  1  0.36328115  0.14255118  0.68296493  1
  H+  H380  1  0.84186459  0.39869627  0.74649873  1
  H+  H381  1  0.92281977  0.84566583  0.60369738  1
  H+  H382  1  0.12072260  0.34507394  1.02982253  1
  H+  H383  1  0.09230548  0.86694268  0.98847186  1
  O2-  O384  1  0.07293288  0.10701500  0.17730745  1
  O2-  O385  1  0.08525802  0.16895645  0.46759104  1
  O2-  O386  1  0.08441058  0.17089165  0.87010550  1
  O2-  O387  1  0.07141885  0.40652823  0.14756108  1
  O2-  O388  1  0.08950738  0.42370367  0.47286140  1
  O2-  O389  1  0.02658042  0.38987762  0.77495625  1
  O2-  O390  1  0.07890608  0.65887170  0.14782726  1
  O2-  O391  1  0.08559383  0.68430131  0.44456826  1
  O2-  O392  1  0.09287230  0.66484564  0.80345523  1
  O2-  O393  1  0.03839375  0.95149959  0.11948097  1
  O2-  O394  1  0.07977708  0.91388414  0.43737127  1
  O2-  O395  1  0.07577002  0.91896597  0.81234668  1
  O2-  O396  1  0.32868917  0.18327395  0.14033829  1
  O2-  O397  1  0.33472667  0.17070150  0.47655037  1
  O2-  O398  1  0.32522298  0.16845694  0.81963949  1
  O2-  O399  1  0.33575332  0.41812546  0.15200046  1
  O2-  O400  1  0.33592176  0.42452329  0.46886284  1
  O2-  O401  1  0.33547883  0.44344574  0.80946419  1
  O2-  O402  1  0.32109023  0.64708386  0.14696807  1
  O2-  O403  1  0.32840272  0.67133086  0.46586942  1
  O2-  O404  1  0.34345605  0.68164848  0.80131695  1
  O2-  O405  1  0.29548186  0.87175703  0.15245499  1
  O2-  O406  1  0.33407579  0.91607606  0.42774472  1
  O2-  O407  1  0.31429245  0.92729365  0.81343773  1
  O2-  O408  1  0.55013164  0.08078937  0.16333812  1
  O2-  O409  1  0.59562071  0.17947479  0.48674480  1
  O2-  O410  1  0.61828540  0.20018980  0.82757636  1
  O2-  O411  1  0.58848804  0.43484465  0.14689978  1
  O2-  O412  1  0.59386433  0.42127484  0.48690734  1
  O2-  O413  1  0.58332955  0.40821256  0.82015903  1
  O2-  O414  1  0.57360978  0.66515237  0.13935769  1
  O2-  O415  1  0.58882095  0.67302485  0.47585375  1
  O2-  O416  1  0.58903605  0.66667855  0.80785418  1
  O2-  O417  1  0.54948010  0.89134596  0.13437918  1
  O2-  O418  1  0.57539676  0.91952346  0.47824757  1
  O2-  O419  1  0.59161665  0.91863470  0.81046548  1
  O2-  O420  1  0.84006300  0.16864097  0.16253366  1
  O2-  O421  1  0.83670150  0.17269239  0.47397368  1
  O2-  O422  1  0.82893519  0.15155834  0.82484353  1
  O2-  O423  1  0.82033245  0.41706944  0.15430354  1
  O2-  O424  1  0.83950290  0.42526539  0.47764366  1
  O2-  O425  1  0.84116306  0.40103696  0.82641359  1
  O2-  O426  1  0.84014556  0.68143731  0.14449966  1
  O2-  O427  1  0.83115800  0.67073540  0.47276602  1
  O2-  O428  1  0.83764967  0.66022602  0.81111028  1
  O2-  O429  1  0.80707699  0.90836372  0.14042830  1
  O2-  O430  1  0.83276620  0.93558735  0.46534601  1
  O2-  O431  1  0.84046878  0.91080655  0.83604594  1
  O2-  O432  1  0.11114273  -0.06442669  0.12727360  1
  O2-  O433  1  0.17547148  0.09225055  0.52578806  1
  O2-  O434  1  0.16276091  0.07970987  0.87082736  1
  O2-  O435  1  0.15780149  0.31692370  0.18372568  1
  O2-  O436  1  0.17018766  0.33937349  0.50562818  1
  O2-  O437  1  0.17588717  0.44023700  0.84222486  1
  O2-  O438  1  0.16424454  0.56796114  0.18083128  1
  O2-  O439  1  0.17376631  0.57827699  0.50650869  1
  O2-  O440  1  0.18731130  0.60058687  0.85559104  1
  O2-  O441  1  0.15063902  0.79931827  0.23006609  1
  O2-  O442  1  0.17581231  0.85405926  0.49418216  1
  O2-  O443  1  0.15026374  0.82822409  0.85690691  1
  O2-  O444  1  0.40135021  -0.00581660  0.23495059  1
  O2-  O445  1  0.43304118  0.10161091  0.52924325  1
  O2-  O446  1  0.39072065  0.07978054  0.86220339  1
  O2-  O447  1  0.42488579  0.34089172  0.18762220  1
  O2-  O448  1  0.45176029  0.40169903  0.53616939  1
  O2-  O449  1  0.41332938  0.33884502  0.85610469  1
  O2-  O450  1  0.41499855  0.58429745  0.19451183  1
  O2-  O451  1  0.41424235  0.59007873  0.50632444  1
  O2-  O452  1  0.43054761  0.60661344  0.83171554  1
  O2-  O453  1  0.39892561  0.80446334  0.18129215  1
  O2-  O454  1  0.40803295  0.84204042  0.50879495  1
  O2-  O455  1  0.33899649  0.80656241  0.87024070  1
  O2-  O456  1  0.68579182  0.06052003  0.19861521  1
  O2-  O457  1  0.66915287  0.08503810  0.52014226  1
  O2-  O458  1  0.67103682  0.07842059  0.87209739  1
  O2-  O459  1  0.66715473  0.35080994  0.19234234  1
  O2-  O460  1  0.68115371  0.34230279  0.52835397  1
  O2-  O461  1  0.70769316  0.36272757  0.88512137  1
  O2-  O462  1  0.67452950  0.60320058  0.17994709  1
  O2-  O463  1  0.67220454  0.59040300  0.52082788  1
  O2-  O464  1  0.67240252  0.57608801  0.85450565  1
  O2-  O465  1  0.64362585  0.82428566  0.18568215  1
  O2-  O466  1  0.66294384  0.83862405  0.51530993  1
  O2-  O467  1  0.67497876  0.82986209  0.85249954  1
  O2-  O468  1  0.92188731  0.10712606  0.23328179  1
  O2-  O469  1  0.91965206  0.09204603  0.50900128  1
  O2-  O470  1  0.90878023  0.06797945  0.87414218  1
  O2-  O471  1  0.90734408  0.33243571  0.19116307  1
  O2-  O472  1  0.91784750  0.33530278  0.51877613  1
  O2-  O473  1  0.90094668  0.31099208  0.87208809  1
  O2-  O474  1  0.90999716  0.58566652  0.18478922  1
  O2-  O475  1  0.92704373  0.59771406  0.50667832  1
  O2-  O476  1  0.92414700  0.57869055  0.85031042  1
  O2-  O477  1  0.91480993  0.84469142  0.18439759  1
  O2-  O478  1  0.95859504  0.81843133  0.52634686  1
  O2-  O479  1  0.91724602  0.82905159  0.85766795  1
  O2-  O480  1  0.18587349  0.15946874  0.27601236  1
  O2-  O481  1  0.16943995  0.08568351  0.64337230  1
  O2-  O482  1  0.17646069  0.08923710  0.98853300  1
  O2-  O483  1  0.16145470  0.34173455  0.30299139  1
  O2-  O484  1  0.18444044  0.34370212  0.62880158  1
  O2-  O485  1  0.15347500  0.31599945  1.04373806  1
  O2-  O486  1  0.16879395  0.58207106  0.30311139  1
  O2-  O487  1  0.17628121  0.59344070  0.62325323  1
  O2-  O488  1  0.15293714  0.56815066  0.98384685  1
  O2-  O489  1  0.14831283  0.93873610  0.27909769  1
  O2-  O490  1  0.17392442  0.84777368  0.62798249  1
  O2-  O491  1  0.13188743  0.84206704  0.98903400  1
  O2-  O492  1  0.41577104  0.06228746  0.35059015  1
  O2-  O493  1  0.41387322  0.09786629  0.65739947  1
  O2-  O494  1  0.39551347  0.07653120  0.97769629  1
  O2-  O495  1  0.35397876  0.29343628  0.29884429  1
  O2-  O496  1  0.42387070  0.33949856  0.65352037  1
  O2-  O497  1  0.41608091  0.33335993  0.98177819  1
  O2-  O498  1  0.41601716  0.58449465  0.31624680  1
  O2-  O499  1  0.45861326  0.65548094  0.61732875  1
  O2-  O500  1  0.45308675  0.53434352  0.94645832  1
  O2-  O501  1  0.43200321  0.82916576  0.30184419  1
  O2-  O502  1  0.41212002  0.85011849  0.63707880  1
  O2-  O503  1  0.39373122  0.84787238  0.98299157  1
  O2-  O504  1  0.66774475  0.08477145  0.32179531  1
  O2-  O505  1  0.66191891  0.07400301  0.64640163  1
  O2-  O506  1  0.67323975  0.06872499  0.98763995  1
  O2-  O507  1  0.66271585  0.33247339  0.31633428  1
  O2-  O508  1  0.68909126  0.34548888  0.65326598  1
  O2-  O509  1  0.61374637  0.29230307  0.99084509  1
  O2-  O510  1  0.66786768  0.60755974  0.30518622  1
  O2-  O511  1  0.67596242  0.58653684  0.64544236  1
  O2-  O512  1  0.68093194  0.58610308  0.98254837  1
  O2-  O513  1  0.66493122  0.83613879  0.30620133  1
  O2-  O514  1  0.66323159  0.84017705  0.64171673  1
  O2-  O515  1  0.65210680  0.82519978  0.96927631  1
  O2-  O516  1  0.91836965  0.09851740  0.30115951  1
  O2-  O517  1  0.92012189  0.10038385  0.63380498  1
  O2-  O518  1  0.91098282  0.07683139  0.99425322  1
  O2-  O519  1  0.91279036  0.34034282  0.31355226  1
  O2-  O520  1  0.92480852  0.33242680  0.64348432  1
  O2-  O521  1  0.90317160  0.31203664  0.99532010  1
  O2-  O522  1  0.91351707  0.58788910  0.30870294  1
  O2-  O523  1  0.94401813  0.61502735  0.63086281  1
  O2-  O524  1  0.91008159  0.57760788  0.97451526  1
  O2-  O525  1  0.91532573  0.84376562  0.30774644  1
  O2-  O526  1  0.91777349  0.84901402  0.64823364  1
  O2-  O527  1  0.92861027  0.83726669  0.97847687  1
  O2-  O528  1  0.08089333  0.14271402  0.04320757  1
  O2-  O529  1  0.07833588  0.18207092  0.34563039  1
  O2-  O530  1  0.09762775  0.18589065  0.65810656  1
  O2-  O531  1  0.07074900  0.40399180  0.02520826  1
  O2-  O532  1  0.08146352  0.42367377  0.35157991  1
  O2-  O533  1  0.09372336  0.42723781  0.65623542  1
  O2-  O534  1  0.07613153  0.65448059  0.01885431  1
  O2-  O535  1  0.09024822  0.67823350  0.32243007  1
  O2-  O536  1  0.09686996  0.68323357  0.67830537  1
  O2-  O537  1  0.01749045  0.89540047  -0.00165953  1
  O2-  O538  1  0.05310408  0.86467392  0.38003711  1
  O2-  O539  1  0.08624806  0.92288962  0.68157514  1
  O2-  O540  1  0.33175475  0.17383347  0.01621764  1
  O2-  O541  1  0.30883622  0.13033474  0.35041470  1
  O2-  O542  1  0.33084275  0.17192672  0.69912385  1
  O2-  O543  1  0.33135352  0.40857384  0.03098421  1
  O2-  O544  1  0.32595336  0.41658362  0.34741930  1
  O2-  O545  1  0.33153109  0.42217999  0.68661105  1
  O2-  O546  1  0.27954034  0.71196912  0.04310393  1
  O2-  O547  1  0.33499320  0.67170527  0.34708452  1
  O2-  O548  1  0.33677082  0.68126343  0.67408860  1
  O2-  O549  1  0.30448522  0.92175187  0.03194781  1
  O2-  O550  1  0.39842499  0.88697580  0.32133803  1
  O2-  O551  1  0.32448522  0.92416986  0.69165245  1
  O2-  O552  1  0.54557391  0.13226389  0.02110156  1
  O2-  O553  1  0.58738137  0.17086475  0.36206828  1
  O2-  O554  1  0.66754103  0.20262326  0.71243225  1
  O2-  O555  1  0.57625613  0.41992895  0.02410230  1
  O2-  O556  1  0.56400331  0.39078773  0.36910343  1
  O2-  O557  1  0.59358687  0.42124911  0.69285716  1
  O2-  O558  1  0.59161117  0.66131168  0.01659739  1
  O2-  O559  1  0.58220906  0.67497070  0.34934346  1
  O2-  O560  1  0.60049035  0.67324142  0.68541772  1
  O2-  O561  1  0.56431014  0.91164479  0.01356526  1
  O2-  O562  1  0.58260807  0.91496340  0.35540737  1
  O2-  O563  1  0.57216214  0.91296244  0.68905452  1
  O2-  O564  1  0.82291990  0.15276823  0.03850047  1
  O2-  O565  1  0.83422247  0.17293775  0.34965673  1
  O2-  O566  1  0.80811247  0.18767697  0.70760840  1
  O2-  O567  1  0.82288705  0.39838056  -0.00882159  1
  O2-  O568  1  0.82987325  0.42375172  0.35384422  1
  O2-  O569  1  0.85089787  0.40414251  0.70152046  1
  O2-  O570  1  0.84778738  0.67587349  0.01971107  1
  O2-  O571  1  0.83402137  0.67744553  0.35068723  1
  O2-  O572  1  0.84407566  0.67900990  0.68838714  1
  O2-  O573  1  0.79840033  0.90156241  0.02079252  1
  O2-  O574  1  0.83635421  0.93219108  0.33748259  1
  O2-  O575  1  0.83953073  0.94361217  0.67625119  1
