# generated using pymatgen
data_H2O
_symmetry_space_group_name_H-M   'P 1'
_cell_length_a   17.99705576
_cell_length_b   17.98008964
_cell_length_c   21.99876852
_cell_angle_alpha   89.99159944
_cell_angle_beta   89.99046989
_cell_angle_gamma   120.03476933
_symmetry_Int_Tables_number   1
_chemical_formula_structural   H2O
_chemical_formula_sum   'H384 O192'
_cell_volume   6162.68584791
_cell_formula_units_Z   192
loop_
 _symmetry_equiv_pos_site_id
 _symmetry_equiv_pos_as_xyz
  1  'x, y, z'
loop_
 _atom_type_symbol
 _atom_type_oxidation_number
  H+  1.0
  O2-  -2.0
loop_
 _atom_site_type_symbol
 _atom_site_label
 _atom_site_symmetry_multiplicity
 _atom_site_fract_x
 _atom_site_fract_y
 _atom_site_fract_z
 _atom_site_occupancy
  H+  H0  1  0.08337880  -0.03682311  0.86162598  1
  H+  H1  1  0.26933998  0.63151498  0.15665991  1
  H+  H2  1  0.12166461  0.88699564  0.17951393  1
  H+  H3  1  0.89909490  0.51831307  0.33059081  1
  H+  H4  1  0.31632813  0.46522302  0.98175962  1
  H+  H5  1  0.41624966  0.07828130  0.43362470  1
  H+  H6  1  0.96141145  0.12497865  0.84988440  1
  H+  H7  1  0.28478026  0.64720009  0.50848170  1
  H+  H8  1  0.89062816  0.76184727  0.49233893  1
  H+  H9  1  0.37730691  0.70323014  0.53678004  1
  H+  H10  1  0.95148910  0.13850400  0.98176202  1
  H+  H11  1  0.35605176  0.21615082  0.67159008  1
  H+  H12  1  0.63490347  0.74630863  0.84585739  1
  H+  H13  1  0.23368991  0.13087987  0.17391701  1
  H+  H14  1  0.86924934  0.63137925  0.33737587  1
  H+  H15  1  0.36168031  0.13951733  0.14685003  1
  H+  H16  1  0.46700651  0.10569855  0.64938722  1
  H+  H17  1  0.14567536  0.85837294  0.31894080  1
  H+  H18  1  0.59293370  0.11879931  0.44159839  1
  H+  H19  1  0.73339520  0.86532982  0.17684888  1
  H+  H20  1  0.11465048  0.15126824  0.17678821  1
  H+  H21  1  0.82100803  0.64366832  0.07828515  1
  H+  H22  1  0.98101071  0.87237229  0.93735864  1
  H+  H23  1  0.49702976  0.38266600  0.03623318  1
  H+  H24  1  0.73259280  0.61314801  0.32634921  1
  H+  H25  1  0.12790274  0.39160445  0.49586487  1
  H+  H26  1  0.02390699  0.37876055  0.66525864  1
  H+  H27  1  0.71712303  0.11667082  0.00439527  1
  H+  H28  1  0.89844591  0.85676893  0.49306927  1
  H+  H29  1  0.87015061  0.87062065  0.81250216  1
  H+  H30  1  0.42939313  0.83144934  0.49517187  1
  H+  H31  1  0.27251065  0.38940328  0.63752813  1
  H+  H32  1  0.11802488  0.61871758  -0.02008775  1
  H+  H33  1  0.47926425  0.93102079  0.51041617  1
  H+  H34  1  0.51851843  0.13989395  1.01104054  1
  H+  H35  1  0.39965870  0.86725584  0.33195361  1
  H+  H36  1  0.87561474  0.97332234  0.49831039  1
  H+  H37  1  0.65324944  0.77241784  0.33025019  1
  H+  H38  1  0.69148101  0.13752919  0.24837038  1
  H+  H39  1  0.12511197  0.62768059  0.67264369  1
  H+  H40  1  0.23337293  0.61026678  0.66191979  1
  H+  H41  1  0.78701486  0.40144672  0.66289510  1
  H+  H42  1  0.48241419  0.61610535  0.33137646  1
  H+  H43  1  1.02171083  0.38281961  0.81717718  1
  H+  H44  1  0.13882479  0.11793520  0.63141228  1
  H+  H45  1  0.98527206  0.60975509  0.32770901  1
  H+  H46  1  0.09358824  0.93505120  0.22644865  1
  H+  H47  1  0.89518211  0.62537683  0.82940423  1
  H+  H48  1  0.97407434  0.85743442  0.18165718  1
  H+  H49  1  0.85432616  0.63398296  0.16716457  1
  H+  H50  1  0.13319832  0.52774762  0.15409525  1
  H+  H51  1  0.91436965  0.26060174  0.32843063  1
  H+  H52  1  0.22786659  0.86248272  0.16647536  1
  H+  H53  1  0.62971746  0.68341867  0.67066263  1
  H+  H54  1  0.08392516  0.87522861  0.85356614  1
  H+  H55  1  0.43046728  0.34049904  0.96771968  1
  H+  H56  1  0.60877997  0.12841333  0.68107877  1
  H+  H57  1  0.73125487  0.58809472  0.65208702  1
  H+  H58  1  0.30697780  0.38843886  0.18813514  1
  H+  H59  1  0.37566723  0.64271168  0.35283293  1
  H+  H60  1  0.64400622  0.77535017  0.17973593  1
  H+  H61  1  0.28317453  0.87666064  0.00409526  1
  H+  H62  1  0.09100218  0.68069351  0.39353823  1
  H+  H63  1  0.09527567  0.82909138  0.47768928  1
  H+  H64  1  0.39308342  0.60136322  0.49736051  1
  H+  H65  1  0.12390945  0.64183495  0.34135769  1
  H+  H66  1  0.76839315  0.63409924  1.01644455  1
  H+  H67  1  0.36209063  0.46058951  0.48749153  1
  H+  H68  1  0.89088647  0.64830480  0.98822999  1
  H+  H69  1  0.37441116  0.22204756  0.33828826  1
  H+  H70  1  0.60692562  0.22927479  0.16514265  1
  H+  H71  1  0.14337616  0.61958561  0.15242433  1
  H+  H72  1  0.39438723  0.27213593  0.50856588  1
  H+  H73  1  0.11232373  0.47059425  0.66490246  1
  H+  H74  1  0.88697175  0.37013948  0.33595111  1
  H+  H75  1  0.61539103  1.01011590  0.47624193  1
  H+  H76  1  0.42493864  0.32943754  0.60281208  1
  H+  H77  1  0.89640298  0.10372437  0.51765656  1
  H+  H78  1  0.35363998  0.24710367  0.97741425  1
  H+  H79  1  0.91295868  0.86884839  0.98609178  1
  H+  H80  1  0.24136516  0.09681173  0.33099916  1
  H+  H81  1  0.65982506  0.81636661  0.67107809  1
  H+  H82  1  0.72914818  0.35834696  0.98854753  1
  H+  H83  1  0.10888273  0.22989715  0.62159583  1
  H+  H84  1  0.38605755  0.61756566  0.17849317  1
  H+  H85  1  0.76908698  0.64214800  0.16441374  1
  H+  H86  1  0.19665009  0.10070061  0.84816788  1
  H+  H87  1  0.96045073  0.08552797  0.65585900  1
  H+  H88  1  0.64998949  0.91359853  0.67828923  1
  H+  H89  1  0.60492566  0.65303090  1.01373558  1
  H+  H90  1  1.03928516  0.64459327  0.98146451  1
  H+  H91  1  0.89872008  0.36079790  0.51015972  1
  H+  H92  1  0.14862170  0.53862533  0.34652312  1
  H+  H93  1  0.13144216  0.03017530  1.01398275  1
  H+  H94  1  0.84415350  0.13571090  0.01182863  1
  H+  H95  1  0.88266765  0.76995292  0.17417175  1
  H+  H96  1  0.90705167  0.52594289  0.49844163  1
  H+  H97  1  1.06583969  0.19838802  0.90861862  1
  H+  H98  1  0.65363298  0.07180757  0.61320423  1
  H+  H99  1  0.62655336  0.87916349  0.33620321  1
  H+  H100  1  0.96937131  0.36219347  0.98812993  1
  H+  H101  1  0.01830023  0.13457899  0.48443493  1
  H+  H102  1  0.36151304  0.71781775  0.82795007  1
  H+  H103  1  0.66212393  0.41888466  0.01354932  1
  H+  H104  1  0.71441423  0.36021248  0.16984643  1
  H+  H105  1  0.14994608  0.53495109  0.51261587  1
  H+  H106  1  0.41392336  0.07718325  0.09477583  1
  H+  H107  1  0.46369915  0.35606284  0.67134426  1
  H+  H108  1  0.48609881  0.34328240  0.80439314  1
  H+  H109  1  0.73122939  0.91397856  0.86234591  1
  H+  H110  1  0.87077492  0.72198164  0.33735370  1
  H+  H111  1  0.13765811  0.12394918  0.48598842  1
  H+  H112  1  0.78175202  0.62822676  0.48888531  1
  H+  H113  1  0.12143026  0.63035490  0.82457517  1
  H+  H114  1  0.40266031  0.36682482  0.16939037  1
  H+  H115  1  0.34220209  0.36767920  0.80888900  1
  H+  H116  1  0.75318087  0.83047325  0.66678162  1
  H+  H117  1  0.36189840  0.87739027  0.16315543  1
  H+  H118  1  0.03472198  0.89542405  0.02789865  1
  H+  H119  1  0.52934605  0.38688502  0.33077170  1
  H+  H120  1  0.12414930  -0.03217854  0.33856823  1
  H+  H121  1  0.64304896  0.51690992  0.49720714  1
  H+  H122  1  0.35494738  0.12667052  0.00889671  1
  H+  H123  1  0.67733225  0.17934587  0.35632712  1
  H+  H124  1  0.62333014  1.02617505  0.85699110  1
  H+  H125  1  0.73946137  0.38972551  0.31352230  1
  H+  H126  1  0.85168156  0.22802072  0.01245637  1
  H+  H127  1  0.79130718  0.38910067  0.48471100  1
  H+  H128  1  0.04047485  0.39670945  0.51002092  1
  H+  H129  1  0.37094293  0.23339750  0.15414808  1
  H+  H130  1  0.86931957  -0.01794293  1.00983816  1
  H+  H131  1  0.78676139  0.88392056  0.49688639  1
  H+  H132  1  0.64493515  0.12724545  0.18576105  1
  H+  H133  1  0.67391251  0.33527388  0.54173694  1
  H+  H134  1  0.09588747  0.14209149  0.86804595  1
  H+  H135  1  0.05322163  0.29578918  -0.02037841  1
  H+  H136  1  0.88979372  0.37074262  0.83559017  1
  H+  H137  1  0.23679345  0.62759133  0.34510997  1
  H+  H138  1  0.33734995  0.66350661  0.10247286  1
  H+  H139  1  0.58472525  0.99489007  0.69893184  1
  H+  H140  1  0.35728742  0.38446033  0.65168564  1
  H+  H141  1  0.03005129  0.88466198  0.65655871  1
  H+  H142  1  0.86384244  0.47029567  0.00703193  1
  H+  H143  1  0.62941274  0.90617971  0.64723422  1
  H+  H144  1  0.62014389  0.13475910  0.53399757  1
  H+  H145  1  0.85991119  0.10014930  0.66454655  1
  H+  H146  1  0.64123956  0.52538496  0.32596303  1
  H+  H147  1  0.02761918  0.87972283  0.33545010  1
  H+  H148  1  0.64902058  0.27708528  0.48013751  1
  H+  H149  1  0.79479492  0.13883075  0.49830774  1
  H+  H150  1  0.50917577  0.88661309  0.84894432  1
  H+  H151  1  0.88207795  0.22908798  0.50412777  1
  H+  H152  1  0.78783985  0.88677429  0.34098024  1
  H+  H153  1  0.22407923  0.11229572  0.64441571  1
  H+  H154  1  0.64263893  0.91169671  0.87378817  1
  H+  H155  1  0.51914962  0.87104133  0.15888603  1
  H+  H156  1  0.87435398  0.97399442  0.66862663  1
  H+  H157  1  0.28469376  0.89229548  0.33571473  1
  H+  H158  1  0.92079821  0.81885978  0.58323218  1
  H+  H159  1  0.36863438  0.71881300  0.00612937  1
  H+  H160  1  0.35644705  0.88725276  0.67121930  1
  H+  H161  1  0.84331044  0.37843846  0.16211284  1
  H+  H162  1  0.39371217  0.35936840  0.50789141  1
  H+  H163  1  0.86450894  0.51714593  0.17489101  1
  H+  H164  1  0.85155217  0.69588353  0.88538592  1
  H+  H165  1  0.38848412  0.54988459  0.88228394  1
  H+  H166  1  0.72971479  0.10226828  0.66281835  1
  H+  H167  1  0.39381101  0.53239903  0.17964748  1
  H+  H168  1  0.88017798  0.13290244  0.35095865  1
  H+  H169  1  0.11748417  0.72759807  0.13875309  1
  H+  H170  1  0.63897184  0.35237251  0.64347143  1
  H+  H171  1  0.28350354  0.36230191  0.28996989  1
  H+  H172  1  0.61061339  0.64109555  0.16471190  1
  H+  H173  1  0.87742905  0.27696715  0.83735120  1
  H+  H174  1  0.86770589  0.89016374  0.16399860  1
  H+  H175  1  0.41226611  0.08313772  0.94547778  1
  H+  H176  1  0.20933247  0.59503563  0.98239696  1
  H+  H177  1  0.91949985  0.08531005  0.23946767  1
  H+  H178  1  0.52894234  0.62580237  0.49120659  1
  H+  H179  1  0.13701367  0.36527002  0.63036632  1
  H+  H180  1  0.87335434  0.12441332  0.83398230  1
  H+  H181  1  0.37319421  0.84849878  0.84829783  1
  H+  H182  1  0.26308918  0.88228336  0.82461395  1
  H+  H183  1  0.74630032  0.13739210  0.83521839  1
  H+  H184  1  0.13303229  0.27717234  0.84268702  1
  H+  H185  1  0.87279482  0.48820630  0.82068529  1
  H+  H186  1  0.26973699  0.15023599  0.48631210  1
  H+  H187  1  0.10210225  0.27468827  0.17933945  1
  H+  H188  1  0.03251539  0.63401875  0.82094465  1
  H+  H189  1  0.33030571  -0.00842689  0.50482131  1
  H+  H190  1  0.86810495  0.26461840  0.17268083  1
  H+  H191  1  0.78173902  0.40412558  0.81978550  1
  H+  H192  1  1.01712670  0.85530077  0.47979984  1
  H+  H193  1  0.63160112  0.37401039  0.82774492  1
  H+  H194  1  0.48493819  0.85548986  0.99541296  1
  H+  H195  1  0.86747477  0.97947491  0.16540371  1
  H+  H196  1  0.15001885  0.16650497  0.02912811  1
  H+  H197  1  0.72450387  0.51400315  0.04036985  1
  H+  H198  1  0.64784219  0.38187595  0.32227567  1
  H+  H199  1  0.61504809  0.38433796  0.48013252  1
  H+  H200  1  0.27098225  0.37260240  0.48282866  1
  H+  H201  1  0.60964785  0.87557419  0.16206293  1
  H+  H202  1  0.32666892  0.35312434  0.00991999  1
  H+  H203  1  0.47929303  0.13617418  0.85129576  1
  H+  H204  1  0.37009365  0.63541029  0.66765250  1
  H+  H205  1  0.07136012  0.38138614  0.15002424  1
  H+  H206  1  0.88268729  0.11303800  0.18227502  1
  H+  H207  1  0.22319959  0.11123821  0.00145006  1
  H+  H208  1  0.15184508  0.62637572  0.50817019  1
  H+  H209  1  0.10122485  0.22798865  0.46940436  1
  H+  H210  1  0.33835958  0.17447648  0.40243636  1
  H+  H211  1  0.61411993  0.75720175  0.82041260  1
  H+  H212  1  0.49474741  0.90838871  0.69638131  1
  H+  H213  1  0.35030976  0.24931306  0.81978861  1
  H+  H214  1  0.59505924  0.12837292  0.83872994  1
  H+  H215  1  0.60305828  0.21267615  0.68495302  1
  H+  H216  1  0.68219542  0.94877970  0.47476148  1
  H+  H217  1  0.41808258  0.58841634  0.27496634  1
  H+  H218  1  0.76985544  0.13838676  0.17416875  1
  H+  H219  1  0.54569002  0.15493235  0.40498989  1
  H+  H220  1  0.52014507  0.39831857  1.00619392  1
  H+  H221  1  0.86237189  0.38052924  0.00211288  1
  H+  H222  1  0.15054052  0.75970306  0.98171940  1
  H+  H223  1  1.01953587  0.13891833  0.16935534  1
  H+  H224  1  0.37959054  0.76567175  0.17638192  1
  H+  H225  1  0.88096224  0.34196297  0.66401430  1
  H+  H226  1  0.40150226  0.36025254  0.32017690  1
  H+  H227  1  0.23762722  0.36762576  0.81633404  1
  H+  H228  1  0.60729766  0.23052501  1.00573485  1
  H+  H229  1  0.14035752  0.52385433  0.83319668  1
  H+  H230  1  0.62741625  0.11439472  1.00259944  1
  H+  H231  1  0.64647004  0.60698033  0.50350643  1
  H+  H232  1  0.15109513  0.84891305  0.99265950  1
  H+  H233  1  0.14871969  0.88716112  0.62200782  1
  H+  H234  1  0.61926357  0.63601772  0.33906160  1
  H+  H235  1  0.37782769  0.60305185  0.82727789  1
  H+  H236  1  0.89030819  0.85302606  0.63979602  1
  H+  H237  1  0.34750617  0.13199808  0.49233363  1
  H+  H238  1  0.61291403  0.58728401  0.66332766  1
  H+  H239  1  0.48514369  0.58113896  0.80835974  1
  H+  H240  1  0.13428333  0.36752608  0.82225005  1
  H+  H241  1  0.35469860  0.62388393  0.00420215  1
  H+  H242  1  0.35440494  0.96725893  0.82632983  1
  H+  H243  1  0.52364300  0.64560830  0.16817975  1
  H+  H244  1  0.33840049  0.12747236  0.82407040  1
  H+  H245  1  0.09544236  0.43658150  0.42078424  1
  H+  H246  1  0.11150106  -0.02234556  0.65375471  1
  H+  H247  1  0.58705227  0.59265610  0.81481764  1
  H+  H248  1  0.89506228  0.86013780  0.33083746  1
  H+  H249  1  0.75515015  0.86228722  0.99917027  1
  H+  H250  1  0.61813299  0.71496224  0.49704321  1
  H+  H251  1  0.16816936  0.34840032  0.44009606  1
  H+  H252  1  0.68931500  0.44843776  0.62381451  1
  H+  H253  1  0.03809183  0.64886619  0.49110064  1
  H+  H254  1  0.34658707  0.46088040  0.80859036  1
  H+  H255  1  0.85046930  0.72215761  0.66214623  1
  H+  H256  1  0.90020628  0.61131286  0.50112290  1
  H+  H257  1  0.13588507  0.77059030  0.83290891  1
  H+  H258  1  0.85039137  -0.01018097  0.82329321  1
  H+  H259  1  0.58957119  0.17439675  0.10439237  1
  H+  H260  1  0.99078573  0.39081114  0.14398526  1
  H+  H261  1  0.63724658  0.52921001  0.17606144  1
  H+  H262  1  0.64457538  0.54418974  0.99815011  1
  H+  H263  1  0.44386119  0.18777918  0.88758728  1
  H+  H264  1  0.41784669  0.84502528  0.60215865  1
  H+  H265  1  0.08613608  0.23360651  0.00448981  1
  H+  H266  1  0.36469811  0.96841183  0.15149757  1
  H+  H267  1  0.02688396  0.62323071  0.66759458  1
  H+  H268  1  0.17334290  0.37225746  0.17890439  1
  H+  H269  1  0.60266180  0.44035498  0.71908116  1
  H+  H270  1  0.37015261  0.97659793  0.36259821  1
  H+  H271  1  0.88503494  0.25320044  0.66132161  1
  H+  H272  1  0.47825298  0.60005805  0.64631393  1
  H+  H273  1  0.76061534  0.17296878  0.34166316  1
  H+  H274  1  0.27216272  0.62975691  0.82434612  1
  H+  H275  1  0.61750345  0.39233697  0.16571738  1
  H+  H276  1  0.38357560  1.01139205  -0.00039364  1
  H+  H277  1  0.37927302  0.47750722  0.34045389  1
  H+  H278  1  0.48990063  0.36459335  0.16555869  1
  H+  H279  1  0.52536978  0.38314870  0.49034782  1
  H+  H280  1  0.90983272  0.52062620  0.65309229  1
  H+  H281  1  0.95752975  0.86779731  0.81617065  1
  H+  H282  1  1.03488304  0.40839534  0.36327666  1
  H+  H283  1  0.33282537  0.87280299  0.49608238  1
  H+  H284  1  0.09805685  0.67173881  0.07833217  1
  H+  H285  1  0.38520947  0.77388385  0.65627808  1
  H+  H286  1  0.90727675  0.01981399  0.33722938  1
  H+  H287  1  0.72635285  0.63122525  0.84519374  1
  H+  H288  1  0.88329657  0.07953398  0.93405076  1
  H+  H289  1  0.55469125  0.60026004  0.74281295  1
  H+  H290  1  0.58449646  0.68915979  0.07328594  1
  H+  H291  1  0.92114195  0.32698879  0.57191943  1
  H+  H292  1  0.90552048  0.32734472  0.22918319  1
  H+  H293  1  0.40530816  0.81839462  0.90783723  1
  H+  H294  1  0.70347751  0.44519047  0.86868875  1
  H+  H295  1  0.65749333  0.59821511  0.93787048  1
  H+  H296  1  0.87926257  0.89473544  0.71767886  1
  H+  H297  1  0.12007242  0.19878387  0.08823868  1
  H+  H298  1  0.37839083  1.01853401  0.65253693  1
  H+  H299  1  0.84583186  0.91500711  0.40159418  1
  H+  H300  1  0.32491535  0.91825735  0.72797916  1
  H+  H301  1  0.41476135  0.82790122  0.23521962  1
  H+  H302  1  0.90278216  0.57560672  0.23386807  1
  H+  H303  1  0.68239611  0.80968522  0.57751719  1
  H+  H304  1  0.16672003  0.09096165  0.54457829  1
  H+  H305  1  0.83931047  0.41983921  0.72559537  1
  H+  H306  1  0.64132221  0.95402091  0.40928150  1
  H+  H307  1  0.07993960  0.41010488  0.75595730  1
  H+  H308  1  0.85398745  0.40520501  0.43037882  1
  H+  H309  1  0.64904711  0.77461289  1.00052961  1
  H+  H310  1  0.35447667  0.12669416  0.66664412  1
  H+  H311  1  0.39958141  0.77897011  0.33438191  1
  H+  H312  1  0.91625843  0.82783353  0.26892355  1
  H+  H313  1  0.39459664  0.85404887  0.99880220  1
  H+  H314  1  0.34010059  0.66356226  0.72855514  1
  H+  H315  1  0.58301853  0.41842645  0.39335974  1
  H+  H316  1  0.38393636  0.51686311  0.64180603  1
  H+  H317  1  0.53961519  0.88524488  0.34187435  1
  H+  H318  1  0.78446417  0.18845935  0.77409518  1
  H+  H319  1  0.19536730  0.32258654  0.25404589  1
  H+  H320  1  0.26929994  0.50542385  0.94691418  1
  H+  H321  1  0.67615416  0.55571274  0.59021580  1
  H+  H322  1  0.61160632  0.43776920  0.10540433  1
  H+  H323  1  0.91063712  0.05760838  0.57618414  1
  H+  H324  1  0.47769450  0.11466219  0.14933157  1
  H+  H325  1  0.84816875  0.65304938  0.70718508  1
  H+  H326  1  0.86014453  0.17157058  0.40999877  1
  H+  H327  1  0.18089086  0.07996690  0.27355120  1
  H+  H328  1  0.14589972  0.04290889  0.17805762  1
  H+  H329  1  0.33004613  0.16990009  0.06404808  1
  H+  H330  1  0.59107217  0.66438037  0.39957621  1
  H+  H331  1  0.40412606  0.11814549  0.37320696  1
  H+  H332  1  0.17511525  0.58926163  0.60211657  1
  H+  H333  1  0.57999811  0.90224693  0.06436885  1
  H+  H334  1  0.30112554  0.88643300  0.43211067  1
  H+  H335  1  0.14751381  0.77131482  0.31925514  1
  H+  H336  1  0.62748511  0.83480875  0.53634286  1
  H+  H337  1  0.35648238  0.68082781  0.41276509  1
  H+  H338  1  0.32656094  0.40695842  0.11485957  1
  H+  H339  1  0.16849134  0.82585998  0.89381369  1
  H+  H340  1  0.34326604  0.40645913  0.39368860  1
  H+  H341  1  0.06397619  0.41025013  0.05035486  1
  H+  H342  1  0.23758479  0.32035689  0.03956470  1
  H+  H343  1  0.08180622  0.93183628  0.09120357  1
  H+  H344  1  0.38056605  0.30952742  0.87817799  1
  H+  H345  1  0.66616341  0.33980510  0.93210387  1
  H+  H346  1  0.19011666  0.80393716  0.49847609  1
  H+  H347  1  0.65081410  0.53413705  0.84397846  1
  H+  H348  1  0.68763787  0.86154313  0.94329607  1
  H+  H349  1  0.82416740  0.16130862  0.11079389  1
  H+  H350  1  0.66040330  0.09148380  0.91350845  1
  H+  H351  1  0.03126062  0.13692216  0.38256616  1
  H+  H352  1  0.66249019  0.33858138  0.23279911  1
  H+  H353  1  0.15415456  0.08050767  0.91529365  1
  H+  H354  1  0.38930787  0.06163071  0.55412957  1
  H+  H355  1  0.66741940  0.58970307  0.23495834  1
  H+  H356  1  0.84019576  0.65770998  0.42864135  1
  H+  H357  1  0.68416237  0.83288285  0.27053636  1
  H+  H358  1  0.33572359  0.90459044  0.06729795  1
  H+  H359  1  0.30580587  0.14325803  0.75985776  1
  H+  H360  1  1.04859304  0.14649617  0.58457050  1
  H+  H361  1  0.08943522  0.65639056  0.73470040  1
  H+  H362  1  0.79045476  0.31293677  0.34688821  1
  H+  H363  1  0.23442785  0.88821870  0.62669445  1
  H+  H364  1  0.90521621  0.32985992  0.93128356  1
  H+  H365  1  0.85552002  0.74531771  0.82389526  1
  H+  H366  1  0.56109344  0.14684973  0.77648761  1
  H+  H367  1  0.82105932  0.40955549  0.10038959  1
  H+  H368  1  0.84847128  0.92361162  0.06949652  1
  H+  H369  1  0.93069049  0.61363520  0.88967894  1
  H+  H370  1  0.94341185  0.58431729  0.59527841  1
  H+  H371  1  0.42765034  0.32703741  0.26055031  1
  H+  H372  1  0.96124691  0.73424940  0.95980876  1
  H+  H373  1  0.56244069  0.93266916  0.79019997  1
  H+  H374  1  0.08368352  0.88527466  0.41627670  1
  H+  H375  1  0.16387811  0.57500217  0.90034737  1
  H+  H376  1  0.16639380  0.34473944  0.56603046  1
  H+  H377  1  0.60661978  -0.03197936  1.00932516  1
  H+  H378  1  1.00006562  0.32393008  0.29227846  1
  H+  H379  1  0.42160141  0.57328514  0.55653287  1
  H+  H380  1  0.10027305  0.46563724  0.98838352  1
  H+  H381  1  0.17073446  0.82539329  0.22593316  1
  H+  H382  1  0.83492854  0.13448463  0.72382237  1
  H+  H383  1  0.80493531  0.92469643  0.76836071  1
  O2-  O384  1  0.08171913  0.17724392  0.15892823  1
  O2-  O385  1  0.06816319  0.16491347  0.45696287  1
  O2-  O386  1  0.06949363  0.17976944  0.86624285  1
  O2-  O387  1  0.04969718  0.41456919  0.12726050  1
  O2-  O388  1  0.10132100  0.43231829  0.49748575  1
  O2-  O389  1  0.08172859  0.41168345  0.80154671  1
  O2-  O390  1  0.09334672  0.66865278  0.12311009  1
  O2-  O391  1  0.09961951  0.68472083  0.47629222  1
  O2-  O392  1  0.09241935  0.66166962  0.80556160  1
  O2-  O393  1  0.08900916  0.92064520  0.18324057  1
  O2-  O394  1  0.07766858  0.87225714  0.46342778  1
  O2-  O395  1  0.04629449  0.89932311  0.86323313  1
  O2-  O396  1  0.33187752  0.17285408  0.13877692  1
  O2-  O397  1  0.33429043  0.17683953  0.47797051  1
  O2-  O398  1  0.30014312  0.14587790  0.80544169  1
  O2-  O399  1  0.35089956  0.42384193  0.15635339  1
  O2-  O400  1  0.33472496  0.40005908  0.47333995  1
  O2-  O401  1  0.31204456  0.39961427  0.79570024  1
  O2-  O402  1  0.33408516  0.66348904  0.14772147  1
  O2-  O403  1  0.34822779  0.67610232  0.49892304  1
  O2-  O404  1  0.33342366  0.65911288  0.80898569  1
  O2-  O405  1  0.33108129  0.90558985  0.14351733  1
  O2-  O406  1  0.28642498  0.87872456  0.47660951  1
  O2-  O407  1  0.32485319  0.90840768  0.81127793  1
  O2-  O408  1  0.58160608  0.16876745  0.14931422  1
  O2-  O409  1  0.56717996  0.02635876  0.49033611  1
  O2-  O410  1  0.56260790  0.15493999  0.82102641  1
  O2-  O411  1  0.59249325  0.42768475  0.14872635  1
  O2-  O412  1  0.58402847  0.41575023  0.47093490  1
  O2-  O413  1  0.54248166  0.35855084  0.78403866  1
  O2-  O414  1  0.58348522  0.67518175  0.15131590  1
  O2-  O415  1  0.59105332  0.65685992  0.47876167  1
  O2-  O416  1  0.53617038  0.57932103  0.78762256  1
  O2-  O417  1  0.57649081  0.89699021  0.13972669  1
  O2-  O418  1  0.67215622  0.98753720  0.44983252  1
  O2-  O419  1  0.56956720  0.92541222  0.83501111  1
  O2-  O420  1  0.83014572  0.16323674  0.15587813  1
  O2-  O421  1  0.85583429  0.16789866  0.48864276  1
  O2-  O422  1  0.80284903  0.17165038  0.81079540  1
  O2-  O423  1  0.81550545  0.41049057  0.14512606  1
  O2-  O424  1  0.85353755  0.41628843  0.47486736  1
  O2-  O425  1  0.84157578  0.42795042  0.80516238  1
  O2-  O426  1  0.82959216  0.66953457  0.14881272  1
  O2-  O427  1  0.84278027  0.65905928  0.47441763  1
  O2-  O428  1  0.83056951  0.68540331  0.84341476  1
  O2-  O429  1  0.83886757  0.92078378  0.14698748  1
  O2-  O430  1  0.84534200  0.91346061  0.48007684  1
  O2-  O431  1  0.81359536  0.92737544  0.81270239  1
  O2-  O432  1  0.17498209  0.10282376  0.19261098  1
  O2-  O433  1  0.17191161  0.09789546  0.49955514  1
  O2-  O434  1  0.14142233  0.07630306  0.87055102  1
  O2-  O435  1  0.11529912  0.33344393  0.19347105  1
  O2-  O436  1  0.16395157  0.33384350  0.48325646  1
  O2-  O437  1  0.16985186  0.34169394  0.83804433  1
  O2-  O438  1  0.17047409  0.58664712  0.16889071  1
  O2-  O439  1  0.18129738  0.59731685  0.52606961  1
  O2-  O440  1  0.17028828  0.58267310  0.85018311  1
  O2-  O441  1  0.16687153  0.83315823  0.18107995  1
  O2-  O442  1  0.12611432  0.76667396  0.50804412  1
  O2-  O443  1  0.16043043  0.83003744  0.84917233  1
  O2-  O444  1  0.41385846  0.08075343  0.13910437  1
  O2-  O445  1  0.37208340  0.05349480  0.51044690  1
  O2-  O446  1  0.42517589  0.12949074  0.87365879  1
  O2-  O447  1  0.42886836  0.33096352  0.18051805  1
  O2-  O448  1  0.42781501  0.33338396  0.52398749  1
  O2-  O449  1  0.38646134  0.31153834  0.83291004  1
  O2-  O450  1  0.42005757  0.59179349  0.19616771  1
  O2-  O451  1  0.42289222  0.57059550  0.51065740  1
  O2-  O452  1  0.40244134  0.56441347  0.83853740  1
  O2-  O453  1  0.40971682  0.82728565  0.19006055  1
  O2-  O454  1  0.42818929  0.87408472  0.52191416  1
  O2-  O455  1  0.40298146  0.81763012  0.86178630  1
  O2-  O456  1  0.68242957  0.11074096  0.20792290  1
  O2-  O457  1  0.59965294  0.07538133  0.54706197  1
  O2-  O458  1  0.65757532  0.08943996  0.86734924  1
  O2-  O459  1  0.65457599  0.33175792  0.18685061  1
  O2-  O460  1  0.67827123  0.33611101  0.49699446  1
  O2-  O461  1  0.68241553  0.38708354  0.85353078  1
  O2-  O462  1  0.66586583  0.59088277  0.18939331  1
  O2-  O463  1  0.67742368  0.57592860  0.51544253  1
  O2-  O464  1  0.66229526  0.59200451  0.85312322  1
  O2-  O465  1  0.67585500  0.83521877  0.19659969  1
  O2-  O466  1  0.67250032  0.81973123  0.53389929  1
  O2-  O467  1  0.69426314  0.91673653  0.89466277  1
  O2-  O468  1  0.91607232  0.08416563  0.19450606  1
  O2-  O469  1  0.92346305  0.06958125  0.53021663  1
  O2-  O470  1  0.89713414  0.09013137  0.85109241  1
  O2-  O471  1  0.89295061  0.32680887  0.18548149  1
  O2-  O472  1  0.92747919  0.32974111  0.52664319  1
  O2-  O473  1  0.91632169  0.33712360  0.85083088  1
  O2-  O474  1  0.89068010  0.57684622  0.19028026  1
  O2-  O475  1  0.93562225  0.58568467  0.51493459  1
  O2-  O476  1  0.92430060  0.59563017  0.84620141  1
  O2-  O477  1  0.91209593  0.83009568  0.19161790  1
  O2-  O478  1  0.92775686  0.82400339  0.50477294  1
  O2-  O479  1  0.89929614  0.83965219  0.79715718  1
  O2-  O480  1  0.18253087  0.05823849  0.31449421  1
  O2-  O481  1  0.16743059  0.08376354  0.62345780  1
  O2-  O482  1  0.16056133  0.08751348  0.99290839  1
  O2-  O483  1  0.25459581  0.33461193  0.25099937  1
  O2-  O484  1  0.16644232  0.33723688  0.61063086  1
  O2-  O485  1  0.04660245  0.23810591  0.97381021  1
  O2-  O486  1  0.17676777  0.59876413  0.33081992  1
  O2-  O487  1  0.17201845  0.58203672  0.64759752  1
  O2-  O488  1  0.15274307  0.56538566  0.96263406  1
  O2-  O489  1  0.17910159  0.83195048  0.30326307  1
  O2-  O490  1  0.18796695  0.87477600  0.59771288  1
  O2-  O491  1  0.18217951  0.82476362  0.97168188  1
  O2-  O492  1  0.43301345  0.08702154  0.39007571  1
  O2-  O493  1  0.40760925  0.07784931  0.63378627  1
  O2-  O494  1  0.41002843  0.07506525  0.99059917  1
  O2-  O495  1  0.42955589  0.32729608  0.30595799  1
  O2-  O496  1  0.41075766  0.32350700  0.64732183  1
  O2-  O497  1  0.37033528  0.30324418  0.95606668  1
  O2-  O498  1  0.42010329  0.58552810  0.32046143  1
  O2-  O499  1  0.41980708  0.58201862  0.63184875  1
  O2-  O500  1  0.32626800  0.51278642  0.95372226  1
  O2-  O501  1  0.42986190  0.83762785  0.31598903  1
  O2-  O502  1  0.41099387  0.83599701  0.64669500  1
  O2-  O503  1  0.42161646  0.82219746  0.98149520  1
  O2-  O504  1  0.72422902  0.19588680  0.32651306  1
  O2-  O505  1  0.66754001  0.08336287  0.65673632  1
  O2-  O506  1  0.65782372  0.08483876  0.98684724  1
  O2-  O507  1  0.67887594  0.35445540  0.30331230  1
  O2-  O508  1  0.69074823  0.39324586  0.62179580  1
  O2-  O509  1  0.66749525  0.33458874  0.97671003  1
  O2-  O510  1  0.67195884  0.58700980  0.31200426  1
  O2-  O511  1  0.67585367  0.54009333  0.63425959  1
  O2-  O512  1  0.66095406  0.60246950  0.98262539  1
  O2-  O513  1  0.68735361  0.83358347  0.31651220  1
  O2-  O514  1  0.69101505  0.79088585  0.65201476  1
  O2-  O515  1  0.69955828  0.82499179  0.97592137  1
  O2-  O516  1  0.93232947  0.08225827  0.32437413  1
  O2-  O517  1  0.89910851  0.04761906  0.64662470  1
  O2-  O518  1  0.89377147  0.08576409  0.97860028  1
  O2-  O519  1  0.94559601  0.31760491  0.30593847  1
  O2-  O520  1  0.91392015  0.31474979  0.64894918  1
  O2-  O521  1  0.90527791  0.33042389  0.97660730  1
  O2-  O522  1  0.92250545  0.57716324  0.31597966  1
  O2-  O523  1  0.94514175  0.58193309  0.64060151  1
  O2-  O524  1  0.93771033  0.67200471  0.95650651  1
  O2-  O525  1  0.92337271  0.82837049  0.31426514  1
  O2-  O526  1  0.91484430  0.81630609  0.62831944  1
  O2-  O527  1  0.95105851  0.84558062  0.97592373  1
  O2-  O528  1  0.14780825  0.21661492  0.04709737  1
  O2-  O529  1  0.02479085  0.12406752  0.33748180  1
  O2-  O530  1  0.07559355  0.16543957  0.62438445  1
  O2-  O531  1  0.06570730  0.40441434  0.00514065  1
  O2-  O532  1  0.09521344  0.43703446  0.37529194  1
  O2-  O533  1  0.08547657  0.40926683  0.67765695  1
  O2-  O534  1  0.09772562  0.66331645  -0.00493075  1
  O2-  O535  1  0.08796774  0.67163174  0.34908616  1
  O2-  O536  1  0.08996592  0.65498576  0.68781698  1
  O2-  O537  1  0.09184674  0.93187805  0.04747227  1
  O2-  O538  1  0.08791931  0.90391718  0.35112790  1
  O2-  O539  1  0.08991793  0.91898220  0.67044249  1
  O2-  O540  1  0.32672125  0.16117268  0.01838747  1
  O2-  O541  1  0.34384009  0.16441338  0.35795639  1
  O2-  O542  1  0.32322301  0.15467476  0.68441418  1
  O2-  O543  1  0.29418358  0.37391301  0.03398160  1
  O2-  O544  1  0.35358204  0.41474672  0.34884661  1
  O2-  O545  1  0.33140986  0.42174397  0.65459902  1
  O2-  O546  1  0.33227500  0.65867803  0.02191963  1
  O2-  O547  1  0.35079615  0.67807184  0.36831641  1
  O2-  O548  1  0.33847065  0.66411461  0.68306088  1
  O2-  O549  1  0.34203754  0.91090581  0.02175390  1
  O2-  O550  1  0.33810358  0.91258369  0.36016138  1
  O2-  O551  1  0.32944801  0.92174637  0.68309829  1
  O2-  O552  1  0.57925976  0.17255826  0.02504927  1
  O2-  O553  1  0.60353399  0.17337354  0.42271696  1
  O2-  O554  1  0.57058654  0.15144427  0.69367066  1
  O2-  O555  1  0.66354253  0.46737639  0.03639565  1
  O2-  O556  1  0.58888607  0.42291133  0.34812253  1
  O2-  O557  1  0.54387822  0.41517508  0.73488905  1
  O2-  O558  1  0.58538220  0.69283579  0.02786799  1
  O2-  O559  1  0.58975700  0.66726340  0.35434188  1
  O2-  O560  1  0.58705568  0.62154496  0.67910361  1
  O2-  O561  1  0.57932922  0.90621422  0.01874187  1
  O2-  O562  1  0.60150823  0.91350784  0.35273464  1
  O2-  O563  1  0.53638590  0.95322616  0.72407619  1
  O2-  O564  1  0.81950653  0.16936092  0.03060572  1
  O2-  O565  1  0.85718268  0.17041233  0.36473874  1
  O2-  O566  1  0.83447564  0.13891828  0.67956424  1
  O2-  O567  1  0.82981310  0.40996561  0.01836981  1
  O2-  O568  1  0.83815496  0.37316760  0.35348403  1
  O2-  O569  1  0.84305119  0.41496875  0.68056605  1
  O2-  O570  1  0.80983943  0.61983172  0.03510518  1
  O2-  O571  1  0.83837354  0.66114112  0.35224414  1
  O2-  O572  1  0.81081073  0.66916454  0.68616651  1
  O2-  O573  1  0.85035078  0.92252323  0.02379398  1
  O2-  O574  1  0.84916775  0.91708327  0.35626248  1
  O2-  O575  1  0.84463781  0.90241263  0.68646921  1
