# generated using pymatgen
data_H2O
_symmetry_space_group_name_H-M   'P 1'
_cell_length_a   17.98265823
_cell_length_b   17.98470863
_cell_length_c   22.02163914
_cell_angle_alpha   90.00228932
_cell_angle_beta   90.02392478
_cell_angle_gamma   119.98082014
_symmetry_Int_Tables_number   1
_chemical_formula_structural   H2O
_chemical_formula_sum   'H384 O192'
_cell_volume   6169.09442304
_cell_formula_units_Z   192
loop_
 _symmetry_equiv_pos_site_id
 _symmetry_equiv_pos_as_xyz
  1  'x, y, z'
loop_
 _atom_type_symbol
 _atom_type_oxidation_number
  H+  1.0
  O2-  -2.0
loop_
 _atom_site_type_symbol
 _atom_site_label
 _atom_site_symmetry_multiplicity
 _atom_site_fract_x
 _atom_site_fract_y
 _atom_site_fract_z
 _atom_site_occupancy
  H+  H0  1  0.52659603  0.89265045  0.49357178  1
  H+  H1  1  0.35056978  0.09627682  0.83602186  1
  H+  H2  1  0.86638360  0.88824983  0.00591617  1
  H+  H3  1  0.37325691  0.72579802  0.66806045  1
  H+  H4  1  0.38097378  0.01412873  0.84391189  1
  H+  H5  1  0.40398491  0.02334505  0.33919903  1
  H+  H6  1  0.94818484  0.60019298  0.98877751  1
  H+  H7  1  0.09387496  0.70586163  0.66564358  1
  H+  H8  1  0.27973631  0.63766105  0.66613696  1
  H+  H9  1  0.77182421  0.38180423  0.33223598  1
  H+  H10  1  0.39052365  0.87884421  0.34862699  1
  H+  H11  1  0.14151831  0.78016895  0.48364991  1
  H+  H12  1  0.68618486  0.05568775  0.57078870  1
  H+  H13  1  0.91445398  0.34941167  0.20451226  1
  H+  H14  1  0.10477167  0.62266255  0.66279405  1
  H+  H15  1  0.98038434  0.11708453  0.50456954  1
  H+  H16  1  -0.03506515  0.10060142  0.82923017  1
  H+  H17  1  0.38424404  0.76160580  0.18271385  1
  H+  H18  1  0.12439541  0.14311366  0.49064599  1
  H+  H19  1  0.87518056  0.35377323  0.48811748  1
  H+  H20  1  0.11201400  0.01698788  0.65213682  1
  H+  H21  1  0.18016182  0.82734800  1.07085152  1
  H+  H22  1  0.78264366  -0.11153609  0.17003554  1
  H+  H23  1  0.36051850  0.62866833  0.82124498  1
  H+  H24  1  0.26698016  0.38592812  0.15848221  1
  H+  H25  1  0.85907753  0.22116124  0.82217265  1
  H+  H26  1  -0.01367489  0.88874329  0.65667059  1
  H+  H27  1  0.63756991  0.76388154  -0.01843714  1
  H+  H28  1  -0.01794604  0.87695854  0.18186191  1
  H+  H29  1  0.00689874  0.63185649  0.32368215  1
  H+  H30  1  0.43868009  0.87249791  0.66888244  1
  H+  H31  1  0.91118240  0.32687665  0.40819146  1
  H+  H32  1  0.61303920  0.36438840  0.51357506  1
  H+  H33  1  0.72254463  0.10412950  0.81418818  1
  H+  H34  1  0.61399661  0.65514768  0.16483981  1
  H+  H35  1  0.88522122  0.36030742  0.98563241  1
  H+  H36  1  0.97980128  0.19963529  0.20719122  1
  H+  H37  1  0.14098883  0.86162919  1.02209526  1
  H+  H38  1  0.27311958  0.63554399  0.00621119  1
  H+  H39  1  0.84702049  0.46146578  0.82795256  1
  H+  H40  1  0.34891321  0.36889467  0.82105957  1
  H+  H41  1  0.85984517  0.13074724  0.82049466  1
  H+  H42  1  0.65546848  0.54256425  0.16489253  1
  H+  H43  1  0.11642360  -0.00828637  0.15699903  1
  H+  H44  1  0.39069801  0.52824436  0.33247854  1
  H+  H45  1  0.13077349  0.51613648  0.16737306  1
  H+  H46  1  0.68107534  0.17886958  0.93693379  1
  H+  H47  1  0.72087002  0.29535781  0.18280764  1
  H+  H48  1  0.59574715  0.91973613  0.40048664  1
  H+  H49  1  0.12813009  0.59140977  0.32858888  1
  H+  H50  1  0.11729407  0.48138382  -0.00732637  1
  H+  H51  1  0.15069156  0.32033810  0.90488888  1
  H+  H52  1  0.64917278  0.52332998  0.99736661  1
  H+  H53  1  0.13927384  0.27265717  -0.00319585  1
  H+  H54  1  0.63363585  0.76248546  0.83815835  1
  H+  H55  1  0.98124235  0.87429978  0.84828149  1
  H+  H56  1  0.13609849  0.52568126  0.84193065  1
  H+  H57  1  0.05635795  0.63969215  0.46946540  1
  H+  H58  1  0.18221135  0.34027311  0.55467476  1
  H+  H59  1  0.46923818  0.61253551  0.18446322  1
  H+  H60  1  0.99269641  0.14022124  0.98187725  1
  H+  H61  1  0.53736433  0.87690664  0.34405672  1
  H+  H62  1  0.34372207  0.41889495  0.42727483  1
  H+  H63  1  0.37333971  0.38349608  0.33828928  1
  H+  H64  1  0.89276179  0.63629082  0.17075380  1
  H+  H65  1  0.09655164  0.71285022  0.01379792  1
  H+  H66  1  0.60321578  0.22386042  0.16556509  1
  H+  H67  1  0.70465017  0.33625670  -0.01504454  1
  H+  H68  1  0.64928888  0.78482992  0.20215611  1
  H+  H69  1  0.85290107  0.96437077  0.82409224  1
  H+  H70  1  0.20639995  0.09606990  0.66113221  1
  H+  H71  1  0.62402576  0.32610123  0.31335262  1
  H+  H72  1  0.37847494  0.72150481  0.52073563  1
  H+  H73  1  0.64397548  0.11827943  0.32775908  1
  H+  H74  1  0.22861211  0.61162660  0.83676012  1
  H+  H75  1  0.16265067  0.37414328  0.70223830  1
  H+  H76  1  0.47156998  0.36644544  0.82953614  1
  H+  H77  1  0.88197294  0.28550399  0.68140548  1
  H+  H78  1  0.87528320  0.83946692  0.59150572  1
  H+  H79  1  0.57037583  0.39707062  0.17653676  1
  H+  H80  1  0.13761474  0.36121869  0.99255216  1
  H+  H81  1  0.77579000  0.15441337  0.67084057  1
  H+  H82  1  0.88284613  0.52117849  0.31967730  1
  H+  H83  1  0.53509868  0.12975347  0.34956212  1
  H+  H84  1  0.01472853  0.38808825  0.83054504  1
  H+  H85  1  0.61360271  0.63888714  0.67043190  1
  H+  H86  1  0.91148241  0.58412124  0.26044112  1
  H+  H87  1  0.09958436  0.21647596  0.82923830  1
  H+  H88  1  0.61577542  0.96162373  0.80037665  1
  H+  H89  1  0.34252262  0.90763403  0.67795277  1
  H+  H90  1  0.08127403  0.16705500  0.73372439  1
  H+  H91  1  0.39136125  0.27652560  -0.00660750  1
  H+  H92  1  0.87094564  0.13357231  0.49639826  1
  H+  H93  1  0.12945606  0.64601289  0.81797324  1
  H+  H94  1  0.16197671  0.61738891  0.49825784  1
  H+  H95  1  0.48474554  0.36871417  0.32383578  1
  H+  H96  1  0.61028493  0.37837629  1.00293265  1
  H+  H97  1  0.61040803  0.50792721  0.33494253  1
  H+  H98  1  0.07062812  0.87867483  0.66153881  1
  H+  H99  1  0.02663215  0.39223305  -0.00859964  1
  H+  H100  1  0.64515638  0.79686551  0.52604382  1
  H+  H101  1  0.12481589  0.63471629  0.16993732  1
  H+  H102  1  0.84835628  0.23345924  0.14389999  1
  H+  H103  1  0.86236794  0.51956097  0.66192873  1
  H+  H104  1  0.28506303  0.38580061  0.34236670  1
  H+  H105  1  0.49118342  0.62586000  0.66469497  1
  H+  H106  1  0.60608712  0.72579504  0.68316117  1
  H+  H107  1  0.74000480  0.11756366  0.32349954  1
  H+  H108  1  0.24448791  0.10301990  0.81987202  1
  H+  H109  1  0.86007690  0.21569394  0.35246693  1
  H+  H110  1  0.87093174  0.97517784  0.35718930  1
  H+  H111  1  0.86138279  0.12635389  0.34157497  1
  H+  H112  1  0.11309696  0.38548380  0.49650209  1
  H+  H113  1  0.77715814  0.40819473  0.15833529  1
  H+  H114  1  0.08446025  0.42656141  0.08265989  1
  H+  H115  1  0.71844004  0.11845508  0.16615433  1
  H+  H116  1  0.70620854  0.61878437  0.50870877  1
  H+  H117  1  0.39043321  0.76246434  0.98293391  1
  H+  H118  1  0.74393366  0.87834512  0.69038218  1
  H+  H119  1  0.71952527  0.62701490  0.32328091  1
  H+  H120  1  0.28980483  0.62984797  0.52131576  1
  H+  H121  1  0.88947810  0.27616229  -0.01569458  1
  H+  H122  1  0.20758949  0.35156779  0.84580138  1
  H+  H123  1  0.11990129  0.38505359  0.35010322  1
  H+  H124  1  0.14893629  0.82814374  0.71956349  1
  H+  H125  1  0.39032263  0.84850335  0.96967601  1
  H+  H126  1  0.51341095  0.39350208  0.49147420  1
  H+  H127  1  0.73720643  0.63446022  0.17266220  1
  H+  H128  1  0.64696243  0.52136016  0.81944937  1
  H+  H129  1  0.98080625  0.11814770  0.33285277  1
  H+  H130  1  0.23822787  0.37276300  0.49489565  1
  H+  H131  1  0.76304030  0.87224509  0.82658141  1
  H+  H132  1  0.14298168  0.27470114  0.33825040  1
  H+  H133  1  0.89261915  0.13007692  0.65357169  1
  H+  H134  1  0.86331418  0.60250258  0.98031249  1
  H+  H135  1  0.42887289  1.04578823  0.67266014  1
  H+  H136  1  0.83422952  0.63296813  0.49648223  1
  H+  H137  1  0.03239618  0.39424792  0.68555189  1
  H+  H138  1  0.16424365  0.84029085  0.86951794  1
  H+  H139  1  0.83446656  0.87507194  0.67297478  1
  H+  H140  1  0.22524298  0.11608140  0.32747309  1
  H+  H141  1  0.12543115  -0.00266059  0.49263251  1
  H+  H142  1  0.36087835  0.63380562  0.35115808  1
  H+  H143  1  0.90940394  0.35674464  0.73094466  1
  H+  H144  1  0.00084882  0.90012202  0.34866499  1
  H+  H145  1  0.37777150  0.52115303  0.18776971  1
  H+  H146  1  0.09867642  0.12595130  0.82413538  1
  H+  H147  1  0.86336573  0.14897406  -0.00489644  1
  H+  H148  1  0.39767870  0.53145653  0.66057353  1
  H+  H149  1  0.13694358  0.50887906  0.33085802  1
  H+  H150  1  0.24853848  0.12314567  0.15937590  1
  H+  H151  1  0.62354014  0.96214466  0.00631502  1
  H+  H152  1  0.10414047  0.68019476  0.29659254  1
  H+  H153  1  0.86644903  0.77860088  0.64897844  1
  H+  H154  1  0.38272295  0.84863271  0.19525963  1
  H+  H155  1  0.46632946  0.11430173  0.18566553  1
  H+  H156  1  0.86095806  0.38643251  0.34816362  1
  H+  H157  1  0.52863496  0.87269080  0.80763486  1
  H+  H158  1  0.14812658  0.77352359  0.81549981  1
  H+  H159  1  0.11149912  0.00395851  0.82461019  1
  H+  H160  1  0.65557921  0.86761345  0.34560696  1
  H+  H161  1  0.89230035  0.14272618  0.17419541  1
  H+  H162  1  0.64733255  0.38449747  0.16098799  1
  H+  H163  1  0.86930980  0.35527912  0.83099088  1
  H+  H164  1  0.27300181  0.13946912  1.01273943  1
  H+  H165  1  0.36095561  0.63224694  0.16265351  1
  H+  H166  1  0.63255818  0.85932856  0.60140045  1
  H+  H167  1  0.62592705  0.14246293  0.50756645  1
  H+  H168  1  0.87471774  0.74703270  0.17320483  1
  H+  H169  1  0.27987480  0.38855834  0.00246867  1
  H+  H170  1  0.13283713  0.61058540  0.98895437  1
  H+  H171  1  0.61571136  -0.01695719  0.49487709  1
  H+  H172  1  0.15999952  0.56525065  0.23301965  1
  H+  H173  1  0.97957559  0.63045036  0.16749095  1
  H+  H174  1  1.02261309  0.38598944  0.49056128  1
  H+  H175  1  0.37465972  0.51124035  0.83328470  1
  H+  H176  1  0.10374150  0.87923870  0.80236924  1
  H+  H177  1  0.63748762  0.87950391  0.51424321  1
  H+  H178  1  0.11000427  0.12819501  -0.00207687  1
  H+  H179  1  0.38104205  0.60614336  0.98633461  1
  H+  H180  1  0.86397868  0.64977236  0.65990662  1
  H+  H181  1  0.60622254  0.37630951  0.81731876  1
  H+  H182  1  0.38790565  0.75988900  0.34376239  1
  H+  H183  1  0.36450362  0.25144199  0.17179958  1
  H+  H184  1  0.50049826  0.12430475  0.00821219  1
  H+  H185  1  0.48069604  0.36363215  0.99225025  1
  H+  H186  1  0.36646958  0.13245717  0.34692993  1
  H+  H187  1  0.02009900  0.39110893  0.13831890  1
  H+  H188  1  0.59769528  -0.01800002  1.01704929  1
  H+  H189  1  0.30791491  0.88487176  0.33584045  1
  H+  H190  1  0.38052368  0.51539836  0.98441131  1
  H+  H191  1  0.38085708  0.02419853  0.19648457  1
  H+  H192  1  0.09067134  0.66261462  0.75624143  1
  H+  H193  1  0.86063906  0.67304635  0.75997528  1
  H+  H194  1  0.79570694  0.63540717  0.81318373  1
  H+  H195  1  0.08141309  0.15247106  0.06124286  1
  H+  H196  1  0.27680884  0.88108285  0.00469627  1
  H+  H197  1  0.88721346  0.59230383  0.83229574  1
  H+  H198  1  0.12383783  0.23187228  0.48956863  1
  H+  H199  1  0.71265991  0.34719865  0.83123235  1
  H+  H200  1  0.14067630  0.35703233  0.12271263  1
  H+  H201  1  0.62896268  0.35199083  0.60941910  1
  H+  H202  1  0.60584138  0.21913491  0.80352981  1
  H+  H203  1  0.38523920  0.27340180  0.50615381  1
  H+  H204  1  0.88016611  0.86731707  0.33919979  1
  H+  H205  1  1.02942844  0.13515440  0.15029946  1
  H+  H206  1  0.15828753  0.70968108  0.12361748  1
  H+  H207  1  0.76332132  0.65120869  0.02053479  1
  H+  H208  1  0.26428026  0.88301753  0.19290884  1
  H+  H209  1  0.17142317  0.59059990  0.92959336  1
  H+  H210  1  0.51055073  0.62193425  -0.01577822  1
  H+  H211  1  0.92154991  0.09122540  0.27416232  1
  H+  H212  1  0.17541879  0.33915356  0.28229660  1
  H+  H213  1  0.52444373  0.88061006  0.18319888  1
  H+  H214  1  0.74137663  0.11016161  0.51407965  1
  H+  H215  1  0.48918013  0.62020437  0.49135075  1
  H+  H216  1  0.48795217  0.11654689  0.51594666  1
  H+  H217  1  0.54130724  0.38899156  0.65778956  1
  H+  H218  1  0.62272458  0.52740396  0.51299529  1
  H+  H219  1  0.29781110  0.40226228  0.68322586  1
  H+  H220  1  0.63935915  0.60409971  -0.01681987  1
  H+  H221  1  0.81736243  0.90223165  0.74866030  1
  H+  H222  1  0.23783569  0.11745379  0.50650701  1
  H+  H223  1  0.91792990  0.57534153  0.50660915  1
  H+  H224  1  0.83684897  0.69153823  0.11127264  1
  H+  H225  1  0.37813108  0.88463688  0.83055054  1
  H+  H226  1  0.14418203  0.27049876  0.12297425  1
  H+  H227  1  -0.01770699  0.13445176  0.65695914  1
  H+  H228  1  0.08898593  0.89966693  0.34813405  1
  H+  H229  1  0.86406894  0.50019320  0.14967695  1
  H+  H230  1  0.64557414  0.31043939  0.88639249  1
  H+  H231  1  0.51816855  0.62462792  0.82894852  1
  H+  H232  1  0.13070518  0.03510598  0.32872679  1
  H+  H233  1  0.62659660  0.11451155  0.17306940  1
  H+  H234  1  0.18465672  0.86542009  0.35436085  1
  H+  H235  1  0.90827570  0.75047439  -0.00278795  1
  H+  H236  1  0.36929114  0.39100973  -0.00252181  1
  H+  H237  1  0.11166146  0.89837576  0.16307089  1
  H+  H238  1  0.16155639  0.28491247  0.69554688  1
  H+  H239  1  0.39221175  0.76854972  0.82817289  1
  H+  H240  1  0.10074952  0.38201950  0.83663808  1
  H+  H241  1  0.77919245  0.88637795  0.36110566  1
  H+  H242  1  0.10256235  0.77695927  0.33810444  1
  H+  H243  1  0.61886190  0.86012266  0.72874825  1
  H+  H244  1  0.42507848  0.08601863  0.28212091  1
  H+  H245  1  0.84118521  0.76931631  0.50161992  1
  H+  H246  1  0.88086029  0.38290478  0.15093906  1
  H+  H247  1  0.51774804  0.77255524  0.06050133  1
  H+  H248  1  0.88942490  0.86022157  0.85919346  1
  H+  H249  1  0.77588393  0.65002886  0.66634071  1
  H+  H250  1  0.59801331  0.16689213  0.44611616  1
  H+  H251  1  0.28307861  0.89360004  0.49227110  1
  H+  H252  1  0.43628300  0.34574755  0.15315494  1
  H+  H253  1  0.39690806  0.52213613  0.49103740  1
  H+  H254  1  0.88378079  0.26701626  0.48942233  1
  H+  H255  1  0.65337367  0.87414278  0.19989324  1
  H+  H256  1  0.37289187  1.02429870  -0.01382455  1
  H+  H257  1  0.86103888  0.73300574  0.34225433  1
  H+  H258  1  0.74177681  0.39177226  0.67411503  1
  H+  H259  1  0.36613164  0.39061133  0.49157006  1
  H+  H260  1  0.11801678  0.14593909  0.33922361  1
  H+  H261  1  0.27197590  0.63158581  0.16110503  1
  H+  H262  1  0.36831749  0.22168279  0.34289751  1
  H+  H263  1  0.61215825  0.25442313  -0.01179612  1
  H+  H264  1  0.34243575  0.37905434  0.18953276  1
  H+  H265  1  0.13956494  -0.00254895  0.98635421  1
  H+  H266  1  0.82952140  0.38518329  0.67507879  1
  H+  H267  1  0.14308803  0.52460204  0.66390722  1
  H+  H268  1  0.65060726  0.61044468  0.82592853  1
  H+  H269  1  0.85510128  0.64128814  0.33749393  1
  H+  H270  1  0.81759955  0.44197258  0.49959294  1
  H+  H271  1  0.11791711  0.90034335  0.48282611  1
  H+  H272  1  0.54647518  0.16309413  0.69685310  1
  H+  H273  1  0.77286459  0.14715766  0.98764257  1
  H+  H274  1  0.62177146  0.28055760  0.52449210  1
  H+  H275  1  0.64704917  0.14065514  0.68403834  1
  H+  H276  1  0.11388909  0.14581857  0.67170408  1
  H+  H277  1  0.41234410  0.16369731  0.69010134  1
  H+  H278  1  0.67332297  0.31319633  0.25505745  1
  H+  H279  1  0.39876297  0.02877115  0.51745482  1
  H+  H280  1  0.37297669  0.13930501  0.50004248  1
  H+  H281  1  0.40741534  0.37517564  0.65779494  1
  H+  H282  1  0.27418511  0.63558917  0.34657918  1
  H+  H283  1  0.39131665  0.86134838  0.51112969  1
  H+  H284  1  0.97352734  0.35476343  0.35278152  1
  H+  H285  1  0.62465244  0.21691257  0.34241673  1
  H+  H286  1  0.03314155  0.85959951  0.00545220  1
  H+  H287  1  0.41032448  0.28759158  0.66453120  1
  H+  H288  1  0.22214502  0.04412580  0.94613314  1
  H+  H289  1  0.81137100  0.40618966  0.43353326  1
  H+  H290  1  0.89504134  0.55387741  0.89560450  1
  H+  H291  1  0.60906516  0.97162223  0.17136628  1
  H+  H292  1  0.43142124  0.82484008  0.88785601  1
  H+  H293  1  0.80861095  0.40671004  0.76589152  1
  H+  H294  1  0.97735817  0.20069000  0.93978241  1
  H+  H295  1  0.87582221  0.89721122  0.44607091  1
  H+  H296  1  0.27426015  0.36598123  0.77453662  1
  H+  H297  1  0.09177367  0.42014478  0.40797143  1
  H+  H298  1  0.19339751  0.86116382  0.65739934  1
  H+  H299  1  0.41684453  0.33499462  0.56446635  1
  H+  H300  1  0.08273804  0.91580870  0.06848268  1
  H+  H301  1  0.82556695  0.14843143  0.43761871  1
  H+  H302  1  0.34121792  0.16461553  0.43842834  1
  H+  H303  1  0.11654149  0.12476118  0.14980421  1
  H+  H304  1  0.81390862  0.40072593  0.06040390  1
  H+  H305  1  0.09634810  0.27218223  0.22117668  1
  H+  H306  1  0.07573307  0.93576746  0.42655035  1
  H+  H307  1  0.57763836  0.71410717  0.13332890  1
  H+  H308  1  0.83533823  0.17025211  0.72801786  1
  H+  H309  1  0.94612139  0.80886434  0.93755290  1
  H+  H310  1  0.32911584  0.15441212  0.77286859  1
  H+  H311  1  0.63260845  0.43614594  0.35029333  1
  H+  H312  1  0.44339743  0.10033504  0.61196192  1
  H+  H313  1  0.39461020  0.61662048  0.51563918  1
  H+  H314  1  0.58907195  0.41223404  0.75659435  1
  H+  H315  1  0.08808340  0.17158217  0.40128069  1
  H+  H316  1  0.66262916  0.59240548  0.59862660  1
  H+  H317  1  0.28798041  0.88547002  0.82037930  1
  H+  H318  1  0.69460926  0.84299858  0.29062736  1
  H+  H319  1  0.35017072  0.92041387  0.43826672  1
  H+  H320  1  0.16983389  0.08716902  0.56282160  1
  H+  H321  1  0.19333277  0.44199407  0.60618362  1
  H+  H322  1  0.43004850  0.83710817  0.56863938  1
  H+  H323  1  0.33271757  0.66107173  0.76235927  1
  H+  H324  1  0.77604067  0.30356247  0.04853112  1
  H+  H325  1  0.87718883  0.56489042  0.57147210  1
  H+  H326  1  0.08852647  0.42712037  0.74452517  1
  H+  H327  1  0.91594263  0.84446232  0.27660328  1
  H+  H328  1  0.40900050  0.58843088  0.27587124  1
  H+  H329  1  0.37542944  0.11611802  0.99675613  1
  H+  H330  1  0.92296910  0.09210145  0.56446291  1
  H+  H331  1  0.05583995  0.90565968  0.75110847  1
  H+  H332  1  0.33304148  0.66283964  0.06558259  1
  H+  H333  1  0.57101760  0.65353501  0.04126501  1
  H+  H334  1  0.32757547  0.91167038  0.13767143  1
  H+  H335  1  0.14845211  0.83979863  0.24804466  1
  H+  H336  1  0.39126905  0.62302206  0.66152579  1
  H+  H337  1  0.58604629  0.11852593  0.01052502  1
  H+  H338  1  0.42119659  0.81719720  0.28249504  1
  H+  H339  1  0.37438358  0.44180134  0.72817052  1
  H+  H340  1  0.40514477  0.57168129  0.89222240  1
  H+  H341  1  0.36998260  0.91931184  0.03293118  1
  H+  H342  1  0.57575516  0.43442568  0.43426123  1
  H+  H343  1  0.57781684  0.65657941  0.77096416  1
  H+  H344  1  0.41666784  0.33706543  0.89018703  1
  H+  H345  1  0.82076814  0.16509224  0.09076394  1
  H+  H346  1  0.59404008  0.41129907  0.06612319  1
  H+  H347  1  0.91112739  0.08171716  0.88905084  1
  H+  H348  1  0.66393726  0.59825999  0.26267319  1
  H+  H349  1  0.50642749  0.84342028  0.64798426  1
  H+  H350  1  1.00032027  0.44095643  0.26100102  1
  H+  H351  1  0.16993450  0.57844548  0.60088899  1
  H+  H352  1  0.15936442  0.08540872  0.21853541  1
  H+  H353  1  0.68073562  0.83059406  0.92885471  1
  H+  H354  1  0.38201513  0.93412571  0.74336400  1
  H+  H355  1  0.56217326  0.16064727  0.10742170  1
  H+  H356  1  0.89042245  0.87267629  0.18151002  1
  H+  H357  1  0.08119216  0.30467884  0.21992568  1
  H+  H358  1  0.90640795  0.33092546  0.88937744  1
  H+  H359  1  0.81020095  0.75199405  0.03735065  1
  H+  H360  1  1.01245852  0.40694951  0.25609348  1
  H+  H361  1  0.81641823  0.66658474  0.43357717  1
  H+  H362  1  0.67005021  0.09784457  0.90392606  1
  H+  H363  1  0.76308251  0.84248304  0.00532488  1
  H+  H364  1  0.13326098  0.77604828  0.19180839  1
  H+  H365  1  0.42164074  0.32650926  0.26647469  1
  H+  H366  1  0.34444232  0.12775643  0.16659052  1
  H+  H367  1  0.05436761  0.63712385  0.06042920  1
  H+  H368  1  0.63645218  0.85328313  0.83305435  1
  H+  H369  1  0.14372587  0.05803542  0.88657572  1
  H+  H370  1  0.66519605  0.13383463  0.61570981  1
  H+  H371  1  0.44988371  0.23909658  0.73699347  1
  H+  H372  1  0.67514196  0.09619638  0.25848316  1
  H+  H373  1  0.82710819  0.89065558  0.10696664  1
  H+  H374  1  0.40036329  0.08170328  0.90191943  1
  H+  H375  1  0.57741362  0.83725851  0.11023183  1
  H+  H376  1  0.32728884  0.16266104  0.07458333  1
  H+  H377  1  0.15150018  0.82788936  0.54539568  1
  H+  H378  1  0.14362388  0.52120251  0.50626349  1
  H+  H379  1  0.10809225  0.67563115  0.41039126  1
  H+  H380  1  0.63282581  0.10095377  0.80546113  1
  H+  H381  1  0.95939985  0.59812268  0.65468785  1
  H+  H382  1  0.64749815  0.53648109  0.65894940  1
  H+  H383  1  0.24020833  0.47316643  0.60223823  1
  O2-  O384  1  0.08504314  0.15548002  0.13007283  1
  O2-  O385  1  0.09252954  0.17123397  0.47532190  1
  O2-  O386  1  0.06943572  0.15788052  0.81035000  1
  O2-  O387  1  0.08191294  0.42281476  0.12834531  1
  O2-  O388  1  0.08642039  0.41995467  0.48343157  1
  O2-  O389  1  0.07762719  0.41876452  0.82114603  1
  O2-  O390  1  0.11114452  0.67970885  0.15240904  1
  O2-  O391  1  0.11430437  0.67995721  0.45536316  1
  O2-  O392  1  0.11181342  0.68440956  0.79772640  1
  O2-  O393  1  0.08211282  0.92584067  0.14390808  1
  O2-  O394  1  0.09033837  0.93577382  0.47450012  1
  O2-  O395  1  0.06804627  0.90629575  0.79536780  1
  O2-  O396  1  0.31678997  0.15686713  0.14635313  1
  O2-  O397  1  0.33969969  0.16601688  0.48399701  1
  O2-  O398  1  0.30809100  0.12833477  0.81369625  1
  O2-  O399  1  0.31387672  0.41349892  0.18941271  1
  O2-  O400  1  0.33981908  0.42351409  0.47345198  1
  O2-  O401  1  0.31466565  0.39796222  0.80775441  1
  O2-  O402  1  0.33187201  0.66422698  0.14597955  1
  O2-  O403  1  0.35238477  0.65910001  0.53038105  1
  O2-  O404  1  0.33186453  0.66156230  0.80753616  1
  O2-  O405  1  0.32709212  0.91071730  0.18187086  1
  O2-  O406  1  0.34499536  0.92168963  0.48342815  1
  O2-  O407  1  0.35171433  0.92009082  0.81606226  1
  O2-  O408  1  0.56609929  0.16169757  0.15252712  1
  O2-  O409  1  0.59320189  0.16852644  0.49099392  1
  O2-  O410  1  0.57943966  0.16216601  0.78137763  1
  O2-  O411  1  0.61910519  0.41824585  0.14888951  1
  O2-  O412  1  0.57497299  0.42565323  0.47884326  1
  O2-  O413  1  0.57847257  0.40830625  0.80084138  1
  O2-  O414  1  0.57832210  0.68249232  0.17032773  1
  O2-  O415  1  0.58646545  0.69570476  0.47457016  1
  O2-  O416  1  0.57931619  0.65911700  0.81585751  1
  O2-  O417  1  0.58454432  0.90886873  0.16787017  1
  O2-  O418  1  0.58727490  0.92336952  0.47893267  1
  O2-  O419  1  0.58875228  0.89886699  0.79184670  1
  O2-  O420  1  0.82054843  0.17059335  0.13594623  1
  O2-  O421  1  0.83297914  0.15892973  0.48202483  1
  O2-  O422  1  0.83033390  0.16167553  0.80512688  1
  O2-  O423  1  0.83244173  0.43906175  0.13532187  1
  O2-  O424  1  0.80873072  0.39096541  0.47692571  1
  O2-  O425  1  0.81288475  0.39880580  0.81031625  1
  O2-  O426  1  0.84410797  0.68624201  0.15643969  1
  O2-  O427  1  0.81267285  0.66933500  0.47869775  1
  O2-  O428  1  0.85828541  0.66236236  0.80389437  1
  O2-  O429  1  0.83927564  0.91083476  0.14952830  1
  O2-  O430  1  0.91124612  0.89082305  0.47870226  1
  O2-  O431  1  0.82409302  0.90340168  0.80924197  1
  O2-  O432  1  0.16209068  0.08262225  0.17408236  1
  O2-  O433  1  0.17470497  0.08718272  0.51754239  1
  O2-  O434  1  0.14358338  0.06409602  0.84171205  1
  O2-  O435  1  0.17739274  0.33254115  0.11297501  1
  O2-  O436  1  0.17693437  0.33953479  0.51057979  1
  O2-  O437  1  0.14671028  0.31981117  0.85872145  1
  O2-  O438  1  0.16029588  0.57389889  0.18810998  1
  O2-  O439  1  0.17902132  0.58184420  0.52169253  1
  O2-  O440  1  0.16937216  0.58761162  0.85374980  1
  O2-  O441  1  0.15972850  0.83731141  0.20418864  1
  O2-  O442  1  0.16203301  0.83835542  0.50190459  1
  O2-  O443  1  0.17445565  0.83948277  0.82603887  1
  O2-  O444  1  0.40887001  0.08623362  0.20616911  1
  O2-  O445  1  0.42799154  0.08897546  0.53250336  1
  O2-  O446  1  0.39573198  0.07448897  0.85616536  1
  O2-  O447  1  0.39994063  0.31353147  0.18718276  1
  O2-  O448  1  0.41071258  0.33448973  0.51933342  1
  O2-  O449  1  0.41175417  0.33733995  0.84537988  1
  O2-  O450  1  0.40696705  0.58501259  0.19440191  1
  O2-  O451  1  0.43017047  0.58247659  0.50913666  1
  O2-  O452  1  0.40750707  0.57196481  0.84624992  1
  O2-  O453  1  0.41522995  0.81895147  0.20365591  1
  O2-  O454  1  0.42390527  0.83253917  0.52351907  1
  O2-  O455  1  0.42763108  0.82949151  0.84221231  1
  O2-  O456  1  0.66188056  0.08907495  0.18788923  1
  O2-  O457  1  0.68108869  0.08055412  0.53253451  1
  O2-  O458  1  0.66005772  0.07087577  0.82525473  1
  O2-  O459  1  0.68336782  0.31887238  0.19094166  1
  O2-  O460  1  0.63088503  0.33428088  0.54303023  1
  O2-  O461  1  0.64912842  0.31311549  0.84140196  1
  O2-  O462  1  0.67371539  0.60049764  0.18022506  1
  O2-  O463  1  0.65059441  0.58635448  0.53033363  1
  O2-  O464  1  0.68665011  0.58369525  0.82391909  1
  O2-  O465  1  0.68756524  0.84679259  0.21163470  1
  O2-  O466  1  0.66220781  0.85375155  0.54289612  1
  O2-  O467  1  0.66791359  0.82492237  0.84963159  1
  O2-  O468  1  0.93859001  0.13981372  0.19716501  1
  O2-  O469  1  0.92057731  0.09099875  0.51878218  1
  O2-  O470  1  0.90413884  0.06961808  0.84474636  1
  O2-  O471  1  0.90466388  0.34381314  0.16070184  1
  O2-  O472  1  0.91585817  0.33082783  0.48282470  1
  O2-  O473  1  0.90510588  0.32850655  0.84407144  1
  O2-  O474  1  0.92016198  0.59977529  0.18205957  1
  O2-  O475  1  0.86329190  0.55806966  0.52627455  1
  O2-  O476  1  0.90148783  0.55007142  0.85113545  1
  O2-  O477  1  0.92344448  0.84512424  0.20018904  1
  O2-  O478  1  0.84653248  0.82423485  0.51796934  1
  O2-  O479  1  0.94109536  0.86948448  0.88070765  1
  O2-  O480  1  0.16611846  0.09360689  0.31153681  1
  O2-  O481  1  0.15252151  0.07877224  0.63997552  1
  O2-  O482  1  0.17679192  0.05280922  0.96285576  1
  O2-  O483  1  0.17672596  0.33824646  0.32662853  1
  O2-  O484  1  0.19951551  0.34774303  0.70548928  1
  O2-  O485  1  0.16541006  0.32927934  0.97623318  1
  O2-  O486  1  0.16250439  0.56812574  0.31173073  1
  O2-  O487  1  0.17161038  0.58398798  0.64606589  1
  O2-  O488  1  0.16949818  0.58696231  0.97533364  1
  O2-  O489  1  0.13399921  0.83980035  0.32829735  1
  O2-  O490  1  0.13733181  0.82478880  0.67580030  1
  O2-  O491  1  0.17384743  0.82760459  1.02687046  1
  O2-  O492  1  0.43015943  0.08492817  0.32760023  1
  O2-  O493  1  0.44930001  0.10492705  0.65724864  1
  O2-  O494  1  0.40402972  0.08661946  0.97555384  1
  O2-  O495  1  0.42405024  0.32848778  0.31158016  1
  O2-  O496  1  0.43406389  0.34240047  0.64131468  1
  O2-  O497  1  0.42167665  0.33414889  0.97457306  1
  O2-  O498  1  0.41091022  0.58832108  0.32093294  1
  O2-  O499  1  0.42699598  0.59469700  0.64831114  1
  O2-  O500  1  0.40895170  0.57651769  0.96662528  1
  O2-  O501  1  0.42358675  0.82174245  0.32762861  1
  O2-  O502  1  0.44410996  0.82800710  0.64613060  1
  O2-  O503  1  0.42342329  0.81945337  0.96260516  1
  O2-  O504  1  0.67893655  0.09547783  0.30501677  1
  O2-  O505  1  0.67048893  0.11369545  0.65573028  1
  O2-  O506  1  0.67842192  0.12433360  0.94540008  1
  O2-  O507  1  0.66756017  0.31058968  0.30443861  1
  O2-  O508  1  0.63361134  0.35919139  0.65673921  1
  O2-  O509  1  0.64541807  0.31165526  0.96851514  1
  O2-  O510  1  0.65985299  0.59667838  0.30757839  1
  O2-  O511  1  0.66803874  0.59609267  0.64569758  1
  O2-  O512  1  0.68163081  0.58414491  0.98463107  1
  O2-  O513  1  0.69169451  0.84073963  0.33565914  1
  O2-  O514  1  0.60943262  0.87250511  0.64297300  1
  O2-  O515  1  0.68045974  0.82484661  0.97363044  1
  O2-  O516  1  0.91961608  0.08462362  0.31892100  1
  O2-  O517  1  0.92376550  0.10037992  0.64031802  1
  O2-  O518  1  0.94632905  0.14349994  0.95783119  1
  O2-  O519  1  0.91090636  0.32426591  0.36208620  1
  O2-  O520  1  0.91040897  0.35023182  0.68700783  1
  O2-  O521  1  0.91947699  0.33615189  0.96799990  1
  O2-  O522  1  0.91457876  0.58290329  0.30582577  1
  O2-  O523  1  0.89875526  0.57747692  0.64251037  1
  O2-  O524  1  0.88772830  0.56501827  0.97626237  1
  O2-  O525  1  0.91414948  0.83973335  0.32219191  1
  O2-  O526  1  0.88577529  0.84030383  0.63668752  1
  O2-  O527  1  0.96182809  0.78479414  0.97310862  1
  O2-  O528  1  0.08219249  0.15846653  0.01443314  1
  O2-  O529  1  0.08722694  0.17565662  0.35552658  1
  O2-  O530  1  0.09227159  0.18195831  0.68954028  1
  O2-  O531  1  0.08640843  0.42039902  0.00758440  1
  O2-  O532  1  0.08835517  0.41543044  0.36238521  1
  O2-  O533  1  0.09318972  0.42477448  0.69913684  1
  O2-  O534  1  0.06322708  0.64925536  0.01688859  1
  O2-  O535  1  0.07260358  0.67006946  0.33470722  1
  O2-  O536  1  0.06657125  0.64501041  0.67721014  1
  O2-  O537  1  0.09072086  0.90830980  0.02382162  1
  O2-  O538  1  0.06434043  0.93449280  0.36411933  1
  O2-  O539  1  0.04754694  0.91629574  0.67269871  1
  O2-  O540  1  0.33231897  0.16737405  0.02814678  1
  O2-  O541  1  0.33494614  0.16238723  0.35978340  1
  O2-  O542  1  0.39833911  0.20411178  0.71272618  1
  O2-  O543  1  0.34174353  0.42398455  0.01163120  1
  O2-  O544  1  0.34594251  0.41496064  0.35628128  1
  O2-  O545  1  0.36329216  0.43726081  0.68397122  1
  O2-  O546  1  0.33400075  0.66292393  0.02016806  1
  O2-  O547  1  0.33086541  0.66529300  0.36621904  1
  O2-  O548  1  0.34005682  0.66444543  0.68209377  1
  O2-  O549  1  0.34007764  0.91714040  -0.00458665  1
  O2-  O550  1  0.36017435  0.91410872  0.35998654  1
  O2-  O551  1  0.39727070  0.94112779  0.69871721  1
  O2-  O552  1  0.55981436  0.15120028  0.02632653  1
  O2-  O553  1  0.59745670  0.15821157  0.36150952  1
  O2-  O554  1  0.60321755  0.19245422  0.71834965  1
  O2-  O555  1  0.58562834  0.41169669  0.02173443  1
  O2-  O556  1  0.58434227  0.44623099  0.35341765  1
  O2-  O557  1  0.60253692  0.41886328  0.67264401  1
  O2-  O558  1  0.57297066  0.65087128  -0.00281152  1
  O2-  O559  1  0.61751919  0.69001193  0.42444319  1
  O2-  O560  1  0.57691419  0.66256669  0.68828394  1
  O2-  O561  1  0.56603220  0.78532228  0.08688208  1
  O2-  O562  1  0.59804501  0.91445481  0.35579453  1
  O2-  O563  1  0.63744266  0.83806678  0.69292006  1
  O2-  O564  1  0.82725306  0.17206945  0.01167669  1
  O2-  O565  1  0.82453327  0.15140195  0.35516081  1
  O2-  O566  1  0.83753971  0.18157760  0.68344018  1
  O2-  O567  1  0.79760746  0.35789141  0.02691802  1
  O2-  O568  1  0.83053961  0.42015792  0.34885796  1
  O2-  O569  1  0.80286789  0.41949103  0.68759704  1
  O2-  O570  1  0.81725318  0.70026327  0.04026460  1
  O2-  O571  1  0.82684477  0.67124425  0.35496728  1
  O2-  O572  1  0.83888349  0.68487667  0.67476165  1
  O2-  O573  1  0.81583541  0.84964817  0.02949708  1
  O2-  O574  1  0.84399432  0.91669499  0.37423118  1
  O2-  O575  1  0.80696817  0.90252588  0.69896581  1
