# generated using pymatgen
data_H2O
_symmetry_space_group_name_H-M   'P 1'
_cell_length_a   17.98055332
_cell_length_b   17.98888290
_cell_length_c   22.00773890
_cell_angle_alpha   89.98718781
_cell_angle_beta   89.98245335
_cell_angle_gamma   119.98977611
_symmetry_Int_Tables_number   1
_chemical_formula_structural   H2O
_chemical_formula_sum   'H384 O192'
_cell_volume   6165.35339415
_cell_formula_units_Z   192
loop_
 _symmetry_equiv_pos_site_id
 _symmetry_equiv_pos_as_xyz
  1  'x, y, z'
loop_
 _atom_type_symbol
 _atom_type_oxidation_number
  H+  1.0
  O2-  -2.0
loop_
 _atom_site_type_symbol
 _atom_site_label
 _atom_site_symmetry_multiplicity
 _atom_site_fract_x
 _atom_site_fract_y
 _atom_site_fract_z
 _atom_site_occupancy
  H+  H0  1  0.87816221  0.10690778  0.32785606  1
  H+  H1  1  0.10729519  0.50185342  0.03150338  1
  H+  H2  1  0.87055524  0.22923015  0.15632169  1
  H+  H3  1  0.76243091  0.36894958  0.82486244  1
  H+  H4  1  0.57327037  0.42268629  0.14808453  1
  H+  H5  1  0.17228237  0.54577495  0.56587088  1
  H+  H6  1  0.86880215  0.85156254  0.99971764  1
  H+  H7  1  0.77404176  0.15432111  0.16201206  1
  H+  H8  1  0.49632956  0.72560107  0.09036006  1
  H+  H9  1  0.60830288  0.64406889  0.66501232  1
  H+  H10  1  0.39932332  0.12152390  0.31847995  1
  H+  H11  1  0.47158433  0.34881509  1.01150121  1
  H+  H12  1  0.33251712  0.55761935  0.64172038  1
  H+  H13  1  0.64355035  0.73720540  0.17598645  1
  H+  H14  1  -0.02316900  0.86498799  0.65732757  1
  H+  H15  1  0.71999352  0.85722497  0.99957902  1
  H+  H16  1  0.86218171  0.22265492  0.01205036  1
  H+  H17  1  0.88484320  0.11136271  -0.00171168  1
  H+  H18  1  0.20820031  0.34985554  0.16756707  1
  H+  H19  1  0.63252637  0.49856710  0.49872965  1
  H+  H20  1  0.13636706  0.27471566  0.82840234  1
  H+  H21  1  0.43745109  0.30630775  0.16986970  1
  H+  H22  1  0.39638362  0.78432172  0.84681463  1
  H+  H23  1  0.77975115  0.14509407  0.84050162  1
  H+  H24  1  0.50209093  0.08910152  0.12036770  1
  H+  H25  1  0.38983358  0.12096137  0.98775838  1
  H+  H26  1  0.22452586  0.61950584  0.33177067  1
  H+  H27  1  0.21895146  0.35369255  -0.02310182  1
  H+  H28  1  0.42974582  0.08981181  0.25920014  1
  H+  H29  1  0.52965345  0.89302806  0.83177568  1
  H+  H30  1  0.70645258  0.85476271  0.64531411  1
  H+  H31  1  0.64083452  0.85668340  0.18181217  1
  H+  H32  1  0.51667244  0.12837326  0.82681034  1
  H+  H33  1  0.25384890  0.08926562  0.13554777  1
  H+  H34  1  0.37250262  0.53141739  0.13897388  1
  H+  H35  1  0.28226634  0.40654114  0.34267902  1
  H+  H36  1  0.77312533  0.64597350  0.35712615  1
  H+  H37  1  0.22061853  0.10631026  0.66432103  1
  H+  H38  1  0.53025950  0.39141617  0.35433901  1
  H+  H39  1  -0.11018791  0.51124457  0.83851149  1
  H+  H40  1  0.39872729  0.60981009  0.50832721  1
  H+  H41  1  0.21802335  0.34729062  0.66553155  1
  H+  H42  1  0.22899871  0.10354626  0.98058294  1
  H+  H43  1  0.51308094  0.62972090  0.66768936  1
  H+  H44  1  0.22902650  0.61152980  0.83076549  1
  H+  H45  1  0.36752487  0.49868131  0.66430499  1
  H+  H46  1  0.13636420  0.24735544  0.51349089  1
  H+  H47  1  0.36454134  0.89415666  0.02347555  1
  H+  H48  1  0.48177444  0.36357702  0.68214648  1
  H+  H49  1  0.37551733  0.23505757  0.48983324  1
  H+  H50  1  0.56957850  0.42941445  0.62548639  1
  H+  H51  1  0.66584665  0.59607739  0.29793369  1
  H+  H52  1  0.27567472  0.88474654  0.82981677  1
  H+  H53  1  0.90847127  0.08505401  0.57108179  1
  H+  H54  1  0.64400249  0.54608901  0.65676375  1
  H+  H55  1  0.78760954  0.38183789  0.16637117  1
  H+  H56  1  0.89806919  0.36280676  0.16492933  1
  H+  H57  1  0.10867108  0.11412325  0.36284508  1
  H+  H58  1  0.97789022  0.62629327  0.33511516  1
  H+  H59  1  0.57533116  0.90565985  0.10115559  1
  H+  H60  1  0.63377793  0.09914295  0.65088734  1
  H+  H61  1  0.99418300  0.91889967  0.84573888  1
  H+  H62  1  0.36504381  0.64289701  0.35066513  1
  H+  H63  1  0.89744812  0.60917868  0.18111601  1
  H+  H64  1  0.59614808  0.64020392  0.19773894  1
  H+  H65  1  0.36289337  0.89606553  0.67491845  1
  H+  H66  1  0.38246344  1.01963121  0.84163478  1
  H+  H67  1  0.52260369  0.68081816  0.14007826  1
  H+  H68  1  0.61434302  0.87625415  0.67386998  1
  H+  H69  1  0.15723686  0.00022173  0.34646516  1
  H+  H70  1  0.12574366  0.38651597  0.10859729  1
  H+  H71  1  0.72528866  0.85664115  0.84224732  1
  H+  H72  1  0.13581503  0.87121048  0.65149357  1
  H+  H73  1  0.61632078  0.88677233  0.83099711  1
  H+  H74  1  0.67590659  0.54057238  0.11599034  1
  H+  H75  1  0.64346036  0.78265270  0.34606822  1
  H+  H76  1  0.53780023  0.63203655  0.50878708  1
  H+  H77  1  0.14946328  0.95489330  0.49837250  1
  H+  H78  1  0.64278667  0.11380404  0.84107091  1
  H+  H79  1  0.68374477  0.60721133  0.59760652  1
  H+  H80  1  -0.00392634  0.13478787  0.84538787  1
  H+  H81  1  0.47715053  0.61322674  0.84085498  1
  H+  H82  1  0.65154895  0.32432787  0.69338682  1
  H+  H83  1  0.63541558  0.40569529  0.66764681  1
  H+  H84  1  0.07093746  0.68234374  0.43187088  1
  H+  H85  1  0.77549435  0.65018695  0.45502144  1
  H+  H86  1  0.88065213  0.60249502  0.98901449  1
  H+  H87  1  0.85165926  0.63901207  0.66595109  1
  H+  H88  1  0.11444720  0.20015996  0.14736270  1
  H+  H89  1  0.14390401  1.10953835  -0.02542567  1
  H+  H90  1  0.16315496  0.85659288  0.55573596  1
  H+  H91  1  0.85380958  0.87219204  0.65453333  1
  H+  H92  1  0.36948633  0.59984204  0.99357834  1
  H+  H93  1  0.40949164  0.67765385  0.68659288  1
  H+  H94  1  0.61873994  0.23246654  0.34451673  1
  H+  H95  1  0.90442368  1.05199760  0.83809470  1
  H+  H96  1  1.01989966  0.13070456  0.99591982  1
  H+  H97  1  0.53036459  0.89872615  0.67820815  1
  H+  H98  1  0.13006247  0.85557838  0.17698832  1
  H+  H99  1  0.38028587  0.87480341  0.51080601  1
  H+  H100  1  0.52915408  0.14300732  0.33685602  1
  H+  H101  1  0.60547242  0.96549625  0.15962213  1
  H+  H102  1  0.72422836  0.10773394  0.99992951  1
  H+  H103  1  0.38634237  0.52583942  0.83936061  1
  H+  H104  1  0.51339068  0.89870730  0.49198057  1
  H+  H105  1  0.27525862  0.64450142  0.16485894  1
  H+  H106  1  0.99530882  0.37292065  0.49177216  1
  H+  H107  1  0.35269423  0.46933034  0.49862403  1
  H+  H108  1  0.77314177  0.41015437  0.67145007  1
  H+  H109  1  0.27184060  0.87821485  0.02148747  1
  H+  H110  1  0.90103844  0.95222865  0.78912899  1
  H+  H111  1  0.12892891  0.34880697  0.65762556  1
  H+  H112  1  0.22832311  0.87634874  0.65057881  1
  H+  H113  1  0.18230223  0.99913079  0.80132804  1
  H+  H114  1  0.11185447  0.30726565  0.19326241  1
  H+  H115  1  1.02931022  0.12752823  0.35151768  1
  H+  H116  1  0.12852641  0.36168377  0.82856587  1
  H+  H117  1  0.37706040  0.10932805  0.66922875  1
  H+  H118  1  0.83533869  0.76015034  0.51628224  1
  H+  H119  1  0.73262696  0.36838859  0.33496503  1
  H+  H120  1  0.35552374  0.98003616  0.67532453  1
  H+  H121  1  0.87413210  0.97637384  0.16189258  1
  H+  H122  1  0.61358737  -0.01849038  0.33098535  1
  H+  H123  1  0.11609287  0.73894678  0.34400164  1
  H+  H124  1  0.74716207  0.12544399  0.65231950  1
  H+  H125  1  0.09375931  0.10564691  0.14012115  1
  H+  H126  1  0.21937462  0.85950331  0.18769022  1
  H+  H127  1  0.63058542  0.12595788  0.15222115  1
  H+  H128  1  0.39735353  0.12340350  0.50625569  1
  H+  H129  1  0.67889062  0.32911989  0.23844954  1
  H+  H130  1  0.60231248  0.11416553  1.02044293  1
  H+  H131  1  0.39204464  0.87184536  0.32295897  1
  H+  H132  1  0.37181087  0.64582676  0.83714896  1
  H+  H133  1  0.34814641  0.72078308  0.00045365  1
  H+  H134  1  0.89091757  0.68869867  0.10513594  1
  H+  H135  1  0.13893278  0.60904515  0.82779302  1
  H+  H136  1  -0.01664629  0.60662023  0.18506485  1
  H+  H137  1  1.02987873  0.38957917  0.33352128  1
  H+  H138  1  0.85823202  0.35494683  0.50942678  1
  H+  H139  1  0.34793680  0.17302889  0.43240838  1
  H+  H140  1  0.38143808  0.76987594  0.17810465  1
  H+  H141  1  0.87812059  0.15092890  0.84082192  1
  H+  H142  1  0.50921574  0.11375765  0.67118380  1
  H+  H143  1  0.39507049  0.87269843  0.84142896  1
  H+  H144  1  0.61510504  0.89316986  0.33977644  1
  H+  H145  1  0.09604224  0.61479383  0.02183299  1
  H+  H146  1  0.85606147  0.13345500  0.49113824  1
  H+  H147  1  0.07873663  0.65133455  0.65790421  1
  H+  H148  1  0.14357203  0.09211464  0.50626878  1
  H+  H149  1  0.80420211  0.64796146  0.13970655  1
  H+  H150  1  0.01602023  0.62969201  0.01304274  1
  H+  H151  1  0.33793909  0.17893246  0.14142320  1
  H+  H152  1  0.36388085  0.73067743  0.34285415  1
  H+  H153  1  0.12451862  0.25621019  -0.02055628  1
  H+  H154  1  0.36052099  0.38537799  0.49048850  1
  H+  H155  1  0.38782241  0.01111143  0.17546423  1
  H+  H156  1  0.09959974  0.96197013  -0.00264946  1
  H+  H157  1  0.75287061  0.38106708  0.51134785  1
  H+  H158  1  0.39532298  0.53172121  0.35129276  1
  H+  H159  1  0.13947718  0.52863777  0.17293975  1
  H+  H160  1  0.15545865  0.38968509  0.33252698  1
  H+  H161  1  0.91635891  0.08628339  0.93768937  1
  H+  H162  1  0.41092760  0.80364330  0.66681417  1
  H+  H163  1  0.12279524  0.88476671  0.39854290  1
  H+  H164  1  0.59883695  0.68213985  0.42591704  1
  H+  H165  1  0.11483168  0.47774911  0.81357646  1
  H+  H166  1  0.77321908  0.13366827  0.32928018  1
  H+  H167  1  0.18883268  0.65041785  0.67613530  1
  H+  H168  1  0.87277591  1.00942143  0.66399799  1
  H+  H169  1  0.89065207  0.34722319  0.30004827  1
  H+  H170  1  0.02344500  0.63367871  0.82263483  1
  H+  H171  1  0.88841721  0.89586366  0.16070802  1
  H+  H172  1  0.88688066  0.02693313  0.51212591  1
  H+  H173  1  0.62575569  1.01669084  0.49799339  1
  H+  H174  1  0.88477825  0.82616084  0.84605953  1
  H+  H175  1  0.26979821  0.39213567  0.82697076  1
  H+  H176  1  0.83029636  0.72656873  0.85025793  1
  H+  H177  1  0.10100654  0.21051173  0.67203806  1
  H+  H178  1  0.45283261  0.73287053  0.46868460  1
  H+  H179  1  0.88989592  0.77704006  0.34327049  1
  H+  H180  1  0.09723177  0.74925210  0.48899360  1
  H+  H181  1  0.84776478  0.71529391  0.00531528  1
  H+  H182  1  0.97055901  0.36144263  1.02622410  1
  H+  H183  1  0.89916434  0.77392047  0.18350051  1
  H+  H184  1  0.34867809  0.20578363  0.70583033  1
  H+  H185  1  0.67195280  0.62873792  0.11977785  1
  H+  H186  1  0.17479763  0.82410137  0.89950746  1
  H+  H187  1  0.63142681  0.37126676  0.52295763  1
  H+  H188  1  0.49303319  0.38596582  0.49849129  1
  H+  H189  1  0.38787218  0.09572822  0.16186323  1
  H+  H190  1  0.85380497  0.22611135  0.66176432  1
  H+  H191  1  0.63359584  0.64653857  0.50718708  1
  H+  H192  1  0.71865128  0.10725139  0.49567920  1
  H+  H193  1  0.16720032  0.31544086  0.57591310  1
  H+  H194  1  0.61497266  0.71240044  1.00434294  1
  H+  H195  1  0.85121058  0.61307241  0.82488313  1
  H+  H196  1  0.87571449  0.52682349  0.64127976  1
  H+  H197  1  0.29765642  0.12418165  0.75110283  1
  H+  H198  1  0.31693737  0.66963901  0.68676998  1
  H+  H199  1  0.60622012  0.45994447  -0.00748940  1
  H+  H200  1  0.33972267  0.46318689  -0.00802910  1
  H+  H201  1  0.63100282  0.59761496  0.98044561  1
  H+  H202  1  0.22438526  0.12420528  0.88509271  1
  H+  H203  1  0.35365016  0.26552682  0.84692976  1
  H+  H204  1  0.38202367  0.34381792  -0.00341466  1
  H+  H205  1  0.60907929  0.96666655  0.01173692  1
  H+  H206  1  0.13937601  0.75190387  0.66473359  1
  H+  H207  1  -0.00550082  0.96085088  0.84220749  1
  H+  H208  1  0.38640638  0.37647807  0.34353860  1
  H+  H209  1  0.35337494  0.87968264  0.17152610  1
  H+  H210  1  0.86714649  0.21747589  0.32744178  1
  H+  H211  1  0.36429539  0.09698770  0.84306372  1
  H+  H212  1  0.87369386  0.47359922  0.16611039  1
  H+  H213  1  0.36711845  0.23187537  0.34078704  1
  H+  H214  1  0.61750702  0.48157612  0.35369636  1
  H+  H215  1  0.64075963  0.12071737  0.32503390  1
  H+  H216  1  0.23888355  0.10815678  0.50465821  1
  H+  H217  1  0.65365403  0.34256413  0.17149844  1
  H+  H218  1  0.62798553  0.35383458  0.82709819  1
  H+  H219  1  0.60754819  0.87650368  0.01056363  1
  H+  H220  1  0.88148154  0.36181370  0.65423832  1
  H+  H221  1  0.61094485  0.12211079  0.48967704  1
  H+  H222  1  0.64392130  0.36735942  0.33293855  1
  H+  H223  1  0.14432686  0.74467142  0.99456281  1
  H+  H224  1  0.95439153  0.62229114  0.63812072  1
  H+  H225  1  0.01901364  0.37901386  0.65919498  1
  H+  H226  1  0.28322041  0.90170838  0.33799843  1
  H+  H227  1  0.00712400  0.87777638  0.00148628  1
  H+  H228  1  -0.03656388  0.09781152  0.67850996  1
  H+  H229  1  0.83664879  0.91650939  0.06698368  1
  H+  H230  1  0.88391148  0.01185270  0.33088497  1
  H+  H231  1  0.87975386  -0.10243736  0.34491566  1
  H+  H232  1  0.18185372  0.56024079  0.68559545  1
  H+  H233  1  0.63629595  0.62379332  0.35798213  1
  H+  H234  1  0.01932833  0.87245473  0.15541220  1
  H+  H235  1  0.70738205  0.58798325  0.82731601  1
  H+  H236  1  0.10955640  0.48442050  0.34243525  1
  H+  H237  1  0.38174950  0.53480301  0.10532340  1
  H+  H238  1  0.61140943  0.37244303  -0.00557220  1
  H+  H239  1  0.97879431  0.36053399  0.14034276  1
  H+  H240  1  0.85188896  0.45355918  0.71883259  1
  H+  H241  1  0.61524082  0.76956485  0.65450828  1
  H+  H242  1  0.98491337  0.85559516  0.33815213  1
  H+  H243  1  0.14092715  0.89997054  0.81621181  1
  H+  H244  1  0.14727804  0.15713744  0.82100217  1
  H+  H245  1  0.11262349  0.72441204  0.16901816  1
  H+  H246  1  0.19110872  0.37213825  0.27140923  1
  H+  H247  1  0.11898527  0.99059675  0.14746244  1
  H+  H248  1  0.22889439  0.34881109  0.51141151  1
  H+  H249  1  0.37470720  0.98711502  0.33255075  1
  H+  H250  1  0.92749387  0.83451096  0.24254073  1
  H+  H251  1  0.86852313  0.49629347  0.34977573  1
  H+  H252  1  0.86143450  0.64537597  0.35594473  1
  H+  H253  1  0.11631835  0.64914894  0.34363527  1
  H+  H254  1  0.53522555  0.65093042  0.36785973  1
  H+  H255  1  0.86879347  0.63146755  0.49777149  1
  H+  H256  1  0.68156486  0.21164462  0.18869808  1
  H+  H257  1  0.60855604  0.63057313  0.81979649  1
  H+  H258  1  0.60062098  0.19472121  0.66591230  1
  H+  H259  1  0.28416484  0.13618189  0.34491105  1
  H+  H260  1  0.62851137  0.26486898  0.83145379  1
  H+  H261  1  0.19535232  0.58361040  1.00843248  1
  H+  H262  1  0.85216756  0.88212525  0.49830526  1
  H+  H263  1  0.27524779  0.90345282  0.48526617  1
  H+  H264  1  0.35613085  0.38619626  0.82845097  1
  H+  H265  1  0.23006659  0.77066882  0.96034048  1
  H+  H266  1  0.37525220  0.66881618  0.14678735  1
  H+  H267  1  0.59386314  0.45890420  0.81746527  1
  H+  H268  1  0.86155384  0.38230987  1.00951512  1
  H+  H269  1  0.12110824  0.45562476  0.53112739  1
  H+  H270  1  0.85501407  0.97055375  0.00628449  1
  H+  H271  1  0.32354930  0.33019788  0.13619995  1
  H+  H272  1  0.86148998  0.26556236  0.50376055  1
  H+  H273  1  0.98523160  0.65427342  0.48920020  1
  H+  H274  1  0.13755718  0.61592492  0.17412598  1
  H+  H275  1  0.88215475  0.42141409  0.37554807  1
  H+  H276  1  0.64927851  0.02868180  0.84086922  1
  H+  H277  1  0.88767671  0.77450047  0.66098113  1
  H+  H278  1  0.13969101  0.77162475  0.83847825  1
  H+  H279  1  0.88408494  0.51574184  -0.00803578  1
  H+  H280  1  0.35531107  0.37163828  0.68500150  1
  H+  H281  1  0.48092731  0.10798725  0.99421047  1
  H+  H282  1  0.46912480  0.85767155  0.99871159  1
  H+  H283  1  0.88077937  0.11628376  0.18067906  1
  H+  H284  1  -0.01543438  0.36570125  0.83744008  1
  H+  H285  1  0.02625325  0.13038729  0.50804928  1
  H+  H286  1  0.43569727  0.59755294  0.29715338  1
  H+  H287  1  0.48193200  0.86083464  0.17648350  1
  H+  H288  1  0.57833052  0.15893266  0.42807034  1
  H+  H289  1  0.17334619  0.07958460  0.59896489  1
  H+  H290  1  0.82557068  0.65041579  0.76658396  1
  H+  H291  1  0.43046699  0.86025193  0.60610925  1
  H+  H292  1  0.31977954  0.55641900  0.23527802  1
  H+  H293  1  0.91673489  0.58980671  0.27736274  1
  H+  H294  1  0.67025559  0.08401043  0.58617222  1
  H+  H295  1  0.15683733  0.06085195  0.20040862  1
  H+  H296  1  0.11017996  0.44285681  0.62999359  1
  H+  H297  1  0.72306069  0.35808716  -0.01228793  1
  H+  H298  1  0.39045819  0.03104300  0.50651601  1
  H+  H299  1  0.40655083  0.57620045  0.93560104  1
  H+  H300  1  0.31895966  0.66954208  0.06143744  1
  H+  H301  1  0.41541550  0.84067064  0.93812891  1
  H+  H302  1  0.08049718  0.66488695  0.10807954  1
  H+  H303  1  0.36391507  0.26886316  0.21811215  1
  H+  H304  1  0.40917309  0.08818270  0.60515372  1
  H+  H305  1  0.81410753  0.42392126  0.45394772  1
  H+  H306  1  0.72945932  0.64010486  0.22882960  1
  H+  H307  1  0.73077923  0.87087309  0.33810187  1
  H+  H308  1  0.60434426  0.41353281  0.08197727  1
  H+  H309  1  0.42647579  0.35338714  0.55227853  1
  H+  H310  1  0.66530663  0.07983686  0.94104860  1
  H+  H311  1  0.33203187  0.91861211  0.76935117  1
  H+  H312  1  0.89410326  0.36194133  0.84977628  1
  H+  H313  1  0.91398546  0.08070468  0.26523332  1
  H+  H314  1  0.89474413  0.82944693  0.56582144  1
  H+  H315  1  0.96916170  0.11314266  0.17636277  1
  H+  H316  1  0.83251665  0.41566393  0.06584769  1
  H+  H317  1  0.72710940  0.85338372  0.51373904  1
  H+  H318  1  0.36705282  0.57637244  0.22863128  1
  H+  H319  1  0.41014430  0.56561542  0.56779386  1
  H+  H320  1  0.34176042  0.93011274  0.43003758  1
  H+  H321  1  0.71698235  0.59328297  0.97127582  1
  H+  H322  1  0.36246990  0.68602483  0.43798235  1
  H+  H323  1  0.58772457  0.91298002  0.74259966  1
  H+  H324  1  0.06420307  0.40915412  0.43753794  1
  H+  H325  1  0.33490548  0.42225012  0.13393627  1
  H+  H326  1  0.64697406  0.56283095  0.88536708  1
  H+  H327  1  0.10962890  0.97406683  0.66458797  1
  H+  H328  1  0.77960852  0.63682934  0.04793625  1
  H+  H329  1  0.08428396  0.16145079  0.05083809  1
  H+  H330  1  0.43565242  0.36822062  0.28722582  1
  H+  H331  1  0.66215921  0.82644662  0.93965612  1
  H+  H332  1  0.77034147  0.65012322  0.67403007  1
  H+  H333  1  0.51717552  0.12831480  0.49374754  1
  H+  H334  1  0.93911411  0.34020353  0.95473853  1
  H+  H335  1  0.36650237  0.21666241  1.00806383  1
  H+  H336  1  0.66752487  0.33037993  0.92688456  1
  H+  H337  1  0.32760656  0.13511211  0.05286828  1
  H+  H338  1  0.32224157  0.90835368  0.11198295  1
  H+  H339  1  0.56791741  0.40498841  0.75775322  1
  H+  H340  1  0.33078909  0.42146902  0.40764588  1
  H+  H341  1  0.81994548  0.35878434  0.77539510  1
  H+  H342  1  0.48286448  0.87157325  0.32442776  1
  H+  H343  1  0.67064880  0.83525523  0.24409784  1
  H+  H344  1  0.57892749  0.66726037  0.76436145  1
  H+  H345  1  0.41252124  0.29240526  0.64028338  1
  H+  H346  1  0.44981181  0.34092074  0.83243398  1
  H+  H347  1  0.85081594  0.13315338  0.67428796  1
  H+  H348  1  0.70065624  0.59227582  0.22443524  1
  H+  H349  1  0.38921643  0.79008357  0.51544311  1
  H+  H350  1  0.10368928  0.12327074  0.66919592  1
  H+  H351  1  0.82926943  0.15904112  0.06856603  1
  H+  H352  1  0.66823771  0.10570307  0.26034117  1
  H+  H353  1  0.42295735  0.83523946  0.24536375  1
  H+  H354  1  0.35834062  0.68936236  0.77880818  1
  H+  H355  1  0.66095317  0.34622732  0.58373387  1
  H+  H356  1  0.57051545  0.92193917  0.43076085  1
  H+  H357  1  0.15118034  0.32086624  0.91586011  1
  H+  H358  1  0.16683377  0.59036689  0.27157798  1
  H+  H359  1  0.30258046  0.38744091  0.04259382  1
  H+  H360  1  0.91602842  0.57175873  0.89696731  1
  H+  H361  1  0.42725437  0.09005285  0.92456707  1
  H+  H362  1  0.57397925  0.14747369  0.76744687  1
  H+  H363  1  0.52708409  0.62452353  0.00613982  1
  H+  H364  1  0.06970091  0.89528024  0.08905572  1
  H+  H365  1  0.80532443  0.88553717  0.70916017  1
  H+  H366  1  0.08261119  0.15490143  0.44715449  1
  H+  H367  1  0.82882688  0.15915478  0.42877437  1
  H+  H368  1  0.09273308  0.16096946  0.76479065  1
  H+  H369  1  0.09679291  0.92043853  0.72500296  1
  H+  H370  1  0.93548458  0.32478084  0.24819218  1
  H+  H371  1  0.32407958  0.40856014  0.73910957  1
  H+  H372  1  0.90375165  0.59300773  0.54785941  1
  H+  H373  1  0.87753964  0.24602241  0.84297836  1
  H+  H374  1  0.63696961  0.76857495  0.83815991  1
  H+  H375  1  0.84874531  0.93089096  0.40282185  1
  H+  H376  1  0.90070515  0.32571295  0.59352882  1
  H+  H377  1  0.08788741  0.67406944  0.76551642  1
  H+  H378  1  0.07848246  0.41403771  0.75611645  1
  H+  H379  1  0.15590633  0.06094022  0.29724853  1
  H+  H380  1  0.87797194  0.80587248  0.94088092  1
  H+  H381  1  0.87299759  1.00871700  0.75170826  1
  H+  H382  1  0.15548374  0.85012040  0.28045657  1
  H+  H383  1  0.59896931  0.43137586  0.44214706  1
  O2-  O384  1  0.06972030  0.14462584  0.13241822  1
  O2-  O385  1  0.08671928  0.15640559  0.49319223  1
  O2-  O386  1  0.10156008  0.17044944  0.80977453  1
  O2-  O387  1  0.08006524  0.35422387  0.07903297  1
  O2-  O388  1  0.05644901  0.39468957  0.48120148  1
  O2-  O389  1  0.07929742  0.41423839  0.80102895  1
  O2-  O390  1  0.08527913  0.66417199  0.15383027  1
  O2-  O391  1  0.06020933  0.68789054  0.47640048  1
  O2-  O392  1  0.08494234  0.66783252  0.81018583  1
  O2-  O393  1  0.07694893  0.89723507  0.13538192  1
  O2-  O394  1  0.12159573  0.89469791  0.48219010  1
  O2-  O395  1  0.13097610  0.94136529  0.79319609  1
  O2-  O396  1  0.31677367  0.12010904  0.12594724  1
  O2-  O397  1  0.34637136  0.17361301  0.47787473  1
  O2-  O398  1  0.27414395  0.09631399  0.81536513  1
  O2-  O399  1  0.29465542  0.36216345  0.12322066  1
  O2-  O400  1  0.32073813  0.40828058  0.48287363  1
  O2-  O401  1  0.33020735  0.42132922  0.81215853  1
  O2-  O402  1  0.33202114  0.68826545  0.14728421  1
  O2-  O403  1  0.39186835  0.69810098  0.47859550  1
  O2-  O404  1  0.34529587  0.68038592  0.82293304  1
  O2-  O405  1  0.32160093  0.90834179  0.15896768  1
  O2-  O406  1  0.33757534  0.93062799  0.47525816  1
  O2-  O407  1  0.33668331  0.91858858  0.81456329  1
  O2-  O408  1  0.54657297  0.08100727  0.09868227  1
  O2-  O409  1  0.57725256  0.15229801  0.47458656  1
  O2-  O410  1  0.57733832  0.15452108  0.81224023  1
  O2-  O411  1  0.62269515  0.42696784  0.12680876  1
  O2-  O412  1  0.59307918  0.43605666  0.48692451  1
  O2-  O413  1  0.56636043  0.39812690  0.80201364  1
  O2-  O414  1  0.61458201  0.67497151  0.16096946  1
  O2-  O415  1  0.59724511  0.67333776  0.49651900  1
  O2-  O416  1  0.58264315  0.66734787  0.80942960  1
  O2-  O417  1  0.57300575  0.90524787  0.14768477  1
  O2-  O418  1  0.57283701  0.92545138  0.47568173  1
  O2-  O419  1  0.59005361  0.92043166  0.81472728  1
  O2-  O420  1  0.83172790  0.16576341  0.14882722  1
  O2-  O421  1  0.82178637  0.15774691  0.47352289  1
  O2-  O422  1  0.84369855  0.17988856  0.82869042  1
  O2-  O423  1  0.84578270  0.41511499  0.14760432  1
  O2-  O424  1  0.81447515  0.41004396  0.49696208  1
  O2-  O425  1  0.82468616  0.39189257  0.81179905  1
  O2-  O426  1  0.86822651  0.67754845  0.14669383  1
  O2-  O427  1  0.78193549  0.65083758  0.49967374  1
  O2-  O428  1  0.81538997  0.63788850  0.81100215  1
  O2-  O429  1  0.87613717  0.93382883  0.13525145  1
  O2-  O430  1  0.84070051  0.93009180  0.47796866  1
  O2-  O431  1  0.85751818  0.96970673  0.78746996  1
  O2-  O432  1  0.15130674  0.05679431  0.15642005  1
  O2-  O433  1  0.17965638  0.06772723  0.51949574  1
  O2-  O434  1  0.24832876  0.15450178  0.84555317  1
  O2-  O435  1  0.16705580  0.36029228  0.19129420  1
  O2-  O436  1  0.16873687  0.31114053  0.52924965  1
  O2-  O437  1  0.15942190  0.33324431  0.84678758  1
  O2-  O438  1  0.17013906  0.58681174  0.18949608  1
  O2-  O439  1  0.16018668  0.48670377  0.56726577  1
  O2-  O440  1  0.16606372  0.57338829  0.83424446  1
  O2-  O441  1  0.15835586  0.83075763  0.20244716  1
  O2-  O442  1  0.16843625  0.85483358  0.50951715  1
  O2-  O443  1  0.17359389  0.83127491  0.85473421  1
  O2-  O444  1  0.42500725  0.07525399  0.18029775  1
  O2-  O445  1  0.42526981  0.09106289  0.52277089  1
  O2-  O446  1  0.40953244  0.08157607  0.85482935  1
  O2-  O447  1  0.37535883  0.27979925  0.17468090  1
  O2-  O448  1  0.42872348  0.34896321  0.50828005  1
  O2-  O449  1  0.39485805  0.32732147  0.85166544  1
  O2-  O450  1  0.47925084  0.69800337  0.12993273  1
  O2-  O451  1  0.41597996  0.56805349  0.52274415  1
  O2-  O452  1  0.41719437  0.58516965  0.85678721  1
  O2-  O453  1  0.42142533  0.83231003  0.19614498  1
  O2-  O454  1  0.41343761  0.84986680  0.53001648  1
  O2-  O455  1  0.42838866  0.84663192  0.85880343  1
  O2-  O456  1  0.67513352  0.15388155  0.18463331  1
  O2-  O457  1  0.65879306  0.08019455  0.51298117  1
  O2-  O458  1  0.67859656  0.08926168  0.85603238  1
  O2-  O459  1  0.68468680  0.31943169  0.19445120  1
  O2-  O460  1  0.65490357  0.33592601  0.53936469  1
  O2-  O461  1  0.66177942  0.32699706  0.84222354  1
  O2-  O462  1  0.70823685  0.60360581  0.10830658  1
  O2-  O463  1  0.69086731  0.59910904  0.52312703  1
  O2-  O464  1  0.64594139  0.56340722  0.83957743  1
  O2-  O465  1  0.67419287  0.83214597  0.19921667  1
  O2-  O466  1  0.74817463  0.90117871  0.48471759  1
  O2-  O467  1  0.66528242  0.82876324  0.85507078  1
  O2-  O468  1  0.91369124  0.08942262  0.19845288  1
  O2-  O469  1  0.91677423  0.08813791  0.52701680  1
  O2-  O470  1  0.93512325  0.10910071  0.85887369  1
  O2-  O471  1  0.93224355  0.33320079  0.17246696  1
  O2-  O472  1  0.89081127  0.32392753  0.52153767  1
  O2-  O473  1  0.92808844  0.33382910  0.86023613  1
  O2-  O474  1  0.92255362  0.57620313  0.19998470  1
  O2-  O475  1  0.90975758  0.60997227  0.50383954  1
  O2-  O476  1  0.91653442  0.57165172  0.85112785  1
  O2-  O477  1  0.92751235  0.83471049  0.19741538  1
  O2-  O478  1  0.87540504  0.82262660  0.52269907  1
  O2-  O479  1  0.83714270  0.78057022  0.86861390  1
  O2-  O480  1  0.17362429  0.06156989  0.33907058  1
  O2-  O481  1  0.16346406  0.08080766  0.64346463  1
  O2-  O482  1  0.17326788  0.07938897  0.95881362  1
  O2-  O483  1  0.19361132  0.36895844  0.31612648  1
  O2-  O484  1  0.15961004  0.31663627  0.64633920  1
  O2-  O485  1  0.15399337  0.31804209  0.96259890  1
  O2-  O486  1  0.16430565  0.59254349  0.31671581  1
  O2-  O487  1  0.21815124  0.61685171  0.66759905  1
  O2-  O488  1  0.13229559  0.55389015  1.00523922  1
  O2-  O489  1  0.16510944  0.85123591  0.32617379  1
  O2-  O490  1  0.16913318  0.84497322  0.63237928  1
  O2-  O491  1  0.19347140  0.79393743  0.97225501  1
  O2-  O492  1  0.42971210  0.09074986  0.30489264  1
  O2-  O493  1  0.41003658  0.08344295  0.65014631  1
  O2-  O494  1  0.42626640  0.09171869  0.97131796  1
  O2-  O495  1  0.41758960  0.34529716  0.32808596  1
  O2-  O496  1  0.41778805  0.32113736  0.67890658  1
  O2-  O497  1  0.40814155  0.31533203  1.01884406  1
  O2-  O498  1  0.42823061  0.59587901  0.34120839  1
  O2-  O499  1  0.38659752  0.55753759  0.64599557  1
  O2-  O500  1  0.39858918  0.56772085  0.98054483  1
  O2-  O501  1  0.42111505  0.83928699  0.30882471  1
  O2-  O502  1  0.43641690  0.86399491  0.65158934  1
  O2-  O503  1  0.40930996  0.83246079  0.98318667  1
  O2-  O504  1  0.66925902  0.09217604  0.30410129  1
  O2-  O505  1  0.67552881  0.08441187  0.63219641  1
  O2-  O506  1  0.66280334  0.07556121  0.98594249  1
  O2-  O507  1  0.67323765  0.33584104  0.31846248  1
  O2-  O508  1  0.67759052  0.37106300  0.66414272  1
  O2-  O509  1  0.66351554  0.32892041  0.97165654  1
  O2-  O510  1  0.66378415  0.58956572  0.34216810  1
  O2-  O511  1  0.67408224  0.60781765  0.64345414  1
  O2-  O512  1  0.65511462  0.56322434  0.96068543  1
  O2-  O513  1  0.66981117  0.84018733  0.32563174  1
  O2-  O514  1  0.64340768  0.83131437  0.64157713  1
  O2-  O515  1  0.65883243  0.82463371  0.98463226  1
  O2-  O516  1  0.91141974  0.07680790  0.31315968  1
  O2-  O517  1  0.89892914  0.06998695  0.67858390  1
  O2-  O518  1  0.91481089  0.08057844  0.98255575  1
  O2-  O519  1  0.92571090  0.32040417  0.29368172  1
  O2-  O520  1  0.90574644  0.32617160  0.63990755  1
  O2-  O521  1  0.91845565  0.32960012  0.99682391  1
  O2-  O522  1  0.91617986  0.59492603  0.32278440  1
  O2-  O523  1  0.89609302  0.58606967  0.62335322  1
  O2-  O524  1  0.91461249  0.57584992  0.97509973  1
  O2-  O525  1  0.92574823  0.83652500  0.32540762  1
  O2-  O526  1  0.91554566  0.83357351  0.64282259  1
  O2-  O527  1  0.89510084  0.81717596  0.98466467  1
  O2-  O528  1  0.08337606  0.16327466  0.00575244  1
  O2-  O529  1  0.08340525  0.14981527  0.37390199  1
  O2-  O530  1  0.07169079  0.15034227  0.68770787  1
  O2-  O531  1  0.03801483  0.40737757  0.07687186  1
  O2-  O532  1  0.08445102  0.42360638  0.35578729  1
  O2-  O533  1  0.08158735  0.40917287  0.66873011  1
  O2-  O534  1  0.07426335  0.65629845  0.03188826  1
  O2-  O535  1  0.08477457  0.67849058  0.35854793  1
  O2-  O536  1  0.12248103  0.69423486  0.68435533  1
  O2-  O537  1  0.06678872  0.90582714  0.01761350  1
  O2-  O538  1  0.11736857  0.89104898  0.35354046  1
  O2-  O539  1  0.08181843  0.91352435  0.67969719  1
  O2-  O540  1  0.33729684  0.15078679  0.00836623  1
  O2-  O541  1  0.34688987  0.17157291  0.35325135  1
  O2-  O542  1  0.31523479  0.14270176  0.70520161  1
  O2-  O543  1  0.30645802  0.39837613  -0.00175860  1
  O2-  O544  1  0.34239211  0.43034156  0.36282915  1
  O2-  O545  1  0.32256307  0.40180139  0.69304562  1
  O2-  O546  1  0.31742928  0.66104664  0.01709825  1
  O2-  O547  1  0.33279832  0.67296243  0.36187457  1
  O2-  O548  1  0.37898990  0.70702276  0.70007384  1
  O2-  O549  1  0.32776558  0.91468068  0.04181905  1
  O2-  O550  1  0.34458109  0.92698207  0.34915950  1
  O2-  O551  1  0.32497599  0.91856442  0.68860380  1
  O2-  O552  1  0.56300072  0.13090435  0.04162623  1
  O2-  O553  1  0.58696353  0.17035769  0.35731873  1
  O2-  O554  1  0.57153402  0.13702760  0.68324156  1
  O2-  O555  1  0.58087178  0.40254855  0.01265188  1
  O2-  O556  1  0.59209412  0.41935929  0.36451739  1
  O2-  O557  1  0.58609994  0.43579573  0.66827864  1
  O2-  O558  1  0.58886747  0.65049232  0.01448343  1
  O2-  O559  1  0.59707669  0.68192650  0.37914089  1
  O2-  O560  1  0.57201610  0.66789525  0.68172006  1
  O2-  O561  1  0.57739268  0.90652074  0.02750810  1
  O2-  O562  1  0.58079222  0.92239045  0.34789134  1
  O2-  O563  1  0.58901101  0.91411980  0.69598693  1
  O2-  O564  1  0.82990938  0.15991623  0.02318218  1
  O2-  O565  1  0.83368056  0.15838601  0.34497915  1
  O2-  O566  1  0.81777750  0.16422761  0.67627127  1
  O2-  O567  1  0.83097446  0.41414683  0.02064895  1
  O2-  O568  1  0.83754729  0.43471681  0.36480066  1
  O2-  O569  1  0.83932327  0.43584570  0.67635322  1
  O2-  O570  1  0.82093973  0.65172972  0.01375101  1
  O2-  O571  1  0.83330484  0.67685073  0.37252308  1
  O2-  O572  1  0.83103020  0.67251768  0.68912609  1
  O2-  O573  1  0.82300784  0.91075072  0.02210515  1
  O2-  O574  1  0.84972095  0.92992922  0.35674413  1
  O2-  O575  1  0.81506215  0.89675215  0.66550083  1
