# generated using pymatgen
data_H2O
_symmetry_space_group_name_H-M   'P 1'
_cell_length_a   17.99928441
_cell_length_b   18.00091774
_cell_length_c   21.99935312
_cell_angle_alpha   89.98166650
_cell_angle_beta   90.00478668
_cell_angle_gamma   120.01185284
_symmetry_Int_Tables_number   1
_chemical_formula_structural   H2O
_chemical_formula_sum   'H384 O192'
_cell_volume   6172.17913616
_cell_formula_units_Z   192
loop_
 _symmetry_equiv_pos_site_id
 _symmetry_equiv_pos_as_xyz
  1  'x, y, z'
loop_
 _atom_type_symbol
 _atom_type_oxidation_number
  H+  1.0
  O2-  -2.0
loop_
 _atom_site_type_symbol
 _atom_site_label
 _atom_site_symmetry_multiplicity
 _atom_site_fract_x
 _atom_site_fract_y
 _atom_site_fract_z
 _atom_site_occupancy
  H+  H0  1  0.25380752  0.12353163  0.15924767  1
  H+  H1  1  0.26172491  0.88444414  0.64433911  1
  H+  H2  1  0.52442702  0.39263661  1.01044568  1
  H+  H3  1  0.86166691  0.89074823  0.15675503  1
  H+  H4  1  0.13448963  0.86638182  0.83728722  1
  H+  H5  1  1.02336644  0.12534089  0.33713962  1
  H+  H6  1  0.18268749  0.35832593  0.79474761  1
  H+  H7  1  0.41617602  1.00658748  0.69201329  1
  H+  H8  1  0.17134899  0.58385421  0.39904924  1
  H+  H9  1  0.63743634  0.51116796  0.47440166  1
  H+  H10  1  0.88939721  0.63125277  0.67939786  1
  H+  H11  1  0.72946751  0.85854335  0.65163805  1
  H+  H12  1  0.21624523  0.35034684  0.30881842  1
  H+  H13  1  0.39163157  0.13212488  0.50961212  1
  H+  H14  1  0.63255829  0.53829585  0.67445462  1
  H+  H15  1  0.08304440  0.69960557  0.42112143  1
  H+  H16  1  0.85319703  0.16570382  0.41842358  1
  H+  H17  1  0.10380550  0.11543082  0.00532056  1
  H+  H18  1  0.86048697  0.49842595  0.48100416  1
  H+  H19  1  0.37742601  0.24868291  0.34105058  1
  H+  H20  1  0.63608028  0.77044348  0.17645776  1
  H+  H21  1  0.03564287  0.63651672  0.66346935  1
  H+  H22  1  0.88956628  0.26385562  0.65334143  1
  H+  H23  1  0.77994885  0.46399168  0.43922298  1
  H+  H24  1  0.36677623  0.45362343  0.46949272  1
  H+  H25  1  0.84709199  0.97152688  0.65909750  1
  H+  H26  1  0.37730884  0.66839867  0.48474951  1
  H+  H27  1  0.61236518  0.73192627  0.82536191  1
  H+  H28  1  0.45482406  0.07482509  0.00401094  1
  H+  H29  1  0.88375646  0.02767064  0.98694558  1
  H+  H30  1  0.85077174  0.64031276  -0.00361958  1
  H+  H31  1  0.09159767  0.73925544  0.19093751  1
  H+  H32  1  0.52349770  0.38245380  0.83057396  1
  H+  H33  1  0.63185298  0.59759061  0.47731362  1
  H+  H34  1  0.10061908  -0.01776832  0.67349605  1
  H+  H35  1  0.79076510  0.90558766  0.50001789  1
  H+  H36  1  0.97078683  0.62350186  0.83204256  1
  H+  H37  1  0.54431285  0.11991355  0.81521721  1
  H+  H38  1  0.35934331  0.49565982  0.31989612  1
  H+  H39  1  0.07990608  0.88357546  0.66864494  1
  H+  H40  1  0.76162693  0.11301072  0.15486500  1
  H+  H41  1  0.00758564  0.38780397  0.82759492  1
  H+  H42  1  0.09479256  0.38614444  0.82799617  1
  H+  H43  1  0.63888010  0.27111116  0.84079916  1
  H+  H44  1  0.09856853  0.86445685  1.00876004  1
  H+  H45  1  0.33342965  -0.04115952  0.16786129  1
  H+  H46  1  0.11713941  0.47783989  0.34113950  1
  H+  H47  1  0.26704840  0.41361435  0.00330572  1
  H+  H48  1  0.39790351  0.55802039  0.65022952  1
  H+  H49  1  0.61397913  0.73572598  0.67212299  1
  H+  H50  1  0.62811794  0.73582699  0.33644865  1
  H+  H51  1  0.08928282  0.76243440  0.64582352  1
  H+  H52  1  0.67295977  0.03566235  0.84792442  1
  H+  H53  1  0.21356211  0.10222288  0.31256135  1
  H+  H54  1  0.78755993  0.37524153  0.66969365  1
  H+  H55  1  0.96360877  0.62819815  0.16752151  1
  H+  H56  1  0.57841151  0.67814804  0.73517029  1
  H+  H57  1  0.28639708  0.38596195  0.85416181  1
  H+  H58  1  0.92409487  0.33216193  0.56967407  1
  H+  H59  1  0.87825508  0.36265570  0.83996255  1
  H+  H60  1  0.87417460  0.01311980  0.17689852  1
  H+  H61  1  0.88760563  0.11083278  0.53477624  1
  H+  H62  1  0.23844728  0.88126846  0.33665719  1
  H+  H63  1  0.43998818  0.09761512  0.87052675  1
  H+  H64  1  0.68085645  0.58294489  0.38886406  1
  H+  H65  1  0.19833805  0.65004390  0.59060152  1
  H+  H66  1  0.85560065  0.09592604  0.63358507  1
  H+  H67  1  0.41574191  0.83465351  0.23477450  1
  H+  H68  1  0.73360286  0.38466120  0.99374908  1
  H+  H69  1  0.64907386  0.38839159  0.33152299  1
  H+  H70  1  0.36999082  0.25112742  0.51370302  1
  H+  H71  1  0.64492744  0.02732140  0.50543162  1
  H+  H72  1  0.64763120  0.39644579  0.17655977  1
  H+  H73  1  0.46831051  0.84765174  0.83024308  1
  H+  H74  1  0.84237268  0.74630737  0.68397401  1
  H+  H75  1  0.13606886  0.51894487  0.84899227  1
  H+  H76  1  0.87863997  0.77877807  0.98792549  1
  H+  H77  1  0.48914051  0.64197558  0.65935202  1
  H+  H78  1  0.86372907  0.48683250  0.00319450  1
  H+  H79  1  0.30948492  0.53735683  0.29366184  1
  H+  H80  1  0.86156816  0.89200675  0.00348997  1
  H+  H81  1  0.37627189  0.85877609  0.17770349  1
  H+  H82  1  0.62586066  0.62392153  0.66812452  1
  H+  H83  1  0.11534494  0.41134331  0.16470977  1
  H+  H84  1  0.11961682  0.46875227  0.48384720  1
  H+  H85  1  0.89451361  0.87020740  0.32509635  1
  H+  H86  1  0.22983205  0.60219942  0.84753893  1
  H+  H87  1  0.25144812  0.66244043  0.65195047  1
  H+  H88  1  0.87366879  0.37268081  0.67462534  1
  H+  H89  1  0.63082867  0.61569878  0.83629425  1
  H+  H90  1  0.11335592  0.50327803  0.17091189  1
  H+  H91  1  0.11365588  0.11619605  0.33319572  1
  H+  H92  1  0.66128648  0.11738823  0.83960412  1
  H+  H93  1  0.62480203  0.89650430  0.66799439  1
  H+  H94  1  0.85283465  0.65139644  0.14223152  1
  H+  H95  1  0.37671547  0.62322018  -0.01831013  1
  H+  H96  1  0.12507782  0.00990627  0.32449909  1
  H+  H97  1  0.10596799  0.87945610  0.56243979  1
  H+  H98  1  0.36407497  0.63628678  0.82349785  1
  H+  H99  1  0.61476421  0.22502981  0.49612923  1
  H+  H100  1  0.88023479  0.98923389  0.51552881  1
  H+  H101  1  0.60543191  0.70409711  0.50729238  1
  H+  H102  1  0.21896358  0.11687240  0.83965583  1
  H+  H103  1  0.66511814  0.34890970  0.68038670  1
  H+  H104  1  0.84785283  0.59737489  0.66577984  1
  H+  H105  1  0.89845435  0.12050850  0.83446772  1
  H+  H106  1  0.32488929  0.44454503  0.70533811  1
  H+  H107  1  0.60786129  0.48638565  0.16075510  1
  H+  H108  1  0.44892114  0.33216429  0.30931700  1
  H+  H109  1  0.73627865  0.65022635  0.68589657  1
  H+  H110  1  0.46531216  0.36379907  0.17047296  1
  H+  H111  1  0.39281649  0.53296735  0.16393152  1
  H+  H112  1  0.27795714  0.85559582  0.63322932  1
  H+  H113  1  0.58703828  0.39974268  0.67159119  1
  H+  H114  1  1.02177687  0.88170140  0.99424212  1
  H+  H115  1  0.09875370  0.72878634  0.82395607  1
  H+  H116  1  0.87870293  0.23618590  0.81874781  1
  H+  H117  1  0.14490287  0.31492538  0.14929863  1
  H+  H118  1  0.10286806  0.50827851  1.00638989  1
  H+  H119  1  0.51531256  0.62673643  0.49098067  1
  H+  H120  1  0.90021298  0.11617478  0.33087475  1
  H+  H121  1  0.12995620  0.93767090  0.16021113  1
  H+  H122  1  0.13491776  0.67780629  0.66564062  1
  H+  H123  1  0.67017519  0.81532997  0.46695553  1
  H+  H124  1  0.10799351  0.05709792  0.16446291  1
  H+  H125  1  0.73508780  0.87438670  0.33071899  1
  H+  H126  1  0.91057383  0.84102077  0.93045043  1
  H+  H127  1  0.66966963  0.33214699  0.56604777  1
  H+  H128  1  0.77924654  0.40434059  0.16048653  1
  H+  H129  1  0.97989141  0.35598304  0.65870846  1
  H+  H130  1  0.36678180  0.39852602  0.15503295  1
  H+  H131  1  0.92188003  0.54058752  0.30184024  1
  H+  H132  1  0.40351140  0.88196880  0.50996840  1
  H+  H133  1  0.63853823  0.30757601  1.00235097  1
  H+  H134  1  0.35875735  0.64074837  0.15949785  1
  H+  H135  1  0.09821172  0.17193803  0.16831272  1
  H+  H136  1  0.15091724  0.79467471  0.33042481  1
  H+  H137  1  0.47470433  0.11375367  0.29895355  1
  H+  H138  1  0.62035883  0.98913805  0.16376090  1
  H+  H139  1  0.20786507  0.34211989  0.66327267  1
  H+  H140  1  0.62238673  0.53412362  -0.00518453  1
  H+  H141  1  0.72779901  0.62818129  0.16400715  1
  H+  H142  1  0.88498511  0.78842643  0.16341114  1
  H+  H143  1  0.39685839  0.79095987  0.50354910  1
  H+  H144  1  0.24466158  0.85386309  0.02860994  1
  H+  H145  1  0.67580239  0.23810640  0.14444165  1
  H+  H146  1  0.35509070  0.12065500  1.02009713  1
  H+  H147  1  0.13469439  0.36282091  0.30968694  1
  H+  H148  1  0.83063831  0.92197643  0.06296124  1
  H+  H149  1  0.76825164  0.63739130  0.83289262  1
  H+  H150  1  0.87763488  0.36365947  -0.00898209  1
  H+  H151  1  0.88749787  0.65186569  0.33280495  1
  H+  H152  1  0.85907007  0.63745450  0.82618602  1
  H+  H153  1  0.10443262  0.22273211  0.67374045  1
  H+  H154  1  0.62240412  0.41690669  0.00754638  1
  H+  H155  1  0.62909261  0.75354295  1.00534199  1
  H+  H156  1  0.11522748  0.12873702  0.48882557  1
  H+  H157  1  0.61470320  0.38839452  0.82561409  1
  H+  H158  1  0.87571320  0.10356056  0.17653136  1
  H+  H159  1  0.64245922  0.86910588  -0.00731535  1
  H+  H160  1  0.64606395  0.88009828  0.49576164  1
  H+  H161  1  0.34061660  0.43813682  0.05136381  1
  H+  H162  1  0.41715806  0.59573318  0.89848805  1
  H+  H163  1  0.91521244  0.50283767  0.65184173  1
  H+  H164  1  0.60064700  0.86476878  0.16090232  1
  H+  H165  1  0.87367650  0.22501065  0.50584463  1
  H+  H166  1  0.76107492  0.64141070  0.99603663  1
  H+  H167  1  0.78340945  0.13642407  0.50458071  1
  H+  H168  1  0.77124785  0.13251155  0.67045105  1
  H+  H169  1  0.22141708  0.11845478  0.66769456  1
  H+  H170  1  -0.03367685  0.87078122  0.65946398  1
  H+  H171  1  1.04504558  0.65116831  0.33467647  1
  H+  H172  1  0.85984081  0.44061065  0.38207261  1
  H+  H173  1  0.13223648  0.82187086  0.49453864  1
  H+  H174  1  0.23055785  0.62968172  0.17252529  1
  H+  H175  1  0.53357255  0.12579604  0.67485388  1
  H+  H176  1  0.01546242  0.76833414  0.61226158  1
  H+  H177  1  0.46084710  0.37932058  0.53874663  1
  H+  H178  1  0.64145258  0.25617746  0.65886415  1
  H+  H179  1  0.62639777  -0.02090875  1.00901902  1
  H+  H180  1  0.48902524  0.85912427  -0.01195602  1
  H+  H181  1  0.39608121  0.53035128  0.84223576  1
  H+  H182  1  0.28472272  0.41107714  0.15040520  1
  H+  H183  1  0.62886542  0.09777607  1.00086912  1
  H+  H184  1  0.37425342  0.27871057  0.17129955  1
  H+  H185  1  0.14172187  0.01292300  0.98869824  1
  H+  H186  1  0.87982905  0.39212936  0.32887423  1
  H+  H187  1  0.36410544  0.54483944  0.51605267  1
  H+  H188  1  0.89172980  0.35885127  0.50990945  1
  H+  H189  1  0.60910749  0.36754698  0.48365883  1
  H+  H190  1  0.88938199  0.62284103  0.50948371  1
  H+  H191  1  0.39219586  0.26645142  0.84561813  1
  H+  H192  1  0.52168107  0.64260181  0.82642641  1
  H+  H193  1  0.12299477  0.90034252  0.34189484  1
  H+  H194  1  0.66536247  0.29127659  0.33864265  1
  H+  H195  1  0.78002164  0.64742736  0.48013131  1
  H+  H196  1  0.60208225  0.06620725  0.15623368  1
  H+  H197  1  0.36681019  0.65411074  0.34534221  1
  H+  H198  1  0.63589229  0.86854074  0.83458710  1
  H+  H199  1  0.12864363  0.02776757  0.83887947  1
  H+  H200  1  1.02097859  0.13547337  0.82433446  1
  H+  H201  1  0.20999895  0.86413131  0.17596236  1
  H+  H202  1  0.83506473  0.41428011  0.76718551  1
  H+  H203  1  0.97975509  0.35796589  0.32511215  1
  H+  H204  1  0.39636678  0.35657210  0.85484544  1
  H+  H205  1  0.39719149  0.87051936  0.32960521  1
  H+  H206  1  0.31741346  0.16232785  0.10230754  1
  H+  H207  1  0.20760618  0.55187205  0.54819600  1
  H+  H208  1  0.36312161  1.00358341  0.85233145  1
  H+  H209  1  0.13095448  0.40172987  0.00389901  1
  H+  H210  1  0.22483639  0.64247849  0.99610073  1
  H+  H211  1  0.96993976  0.62981570  0.98537305  1
  H+  H212  1  0.88084565  0.77740740  0.50744972  1
  H+  H213  1  0.63057653  0.52589737  0.83980017  1
  H+  H214  1  0.35271210  0.23005003  0.68109658  1
  H+  H215  1  0.83339523  0.42592090  0.06282952  1
  H+  H216  1  0.56750376  0.95984267  0.80533307  1
  H+  H217  1  0.66458391  0.25281952  0.11530016  1
  H+  H218  1  0.72615813  0.10941316  0.28629769  1
  H+  H219  1  0.89036392  0.26940108  0.33091965  1
  H+  H220  1  0.13164926  0.27203923  0.82979413  1
  H+  H221  1  0.78624033  0.11816460  0.36752853  1
  H+  H222  1  0.56233108  0.15094418  0.14567740  1
  H+  H223  1  0.36541372  0.73577462  1.00346426  1
  H+  H224  1  0.45384106  0.36817479  0.67180878  1
  H+  H225  1  0.37494872  -0.01775584  0.33918288  1
  H+  H226  1  0.30629152  0.89346151  0.11149582  1
  H+  H227  1  0.79547301  0.64488928  0.34141771  1
  H+  H228  1  0.61318716  0.97823985  0.33182653  1
  H+  H229  1  0.77358127  0.89536805  0.81959445  1
  H+  H230  1  0.39984969  0.26270684  1.00317576  1
  H+  H231  1  0.86644087  0.48886380  0.14862248  1
  H+  H232  1  0.65215095  0.62352577  0.33867602  1
  H+  H233  1  0.24851669  0.61895493  0.49471702  1
  H+  H234  1  0.78281998  0.14343680  0.01249796  1
  H+  H235  1  0.21727744  0.35082801  0.50634942  1
  H+  H236  1  0.88705373  0.27930656  -0.00442930  1
  H+  H237  1  0.87681297  0.87009997  0.65576015  1
  H+  H238  1  0.25188406  0.63373766  0.35312161  1
  H+  H239  1  0.10163249  0.37712900  0.67549455  1
  H+  H240  1  0.33047877  0.94638221  0.02410366  1
  H+  H241  1  0.66810072  0.84120964  0.89428697  1
  H+  H242  1  0.87208208  0.14552535  0.00604349  1
  H+  H243  1  0.21897305  0.85991646  0.83540954  1
  H+  H244  1  0.11155655  0.13330143  0.67645535  1
  H+  H245  1  0.79561791  0.14605089  0.82119065  1
  H+  H246  1  0.47631283  0.12231327  0.50888572  1
  H+  H247  1  0.39182089  0.77870036  0.32969654  1
  H+  H248  1  0.72763691  0.36651241  0.50574923  1
  H+  H249  1  0.37402136  0.66618926  0.67177841  1
  H+  H250  1  0.76951182  0.88631986  0.15776845  1
  H+  H251  1  0.61040018  0.64068743  0.15711597  1
  H+  H252  1  0.88164742  0.86696762  0.83334490  1
  H+  H253  1  0.35939850  0.73008621  0.16228585  1
  H+  H254  1  0.63674186  0.01032679  0.66458345  1
  H+  H255  1  0.43629632  0.07886403  0.15682683  1
  H+  H256  1  0.34284965  0.12330892  0.83541812  1
  H+  H257  1  0.63116861  0.48382787  0.33179659  1
  H+  H258  1  0.51086349  0.86715931  0.15762327  1
  H+  H259  1  0.86479348  0.98264054  0.82053584  1
  H+  H260  1  0.33898060  0.36513431  0.68922704  1
  H+  H261  1  0.38209926  0.75764212  0.67759322  1
  H+  H262  1  0.35397546  0.36980095  0.50425241  1
  H+  H263  1  0.34881203  0.35982241  0.33974960  1
  H+  H264  1  0.23592988  0.12187741  0.51522464  1
  H+  H265  1  0.69811011  0.20757863  0.38220194  1
  H+  H266  1  0.35450938  0.11324125  0.32356328  1
  H+  H267  1  0.51838348  0.35886314  0.47031944  1
  H+  H268  1  0.36388337  0.98932855  0.50079651  1
  H+  H269  1  0.12884446  0.35046579  0.50364292  1
  H+  H270  1  0.66904262  0.07793401  0.60466212  1
  H+  H271  1  0.53128810  0.89581663  0.49227266  1
  H+  H272  1  0.33123452  0.02024995  0.64079421  1
  H+  H273  1  0.61682126  0.65093458  0.00512696  1
  H+  H274  1  0.52060071  0.64149451  0.15669434  1
  H+  H275  1  0.64263443  0.14969765  0.32933332  1
  H+  H276  1  0.42441277  0.61216357  0.56451050  1
  H+  H277  1  0.13317433  0.65108439  0.34979901  1
  H+  H278  1  0.11010495  0.21432885  0.48574343  1
  H+  H279  1  0.28410796  0.89332860  0.49721224  1
  H+  H280  1  0.36206771  0.88274902  0.83730738  1
  H+  H281  1  0.73261185  0.86858335  -0.00864621  1
  H+  H282  1  0.37792227  0.76275503  0.83812192  1
  H+  H283  1  0.88183678  0.77786034  0.83886183  1
  H+  H284  1  0.99919009  0.10325921  0.16454653  1
  H+  H285  1  0.89304417  0.38197288  0.17362403  1
  H+  H286  1  1.01916118  0.89316291  0.82938749  1
  H+  H287  1  0.87346056  0.98339308  0.34219080  1
  H+  H288  1  0.16655731  0.09194400  0.60528826  1
  H+  H289  1  1.01163555  0.40359652  0.17402565  1
  H+  H290  1  0.89889167  0.78413505  0.32154274  1
  H+  H291  1  0.97747909  0.10937714  0.98876839  1
  H+  H292  1  0.50578599  0.88051886  0.66132804  1
  H+  H293  1  0.07477528  0.92363484  0.76913996  1
  H+  H294  1  0.62261684  0.12266322  0.66929633  1
  H+  H295  1  0.43087281  0.92699898  0.69181269  1
  H+  H296  1  0.32662483  0.16249674  0.77370149  1
  H+  H297  1  0.77199142  0.38913500  0.82512503  1
  H+  H298  1  0.43678489  0.85245354  0.60501324  1
  H+  H299  1  0.88276470  0.53120413  0.83534844  1
  H+  H300  1  0.16815782  0.08115367  0.93517185  1
  H+  H301  1  0.91777528  0.08158725  0.26675712  1
  H+  H302  1  0.33253698  0.67113643  0.76687921  1
  H+  H303  1  0.75573035  0.38601498  0.32942314  1
  H+  H304  1  0.14662560  0.04811012  0.22619240  1
  H+  H305  1  0.42666975  0.82835184  0.93031366  1
  H+  H306  1  0.05149292  0.88523409  0.50919769  1
  H+  H307  1  0.81413717  0.68649521  0.75057280  1
  H+  H308  1  0.91791119  0.34191580  0.23194609  1
  H+  H309  1  0.29669165  0.09712425  0.38103893  1
  H+  H310  1  0.40392459  0.08538595  0.59799068  1
  H+  H311  1  0.15397381  0.31681838  0.59959003  1
  H+  H312  1  0.34570312  0.20277030  0.44875132  1
  H+  H313  1  0.90741817  0.33069430  0.89930657  1
  H+  H314  1  0.08127427  0.16479909  0.74228925  1
  H+  H315  1  0.06985582  0.67523368  0.76271338  1
  H+  H316  1  0.67113095  0.82949121  0.59177801  1
  H+  H317  1  0.91854335  0.84477698  0.22357059  1
  H+  H318  1  0.68213262  0.08974090  0.94424686  1
  H+  H319  1  0.64822737  0.06767499  0.24247438  1
  H+  H320  1  0.37863939  0.53539001  0.98192057  1
  H+  H321  1  0.30674229  0.38421140  0.39196734  1
  H+  H322  1  0.34368029  0.69242736  0.42162725  1
  H+  H323  1  0.60441208  0.16262552  0.75975042  1
  H+  H324  1  0.32985896  0.39659758  0.79136338  1
  H+  H325  1  0.83447614  0.15901785  0.10518627  1
  H+  H326  1  0.58819136  0.92616871  0.43049381  1
  H+  H327  1  0.57871545  0.17361901  0.01417121  1
  H+  H328  1  0.11256666  0.13687678  0.82545385  1
  H+  H329  1  0.83295668  0.92462905  0.72599232  1
  H+  H330  1  0.03035453  0.89414832  0.33556162  1
  H+  H331  1  0.10003262  0.65424528  0.18588047  1
  H+  H332  1  0.52482799  0.88899060  0.33730104  1
  H+  H333  1  0.02633266  0.38443565  0.48970837  1
  H+  H334  1  1.01948948  0.41509299  1.00230977  1
  H+  H335  1  0.06450349  0.13403658  0.06358230  1
  H+  H336  1  0.58270503  0.42902046  0.10130018  1
  H+  H337  1  0.59151880  0.68480472  0.07025600  1
  H+  H338  1  0.16815563  0.60161731  0.93621540  1
  H+  H339  1  0.66874016  0.83336590  0.23515837  1
  H+  H340  1  0.41305153  0.58386281  0.22630029  1
  H+  H341  1  0.84922675  0.92933016  0.40347718  1
  H+  H342  1  0.81903982  0.68094954  0.08625545  1
  H+  H343  1  0.39367822  0.33340044  0.61017818  1
  H+  H344  1  0.91015016  0.59051516  0.92792995  1
  H+  H345  1  0.58710654  0.67232469  0.39225909  1
  H+  H346  1  0.93721546  0.56112862  0.59199619  1
  H+  H347  1  0.98799271  0.62149186  0.25833078  1
  H+  H348  1  0.14869658  0.35451386  0.95032252  1
  H+  H349  1  0.88631587  0.87694356  0.51177646  1
  H+  H350  1  0.67746108  0.60148337  0.22749592  1
  H+  H351  1  0.58764934  0.91631396  0.74755711  1
  H+  H352  1  0.58549755  0.16385502  0.43847991  1
  H+  H353  1  0.35337427  0.14072951  0.67577248  1
  H+  H354  1  0.15695920  0.02532234  0.52129023  1
  H+  H355  1  0.38027591  0.05007492  0.95407582  1
  H+  H356  1  0.53923161  0.09886306  0.08113947  1
  H+  H357  1  0.92189568  0.08683749  0.89594053  1
  H+  H358  1  0.85566553  0.68792162  0.43226664  1
  H+  H359  1  0.08589926  0.15120763  0.40152615  1
  H+  H360  1  0.34991892  0.93172948  0.40346733  1
  H+  H361  1  0.27192597  0.12925304  0.00871707  1
  H+  H362  1  0.65511101  0.31900301  0.20204783  1
  H+  H363  1  0.97787059  0.62842383  0.49880841  1
  H+  H364  1  0.08255044  0.40733423  0.39238193  1
  H+  H365  1  0.07000912  0.41095819  0.73167523  1
  H+  H366  1  0.40197903  0.07294458  0.24686931  1
  H+  H367  1  0.17822948  0.60544885  0.23457057  1
  H+  H368  1  0.32787671  0.67396549  0.06222557  1
  H+  H369  1  0.64424163  0.87197855  0.32882013  1
  H+  H370  1  0.84289152  0.16434209  0.72321570  1
  H+  H371  1  0.36004739  0.10491630  0.16553050  1
  H+  H372  1  0.16848003  0.35064656  0.21926155  1
  H+  H373  1  0.57301580  0.42235189  0.74010774  1
  H+  H374  1  0.43132414  0.31911284  0.94252495  1
  H+  H375  1  0.58701977  0.90923912  0.06369147  1
  H+  H376  1  0.58249122  0.40675269  0.37971670  1
  H+  H377  1  0.12721347  0.67283243  -0.01220453  1
  H+  H378  1  0.64400243  0.11511964  0.50971025  1
  H+  H379  1  0.36554618  0.93465756  0.77910311  1
  H+  H380  1  0.66469574  0.33395221  0.89893879  1
  H+  H381  1  0.65012289  0.59019456  0.93260904  1
  H+  H382  1  0.88326577  0.58899693  0.20912019  1
  H+  H383  1  0.90764009  0.83420817  0.57618849  1
  O2-  O384  1  0.05789673  0.11939290  0.14748311  1
  O2-  O385  1  0.08611028  0.15595596  0.46789996  1
  O2-  O386  1  0.08179195  0.16677274  0.80708461  1
  O2-  O387  1  0.07973557  0.44040422  0.15915108  1
  O2-  O388  1  0.08411077  0.40769311  0.47066637  1
  O2-  O389  1  0.06750337  0.41708141  0.81047356  1
  O2-  O390  1  0.05994289  0.67465931  0.19636966  1
  O2-  O391  1  0.06265240  0.70915889  0.46216081  1
  O2-  O392  1  0.06171344  0.66942252  0.80723241  1
  O2-  O393  1  0.12135087  0.88352230  0.14076192  1
  O2-  O394  1  0.11089074  0.90699059  0.52206873  1
  O2-  O395  1  0.07949747  0.92635902  0.81412581  1
  O2-  O396  1  0.31525741  0.16219543  0.14826111  1
  O2-  O397  1  0.34405413  0.19080887  0.49217855  1
  O2-  O398  1  0.32460328  0.16357461  0.81899069  1
  O2-  O399  1  0.34549825  0.43668634  0.13812250  1
  O2-  O400  1  0.32294227  0.39445984  0.47744529  1
  O2-  O401  1  0.34344049  0.40994753  0.83501177  1
  O2-  O402  1  0.32592831  0.66941375  0.14682625  1
  O2-  O403  1  0.34268571  0.69374267  0.47117687  1
  O2-  O404  1  0.33007205  0.66438300  0.81196882  1
  O2-  O405  1  0.30810637  0.89664580  0.15866802  1
  O2-  O406  1  0.34373767  0.93026533  0.48476849  1
  O2-  O407  1  0.33837353  0.91851192  0.82045519  1
  O2-  O408  1  0.52887110  0.09196952  0.13141089  1
  O2-  O409  1  0.58105876  0.16362323  0.48315500  1
  O2-  O410  1  0.60386316  0.16156895  0.80584118  1
  O2-  O411  1  0.58107338  0.42585741  0.14695526  1
  O2-  O412  1  0.57932635  0.39308084  0.46009610  1
  O2-  O413  1  0.58287097  0.41763268  0.81198570  1
  O2-  O414  1  0.58197665  0.67241890  0.14126084  1
  O2-  O415  1  0.57743745  0.65466160  0.48011453  1
  O2-  O416  1  0.58234145  0.67207646  0.80905131  1
  O2-  O417  1  0.57064047  0.89273294  0.14109649  1
  O2-  O418  1  0.59207667  0.92598876  0.47601818  1
  O2-  O419  1  0.57968298  0.91381294  0.79740627  1
  O2-  O420  1  0.82445207  0.14641169  0.14951942  1
  O2-  O421  1  0.84573372  0.16315285  0.49335294  1
  O2-  O422  1  0.85368456  0.17613653  0.80237021  1
  O2-  O423  1  0.83734805  0.42570893  0.14136307  1
  O2-  O424  1  0.81677259  0.44498316  0.45799897  1
  O2-  O425  1  0.83316716  0.41957087  0.81239709  1
  O2-  O426  1  0.82018906  0.68110024  0.13199468  1
  O2-  O427  1  0.84336390  0.68607965  0.47697192  1
  O2-  O428  1  0.82704628  0.66948935  0.81480301  1
  O2-  O429  1  0.82897064  0.92030954  0.14161503  1
  O2-  O430  1  0.85386191  0.93285465  0.49252685  1
  O2-  O431  1  0.83313487  0.92348584  0.80263786  1
  O2-  O432  1  0.14885478  0.04061792  0.18144859  1
  O2-  O433  1  0.17533003  0.08640973  0.52939768  1
  O2-  O434  1  0.15777035  0.08921216  0.85327945  1
  O2-  O435  1  0.17265177  0.36715844  0.17350443  1
  O2-  O436  1  0.15717139  0.31972362  0.52158126  1
  O2-  O437  1  0.16371148  0.33586166  0.83563206  1
  O2-  O438  1  0.16994045  0.60287076  0.19065310  1
  O2-  O439  1  0.19190809  0.57107124  0.51144568  1
  O2-  O440  1  0.17924432  0.56707385  0.87349705  1
  O2-  O441  1  0.14832686  0.84586117  0.18846215  1
  O2-  O442  1  0.14279762  0.77289616  0.49178094  1
  O2-  O443  1  0.15876678  0.82993682  0.84890549  1
  O2-  O444  1  0.38362553  0.06729010  0.18048758  1
  O2-  O445  1  0.41600318  0.09572972  0.52404158  1
  O2-  O446  1  0.37792009  0.06194976  0.87159000  1
  O2-  O447  1  0.40569965  0.33901324  0.18553216  1
  O2-  O448  1  0.40033517  0.33646162  0.54271124  1
  O2-  O449  1  0.42920139  0.32602572  0.86144123  1
  O2-  O450  1  0.42081643  0.59330805  0.18169329  1
  O2-  O451  1  0.41654882  0.60039018  0.51931463  1
  O2-  O452  1  0.42313621  0.59240024  0.85074693  1
  O2-  O453  1  0.41157489  0.83186183  0.18928699  1
  O2-  O454  1  0.43284940  0.84985135  0.52192525  1
  O2-  O455  1  0.41233014  0.82503430  0.85083361  1
  O2-  O456  1  0.64440197  0.05191640  0.17502326  1
  O2-  O457  1  0.67652722  0.08682723  0.52282232  1
  O2-  O458  1  0.69683579  0.09585641  0.85948769  1
  O2-  O459  1  0.68801754  0.38106409  0.19746845  1
  O2-  O460  1  0.66788996  0.33062419  0.52075177  1
  O2-  O461  1  0.66419433  0.33169531  0.85356094  1
  O2-  O462  1  0.66843454  0.59568391  0.18366140  1
  O2-  O463  1  0.66999802  0.57385355  0.46733163  1
  O2-  O464  1  0.66025502  0.58627227  0.85474085  1
  O2-  O465  1  0.66569200  0.83171992  0.18980937  1
  O2-  O466  1  0.67887108  0.84829569  0.50418606  1
  O2-  O467  1  0.66834983  0.84047974  0.84897408  1
  O2-  O468  1  0.90640167  0.07336582  0.19414951  1
  O2-  O469  1  0.90903025  0.07752040  0.55884262  1
  O2-  O470  1  0.92415714  0.08585864  0.84979403  1
  O2-  O471  1  0.92895086  0.35724457  0.18827534  1
  O2-  O472  1  0.92417656  0.33150671  0.52265451  1
  O2-  O473  1  0.90787900  0.33087540  0.85347396  1
  O2-  O474  1  0.89860709  0.59389952  0.16593275  1
  O2-  O475  1  0.91886546  0.58929606  0.51529722  1
  O2-  O476  1  0.90868472  0.59146057  0.84965950  1
  O2-  O477  1  0.91440771  0.84805769  0.17884739  1
  O2-  O478  1  0.91085466  0.83726202  0.52760847  1
  O2-  O479  1  0.91251707  0.83921530  0.85153981  1
  O2-  O480  1  0.15139262  0.07267205  0.30355819  1
  O2-  O481  1  0.16116352  0.08994438  0.65100945  1
  O2-  O482  1  0.17128929  0.07652553  0.97989339  1
  O2-  O483  1  0.16148226  0.33424982  0.28747019  1
  O2-  O484  1  0.14928869  0.31297665  0.64528931  1
  O2-  O485  1  0.16042645  0.36809926  0.99322495  1
  O2-  O486  1  0.18056290  0.59174443  0.35517273  1
  O2-  O487  1  0.19289862  0.64039077  0.63433315  1
  O2-  O488  1  0.16442664  0.61834177  0.98001538  1
  O2-  O489  1  0.17851941  0.85685364  0.32257015  1
  O2-  O490  1  0.07545503  0.80591488  0.62325008  1
  O2-  O491  1  0.12464756  0.77459575  1.02437283  1
  O2-  O492  1  0.41310359  0.07694631  0.29372889  1
  O2-  O493  1  0.38697916  0.07296246  0.64241674  1
  O2-  O494  1  0.39090456  0.05325273  0.99830014  1
  O2-  O495  1  0.41054335  0.31202824  0.34440893  1
  O2-  O496  1  0.39341187  0.33210080  0.65827538  1
  O2-  O497  1  0.43721948  0.32179690  0.98726177  1
  O2-  O498  1  0.36799895  0.55039686  0.30189978  1
  O2-  O499  1  0.43030042  0.61795290  0.63819433  1
  O2-  O500  1  0.40877031  0.59611430  0.96493104  1
  O2-  O501  1  0.42654405  0.84025931  0.31305502  1
  O2-  O502  1  0.44085973  0.85324964  0.65001909  1
  O2-  O503  1  0.42836650  0.82741547  0.97527802  1
  O2-  O504  1  0.66385939  0.08298987  0.28834180  1
  O2-  O505  1  0.66764995  0.07786880  0.64981011  1
  O2-  O506  1  0.67620170  0.08359360  0.98879394  1
  O2-  O507  1  0.69064120  0.35434741  0.33236626  1
  O2-  O508  1  0.67067136  0.31855933  0.64556680  1
  O2-  O509  1  0.67227752  0.35837242  0.97755257  1
  O2-  O510  1  0.68258043  0.58851602  0.34349762  1
  O2-  O511  1  0.66366262  0.59849765  0.65904409  1
  O2-  O512  1  0.65203737  0.59480840  0.97806730  1
  O2-  O513  1  0.67552069  0.84248167  0.31430597  1
  O2-  O514  1  0.66896789  0.82662116  0.63636941  1
  O2-  O515  1  0.67074364  0.83583080  0.97640470  1
  O2-  O516  1  0.92672090  0.08444114  0.31280521  1
  O2-  O517  1  0.84709671  0.04423320  0.60959643  1
  O2-  O518  1  0.91722623  0.08758075  0.97134565  1
  O2-  O519  1  0.91766399  0.32701284  0.31213268  1
  O2-  O520  1  0.91928109  0.32530506  0.63968844  1
  O2-  O521  1  0.91017647  0.33659078  0.97530833  1
  O2-  O522  1  0.94682326  0.60272961  0.29333132  1
  O2-  O523  1  0.96145709  0.55140638  0.62919262  1
  O2-  O524  1  0.90921005  0.59109933  0.97368590  1
  O2-  O525  1  0.92574817  0.84381504  0.30602372  1
  O2-  O526  1  0.90615345  0.83650275  0.64170348  1
  O2-  O527  1  0.91010083  0.84045779  0.97581776  1
  O2-  O528  1  0.06805142  0.14022436  0.01902339  1
  O2-  O529  1  0.08410977  0.14907287  0.35343377  1
  O2-  O530  1  0.07960366  0.16286185  0.69356172  1
  O2-  O531  1  0.07634093  0.44856272  0.02166570  1
  O2-  O532  1  0.08305665  0.41430361  0.34706882  1
  O2-  O533  1  0.06971766  0.40643836  0.68639891  1
  O2-  O534  1  0.08824903  0.70279462  -0.01009968  1
  O2-  O535  1  0.10213391  0.68448467  0.35397801  1
  O2-  O536  1  0.08825973  0.68968803  0.67920230  1
  O2-  O537  1  0.08459364  0.90956649  -0.00048582  1
  O2-  O538  1  0.08890523  0.92950941  0.35303668  1
  O2-  O539  1  0.06236446  0.92263471  0.68865276  1
  O2-  O540  1  0.33006289  0.15843409  0.02859084  1
  O2-  O541  1  0.31855134  0.13395428  0.34533003  1
  O2-  O542  1  0.32290053  0.16830556  0.69457787  1
  O2-  O543  1  0.33070446  0.43952203  0.00750978  1
  O2-  O544  1  0.31456440  0.38886622  0.34740897  1
  O2-  O545  1  0.29940936  0.38294634  0.71115413  1
  O2-  O546  1  0.32474307  0.67443931  0.01740575  1
  O2-  O547  1  0.33885724  0.68621479  0.35802720  1
  O2-  O548  1  0.34500681  0.69517208  0.68981967  1
  O2-  O549  1  0.30406944  0.88870026  0.04319424  1
  O2-  O550  1  0.34759630  0.92486822  0.35862092  1
  O2-  O551  1  0.43212481  0.97296000  0.71845218  1
  O2-  O552  1  0.55509285  0.11252789  0.02036122  1
  O2-  O553  1  0.64483852  0.19197452  0.36055786  1
  O2-  O554  1  0.59461083  0.15877270  0.68497860  1
  O2-  O555  1  0.58538736  0.43825565  0.02419574  1
  O2-  O556  1  0.60138076  0.41890137  0.33638019  1
  O2-  O557  1  0.56529809  0.43084686  0.69492156  1
  O2-  O558  1  0.59637131  0.69004682  0.02376693  1
  O2-  O559  1  0.60120545  0.67443478  0.34892032  1
  O2-  O560  1  0.57723280  0.67587278  0.68893299  1
  O2-  O561  1  0.59602636  0.91599386  0.01880821  1
  O2-  O562  1  0.58684180  0.92187343  0.35238285  1
  O2-  O563  1  0.59613078  0.92627478  0.68457481  1
  O2-  O564  1  0.84443937  0.17620587  0.02503961  1
  O2-  O565  1  0.84623424  0.16231886  0.37244892  1
  O2-  O566  1  0.83501151  0.16114277  0.67806519  1
  O2-  O567  1  0.83025833  0.42574618  0.01729310  1
  O2-  O568  1  0.85808030  0.43309546  0.33732413  1
  O2-  O569  1  0.84371863  0.40387593  0.69012641  1
  O2-  O570  1  0.82166068  0.67219837  0.01061519  1
  O2-  O571  1  0.85740050  0.67846769  0.35297336  1
  O2-  O572  1  0.79571217  0.70081965  0.70934220  1
  O2-  O573  1  0.82939000  0.92145882  0.01735110  1
  O2-  O574  1  0.84143933  0.92356624  0.35902456  1
  O2-  O575  1  0.83054580  0.91621518  0.68050525  1
