# generated using pymatgen
data_H2O
_symmetry_space_group_name_H-M   'P 1'
_cell_length_a   17.98851145
_cell_length_b   17.98513116
_cell_length_c   21.99461400
_cell_angle_alpha   89.99738197
_cell_angle_beta   89.98116479
_cell_angle_gamma   120.01294497
_symmetry_Int_Tables_number   1
_chemical_formula_structural   H2O
_chemical_formula_sum   'H384 O192'
_cell_volume   6161.67959294
_cell_formula_units_Z   192
loop_
 _symmetry_equiv_pos_site_id
 _symmetry_equiv_pos_as_xyz
  1  'x, y, z'
loop_
 _atom_type_symbol
 _atom_type_oxidation_number
  H+  1.0
  O2-  -2.0
loop_
 _atom_site_type_symbol
 _atom_site_label
 _atom_site_symmetry_multiplicity
 _atom_site_fract_x
 _atom_site_fract_y
 _atom_site_fract_z
 _atom_site_occupancy
  H+  H0  1  0.89962559  0.74897665  0.01871677  1
  H+  H1  1  0.49923936  0.86114404  0.50553104  1
  H+  H2  1  0.47927989  0.86693026  0.17665879  1
  H+  H3  1  0.87219280  0.73371115  0.66190279  1
  H+  H4  1  0.88760223  0.62982926  0.18666191  1
  H+  H5  1  0.39964287  0.41983586  0.68762937  1
  H+  H6  1  0.14049051  0.34824766  0.85095057  1
  H+  H7  1  1.09361924  0.66940607  0.26857806  1
  H+  H8  1  0.88009577  0.36865588  0.15524219  1
  H+  H9  1  0.60461746  0.22167480  0.83540188  1
  H+  H10  1  0.21956817  0.60534639  0.34849073  1
  H+  H11  1  -0.02141087  0.36874577  0.15511484  1
  H+  H12  1  0.34053836  0.16110162  0.72931192  1
  H+  H13  1  0.88869156  0.35563875  0.66732881  1
  H+  H14  1  0.60122875  0.98452486  0.68262416  1
  H+  H15  1  0.60812387  0.88407767  0.33370859  1
  H+  H16  1  0.27933710  0.12515162  0.67106806  1
  H+  H17  1  1.03970044  0.63750751  0.83297749  1
  H+  H18  1  0.12473990  0.02874055  0.51479441  1
  H+  H19  1  0.88644143  0.36182255  0.98652530  1
  H+  H20  1  0.41161446  0.09801483  0.51781621  1
  H+  H21  1  0.03307573  0.39161228  -0.00492052  1
  H+  H22  1  0.77507893  0.14881536  0.16406239  1
  H+  H23  1  0.83234405  0.15256382  0.77187339  1
  H+  H24  1  0.37477529  0.14399729  0.01246014  1
  H+  H25  1  0.53692445  0.38647224  0.32455998  1
  H+  H26  1  0.13237189  0.60770411  0.67198557  1
  H+  H27  1  0.27671620  0.65264060  0.81020270  1
  H+  H28  1  0.36662767  0.45372666  0.34526952  1
  H+  H29  1  0.61380467  0.88469761  0.15965000  1
  H+  H30  1  0.30670352  0.29418852  0.97598863  1
  H+  H31  1  0.27893802  0.88654374  0.15945968  1
  H+  H32  1  0.12808412  0.52593373  0.16129880  1
  H+  H33  1  0.13992202  0.87437668  0.16601041  1
  H+  H34  1  0.10309485  0.22316783  0.11301829  1
  H+  H35  1  0.10258594  0.69954672  0.51861040  1
  H+  H36  1  0.11246897  0.73258222  0.17319541  1
  H+  H37  1  0.87333591  0.13247999  0.83052102  1
  H+  H38  1  0.53132012  0.47840488  0.69772696  1
  H+  H39  1  0.48709140  0.87531025  0.32533531  1
  H+  H40  1  0.88264368  0.24072429  0.48906173  1
  H+  H41  1  0.47356240  0.11399671  0.84532821  1
  H+  H42  1  0.63537091  0.12563493  1.01544052  1
  H+  H43  1  0.73483510  0.62087476  0.32048650  1
  H+  H44  1  0.36539498  0.51098458  0.86781107  1
  H+  H45  1  0.37994635  0.01983572  0.33129923  1
  H+  H46  1  0.90368289  0.61785654  0.99946101  1
  H+  H47  1  0.58366253  0.36686803  0.00515975  1
  H+  H48  1  -0.02448448  0.84897543  0.49290608  1
  H+  H49  1  0.96836616  0.19274013  0.22175336  1
  H+  H50  1  0.60661026  0.22421875  0.49172232  1
  H+  H51  1  0.70518094  0.59240779  1.00622464  1
  H+  H52  1  0.89225776  0.11580825  0.00189524  1
  H+  H53  1  0.77254534  0.37189722  0.15298854  1
  H+  H54  1  0.33472786  0.91707667  0.77530249  1
  H+  H55  1  0.11629866  0.38572625  0.50116051  1
  H+  H56  1  0.22548470  0.36239817  0.51477551  1
  H+  H57  1  0.01288623  0.37515218  0.34121016  1
  H+  H58  1  0.60279029  0.38857719  0.48804809  1
  H+  H59  1  0.24070379  0.11585009  -0.00700020  1
  H+  H60  1  0.70728368  0.65132415  0.88886073  1
  H+  H61  1  0.83816423  0.74883129  0.47214498  1
  H+  H62  1  0.60413515  0.71432875  0.66685789  1
  H+  H63  1  0.64320014  0.77477516  0.33062850  1
  H+  H64  1  0.86687413  0.72672338  0.82186651  1
  H+  H65  1  0.63655900  0.26251703  0.17306651  1
  H+  H66  1  0.20528019  0.59749698  0.92064291  1
  H+  H67  1  0.12362223  0.76460713  0.34337097  1
  H+  H68  1  0.16418212  0.89840768  0.50987837  1
  H+  H69  1  0.64672565  0.52846308  0.32416868  1
  H+  H70  1  0.88585849  0.51346475  0.32708359  1
  H+  H71  1  0.51082834  0.88035964  1.00045115  1
  H+  H72  1  0.87361949  0.65044255  0.33763015  1
  H+  H73  1  0.87929832  0.57780221  0.47590924  1
  H+  H74  1  0.89005410  0.78347275  0.18295010  1
  H+  H75  1  0.07539728  0.90900310  0.42054456  1
  H+  H76  1  0.60956282  0.64389264  0.82046879  1
  H+  H77  1  0.38496806  0.75195933  0.49880179  1
  H+  H78  1  0.83635848  0.91791822  0.39806535  1
  H+  H79  1  0.26686996  0.38618988  0.35045531  1
  H+  H80  1  0.20551305  0.34977458  0.15326709  1
  H+  H81  1  0.98362262  0.10875198  0.84522639  1
  H+  H82  1  0.11221256  0.10129536  0.30832720  1
  H+  H83  1  0.20020606  0.66643000  0.83430073  1
  H+  H84  1  0.69523088  0.85379639  0.02700128  1
  H+  H85  1  0.78156376  0.89663912  0.49305020  1
  H+  H86  1  0.72386704  0.86223892  0.66094111  1
  H+  H87  1  0.37489174  0.71630336  0.01240800  1
  H+  H88  1  0.78005809  0.37851593  0.32905093  1
  H+  H89  1  0.93398258  0.35015820  0.80752540  1
  H+  H90  1  0.36102564  0.39179415  0.83124482  1
  H+  H91  1  0.24788159  0.40553653  0.69391457  1
  H+  H92  1  0.64454579  0.36357936  0.32115177  1
  H+  H93  1  0.38388703  0.02641647  0.84629424  1
  H+  H94  1  0.63310577  0.11605608  0.18171270  1
  H+  H95  1  0.78053696  0.63639388  0.81647722  1
  H+  H96  1  0.63846836  0.86705151  0.66103092  1
  H+  H97  1  0.62763264  0.25834047  0.65736329  1
  H+  H98  1  0.62683463  0.27400870  1.00230630  1
  H+  H99  1  0.39520290  0.54685853  -0.03778915  1
  H+  H100  1  0.71829297  0.63236213  -0.01289934  1
  H+  H101  1  0.87740524  0.25420889  0.83324461  1
  H+  H102  1  0.89573077  0.13233672  0.49869387  1
  H+  H103  1  0.37710897  0.53181087  0.50767482  1
  H+  H104  1  0.85924253  0.47207488  1.00133025  1
  H+  H105  1  0.39304382  0.25910678  0.29778822  1
  H+  H106  1  0.38286208  0.62376769  0.50584489  1
  H+  H107  1  0.70629884  0.82208875  1.01288335  1
  H+  H108  1  0.28710789  0.69636443  0.47666353  1
  H+  H109  1  0.61973820  0.87713088  0.48951521  1
  H+  H110  1  0.79689455  0.10392274  0.66567560  1
  H+  H111  1  0.62854328  0.52019413  0.49978448  1
  H+  H112  1  0.60828369  0.22201524  0.33729115  1
  H+  H113  1  0.11617967  0.72793279  0.67903764  1
  H+  H114  1  0.98814719  0.26778448  0.26600229  1
  H+  H115  1  0.57660382  0.17032723  0.21975619  1
  H+  H116  1  0.77727240  0.64823361  0.16801627  1
  H+  H117  1  0.03594545  0.13142842  0.67683633  1
  H+  H118  1  0.16628673  0.57378408  0.61683896  1
  H+  H119  1  0.34224591  0.45898922  0.16681527  1
  H+  H120  1  0.02861509  0.86200772  0.70868898  1
  H+  H121  1  0.09406085  0.83718298  0.43255205  1
  H+  H122  1  0.36640343  0.72603861  0.16421524  1
  H+  H123  1  0.40244445  0.64566712  0.32738642  1
  H+  H124  1  0.23793297  0.60726590  -0.01223326  1
  H+  H125  1  0.36028548  0.40075994  0.50178711  1
  H+  H126  1  0.53324239  0.40113586  0.66668060  1
  H+  H127  1  0.58690141  0.95441136  0.83740214  1
  H+  H128  1  0.64638977  0.53557669  0.65084679  1
  H+  H129  1  0.46665529  0.11026092  0.32924413  1
  H+  H130  1  0.74823140  0.14774380  0.68985628  1
  H+  H131  1  0.56856943  0.68746325  0.01671631  1
  H+  H132  1  0.60986759  0.92678856  -0.02229681  1
  H+  H133  1  0.14131188  0.86601411  0.84460533  1
  H+  H134  1  0.86098636  0.60561193  0.46621022  1
  H+  H135  1  0.11493098  0.63180774  0.32770153  1
  H+  H136  1  0.12793476  0.51751837  0.34804399  1
  H+  H137  1  0.87230005  0.90123028  0.48930702  1
  H+  H138  1  0.66817912  0.58614452  0.23378371  1
  H+  H139  1  0.64372810  0.11030778  0.52411341  1
  H+  H140  1  0.86995658  0.23272522  0.33597236  1
  H+  H141  1  0.89375064  0.87077354  0.64970311  1
  H+  H142  1  0.88553321  0.52011651  0.84702887  1
  H+  H143  1  0.60964926  0.09181862  0.85640610  1
  H+  H144  1  0.51712119  0.39391575  0.48214637  1
  H+  H145  1  0.38951280  0.97206221  0.49877218  1
  H+  H146  1  0.13203446  1.00981713  0.66592546  1
  H+  H147  1  0.77706575  0.14285414  0.01300947  1
  H+  H148  1  0.64592665  0.86497420  0.80487556  1
  H+  H149  1  0.40307138  0.25039110  0.64835325  1
  H+  H150  1  0.10919325  0.63821753  0.17006850  1
  H+  H151  1  0.26293371  0.63149576  0.68851319  1
  H+  H152  1  0.63469536  0.36513054  0.84236085  1
  H+  H153  1  0.23048314  0.35252196  0.85311977  1
  H+  H154  1  0.36894041  -0.02485008  0.16151956  1
  H+  H155  1  0.37358421  0.38684731  0.99484012  1
  H+  H156  1  0.48992390  0.35549614  0.01780506  1
  H+  H157  1  0.92704832  0.09381967  0.59355431  1
  H+  H158  1  0.51825642  0.13884670  1.02053055  1
  H+  H159  1  0.36864984  0.62358671  0.02251888  1
  H+  H160  1  0.91782464  0.13197144  0.65629259  1
  H+  H161  1  0.34128698  0.66668902  0.10260336  1
  H+  H162  1  0.11094765  0.22003826  0.32831480  1
  H+  H163  1  0.10213283  0.38523813  0.14121056  1
  H+  H164  1  0.15214815  0.02902213  0.98760421  1
  H+  H165  1  0.45702848  0.84320684  0.84218302  1
  H+  H166  1  0.89176376  0.99960889  0.02338355  1
  H+  H167  1  0.62448787  0.60894680  0.50801422  1
  H+  H168  1  0.42438289  0.15203021  0.43221234  1
  H+  H169  1  0.14707461  0.02873324  0.84012953  1
  H+  H170  1  0.99317025  0.55692014  0.51566793  1
  H+  H171  1  0.13179481  0.86454108  0.67512639  1
  H+  H172  1  0.12607595  0.47668626  -0.00937562  1
  H+  H173  1  0.41667809  0.29162164  0.19884312  1
  H+  H174  1  0.33163170  0.49743540  0.69280335  1
  H+  H175  1  0.21750701  0.61227013  0.16665683  1
  H+  H176  1  0.45608295  0.19694050  0.44265522  1
  H+  H177  1  0.39109158  0.02410186  0.99748786  1
  H+  H178  1  0.92227987  0.39887572  0.52262017  1
  H+  H179  1  0.88521585  0.02427690  0.32348624  1
  H+  H180  1  0.27945520  0.88607455  0.00732475  1
  H+  H181  1  0.39810577  0.33375861  0.64759655  1
  H+  H182  1  0.26936688  0.87859098  0.68434149  1
  H+  H183  1  0.38741981  0.77273219  0.66806635  1
  H+  H184  1  0.62880464  0.10558923  0.32912821  1
  H+  H185  1  0.89075794  0.86124377  0.83681797  1
  H+  H186  1  0.24664380  0.15203210  0.48352563  1
  H+  H187  1  0.65256964  0.68242690  0.03160983  1
  H+  H188  1  0.64106102  0.77334387  0.17678279  1
  H+  H189  1  0.77515903  0.88497401  0.16756309  1
  H+  H190  1  0.92848760  0.79813463  0.32660284  1
  H+  H191  1  0.84770688  0.91980262  0.72625107  1
  H+  H192  1  0.38507167  0.62542860  0.16978604  1
  H+  H193  1  0.12659170  0.89120040  1.00251947  1
  H+  H194  1  0.99895160  0.87301530  0.99242116  1
  H+  H195  1  0.11794242  0.13230050  0.83006307  1
  H+  H196  1  0.92520716  0.33508079  0.27127188  1
  H+  H197  1  0.55139891  0.79489356  0.98901220  1
  H+  H198  1  0.41103276  0.86697649  0.51068887  1
  H+  H199  1  0.71318841  0.35309475  0.84991851  1
  H+  H200  1  0.02967766  0.89034277  0.15320394  1
  H+  H201  1  0.97698564  0.60475017  0.32137567  1
  H+  H202  1  0.38350174  0.62232989  0.66242291  1
  H+  H203  1  0.89122578  0.48976718  0.68621088  1
  H+  H204  1  0.78098864  0.88682613  0.80511212  1
  H+  H205  1  0.33347842  0.16107585  0.46155491  1
  H+  H206  1  0.76674920  0.38473104  0.00055142  1
  H+  H207  1  0.37260198  0.28802134  0.49091311  1
  H+  H208  1  0.91231090  0.87560686  1.00062939  1
  H+  H209  1  0.69260243  0.47115209  0.10880747  1
  H+  H210  1  0.53003146  0.72851106  0.93499726  1
  H+  H211  1  1.03385797  0.89174136  0.82702130  1
  H+  H212  1  0.11675183  0.22023090  0.83248787  1
  H+  H213  1  0.53672969  0.12621757  0.49682367  1
  H+  H214  1  0.38663030  0.87114065  0.32719204  1
  H+  H215  1  0.12076861  0.10434485  0.14317192  1
  H+  H216  1  1.03011439  0.64251339  1.01476084  1
  H+  H217  1  0.74991618  0.62039034  0.64540727  1
  H+  H218  1  0.35765103  0.72863770  0.34420164  1
  H+  H219  1  0.36684744  0.14093284  0.82607545  1
  H+  H220  1  0.34055497  0.12602478  0.32632614  1
  H+  H221  1  0.64678077  0.77767141  0.79715422  1
  H+  H222  1  0.23997949  0.59912807  0.52742775  1
  H+  H223  1  0.58419821  0.41950806  0.38942015  1
  H+  H224  1  0.47873338  0.10423450  0.17709393  1
  H+  H225  1  0.36575556  0.22833039  0.00992746  1
  H+  H226  1  0.11453365  0.98348123  0.14870124  1
  H+  H227  1  0.68899576  0.35702577  0.66253343  1
  H+  H228  1  0.38476313  0.27859352  0.83558928  1
  H+  H229  1  0.88415431  0.11191864  0.32639348  1
  H+  H230  1  0.26903237  0.87598962  0.35478533  1
  H+  H231  1  0.51827147  0.63993301  0.49791364  1
  H+  H232  1  0.13240560  0.36937824  0.33667249  1
  H+  H233  1  0.39628943  0.15916227  0.16540980  1
  H+  H234  1  0.77723826  0.14220968  0.34141533  1
  H+  H235  1  0.55015713  0.55967077  0.98397178  1
  H+  H236  1  0.14720598  0.51522881  0.51844714  1
  H+  H237  1  0.01577401  0.37425041  0.68047282  1
  H+  H238  1  0.84380649  0.37370480  0.84032365  1
  H+  H239  1  0.86803734  0.22868175  1.00620217  1
  H+  H240  1  0.87033347  0.97252281  0.82445985  1
  H+  H241  1  0.58041459  0.16448963  0.39793849  1
  H+  H242  1  0.38830503  0.86751221  0.17639854  1
  H+  H243  1  0.13567265  0.26734448  0.66774897  1
  H+  H244  1  0.98402937  0.11969606  1.00516235  1
  H+  H245  1  0.14259789  0.77953584  1.00078637  1
  H+  H246  1  0.36206511  0.88960689  0.83684143  1
  H+  H247  1  0.55677682  0.47652358  -0.02363309  1
  H+  H248  1  1.03444341  0.36815916  0.84399448  1
  H+  H249  1  0.78029389  0.30020147  0.46549499  1
  H+  H250  1  0.60447553  0.63163402  0.17259325  1
  H+  H251  1  0.87446965  0.89221291  0.34164086  1
  H+  H252  1  0.98435921  0.87418217  0.64446878  1
  H+  H253  1  0.67877490  0.58438873  0.57847383  1
  H+  H254  1  0.10694268  0.13899440  0.51016908  1
  H+  H255  1  0.60875746  0.97544263  0.33679144  1
  H+  H256  1  0.75268924  0.65702633  0.47009027  1
  H+  H257  1  0.12041911  0.73215941  0.83131409  1
  H+  H258  1  0.64457558  0.77450645  0.50923207  1
  H+  H259  1  0.12222846  0.34980537  0.66691580  1
  H+  H260  1  0.27812902  0.14013808  0.82183045  1
  H+  H261  1  0.64816335  0.53446826  0.16962532  1
  H+  H262  1  0.62337200  0.63881169  0.34414696  1
  H+  H263  1  0.63375270  0.03708779  1.01870014  1
  H+  H264  1  0.29705004  0.89262174  0.50012186  1
  H+  H265  1  0.89346415  0.03776417  0.50030114  1
  H+  H266  1  0.87040820  0.97839954  0.66692149  1
  H+  H267  1  0.87018671  0.37841221  0.33430010  1
  H+  H268  1  0.80997018  0.90578313  0.02535205  1
  H+  H269  1  0.39116996  0.09861920  0.66058509  1
  H+  H270  1  0.89461498  0.61196959  0.65575789  1
  H+  H271  1  0.51331410  0.63034449  0.66762458  1
  H+  H272  1  0.38916117  0.38999555  0.71456492  1
  H+  H273  1  0.98123468  0.62766955  0.18733813  1
  H+  H274  1  0.38417313  0.85599127  0.99829297  1
  H+  H275  1  0.92231798  0.83725366  0.55430144  1
  H+  H276  1  0.03109545  0.39290296  0.50354828  1
  H+  H277  1  0.23669944  0.95740184  0.55617941  1
  H+  H278  1  0.11639484  0.22669998  0.01929724  1
  H+  H279  1  0.48199208  0.61954721  0.17341902  1
  H+  H280  1  0.64916280  0.32696144  0.93895903  1
  H+  H281  1  0.64501768  0.49964050  0.82760542  1
  H+  H282  1  0.13111105  0.63119627  0.50851215  1
  H+  H283  1  0.14133254  0.35232064  -0.00055332  1
  H+  H284  1  0.11453209  0.23633840  0.50760774  1
  H+  H285  1  0.89425143  0.61203420  0.83875310  1
  H+  H286  1  0.19394382  0.08917884  0.30092638  1
  H+  H287  1  0.22999200  0.86564755  0.84459987  1
  H+  H288  1  0.53671212  0.64323963  0.34340214  1
  H+  H289  1  0.58192647  0.90142015  0.43061120  1
  H+  H290  1  0.40989019  0.82451520  0.93757509  1
  H+  H291  1  0.69848683  0.89851523  0.90910638  1
  H+  H292  1  0.87222866  0.88797022  0.17398961  1
  H+  H293  1  0.69486494  0.85491712  0.90808461  1
  H+  H294  1  0.17491330  0.35602008  0.27758763  1
  H+  H295  1  0.69902355  0.34838710  0.50114329  1
  H+  H296  1  0.35865896  0.87738788  0.68032434  1
  H+  H297  1  0.59532028  0.42421613  0.09341049  1
  H+  H298  1  0.07963110  0.42493032  0.08572671  1
  H+  H299  1  0.11675815  0.84962717  0.33819552  1
  H+  H300  1  0.17418415  0.85654745  0.22765310  1
  H+  H301  1  0.83985774  0.67376370  0.72188476  1
  H+  H302  1  0.01927662  0.13478004  0.32707360  1
  H+  H303  1  0.64394963  0.09720016  0.59371657  1
  H+  H304  1  0.08252655  0.39839608  0.78025540  1
  H+  H305  1  0.80571145  0.37995857  0.42361938  1
  H+  H306  1  0.08979347  0.16075873  0.73957990  1
  H+  H307  1  0.64267836  0.32654607  0.56316985  1
  H+  H308  1  0.14046874  0.10347612  0.66866250  1
  H+  H309  1  0.66954137  0.32919480  0.26194104  1
  H+  H310  1  0.42142225  0.84531534  0.25889034  1
  H+  H311  1  0.58096576  0.91000162  0.10037730  1
  H+  H312  1  0.93643365  0.85351312  0.23669873  1
  H+  H313  1  0.11167798  0.29427524  0.18965513  1
  H+  H314  1  0.92261811  0.33466077  0.57044379  1
  H+  H315  1  0.91610062  0.33023719  0.92878606  1
  H+  H316  1  0.61946097  0.56709656  0.90228252  1
  H+  H317  1  0.58597321  0.15922497  0.77859453  1
  H+  H318  1  0.52167203  0.89098673  0.67593220  1
  H+  H319  1  0.42087667  0.08655843  0.93942899  1
  H+  H320  1  0.61011657  0.44648830  0.76720647  1
  H+  H321  1  0.15943605  0.07893350  0.57825891  1
  H+  H322  1  0.87418412  0.26035747  0.66264268  1
  H+  H323  1  0.10463198  0.46448779  0.68548318  1
  H+  H324  1  0.01139997  0.14004155  0.50243880  1
  H+  H325  1  0.08821437  0.66882323  0.73863531  1
  H+  H326  1  0.33956635  0.91449558  0.06656864  1
  H+  H327  1  0.07534699  0.96422548  0.31507292  1
  H+  H328  1  0.34492285  0.58380034  0.88501790  1
  H+  H329  1  0.84974588  0.68278686  0.11422086  1
  H+  H330  1  0.66219739  0.07804229  0.27029587  1
  H+  H331  1  0.35576604  0.76778082  0.85264477  1
  H+  H332  1  0.85167692  0.93093561  0.11125924  1
  H+  H333  1  0.38651672  0.00766520  0.66616442  1
  H+  H334  1  0.82948940  0.41561216  0.78231281  1
  H+  H335  1  0.93254020  0.53008951  0.57243527  1
  H+  H336  1  0.16397001  0.32890069  0.57508291  1
  H+  H337  1  0.32413536  0.42248917  0.44288524  1
  H+  H338  1  0.92358312  0.58509662  0.93696769  1
  H+  H339  1  0.42256903  0.82819658  0.60637410  1
  H+  H340  1  0.56554923  0.90960248  0.77206405  1
  H+  H341  1  0.81386202  0.66033150  0.02066727  1
  H+  H342  1  0.92322506  0.07934599  0.90430427  1
  H+  H343  1  0.09378421  0.92115030  0.06045474  1
  H+  H344  1  0.57717281  0.65941602  0.11168056  1
  H+  H345  1  0.88363539  0.27228027  0.16299095  1
  H+  H346  1  0.17360540  0.83375466  0.93765209  1
  H+  H347  1  0.30113454  0.16898123  0.36985883  1
  H+  H348  1  0.32652333  0.43166068  0.09760637  1
  H+  H349  1  0.18256557  0.09074243  0.89863169  1
  H+  H350  1  0.98509134  0.61629012  0.66436557  1
  H+  H351  1  0.09927586  0.92431452  0.77021795  1
  H+  H352  1  0.31714159  0.43283725  0.78565925  1
  H+  H353  1  0.43020717  0.06407199  0.58069415  1
  H+  H354  1  0.67269001  0.83499188  0.23496061  1
  H+  H355  1  0.17090443  0.84146520  0.61583569  1
  H+  H356  1  0.57700070  0.65962892  0.75666386  1
  H+  H357  1  0.07595530  0.67756774  0.07807871  1
  H+  H358  1  0.64171639  0.06815063  0.91634209  1
  H+  H359  1  0.07430825  0.40825739  0.40344802  1
  H+  H360  1  0.91197973  0.58605171  0.24949334  1
  H+  H361  1  0.48706938  0.70379833  0.29149643  1
  H+  H362  1  0.84998097  0.17892884  0.42986787  1
  H+  H363  1  0.42087439  0.60232230  0.23451295  1
  H+  H364  1  0.37232487  0.19941459  0.11044651  1
  H+  H365  1  0.13880230  0.07815024  0.20936737  1
  H+  H366  1  0.92132589  0.83272994  0.89702353  1
  H+  H367  1  0.16386160  0.31176822  0.94329408  1
  H+  H368  1  0.67278147  0.83828587  0.56596970  1
  H+  H369  1  0.94435323  0.46412711  0.72759052  1
  H+  H370  1  0.64678264  0.35838745  0.16553240  1
  H+  H371  1  0.63917166  0.02888797  0.17346805  1
  H+  H372  1  0.41913162  0.32650002  0.55449134  1
  H+  H373  1  0.34642607  0.67868072  0.40610542  1
  H+  H374  1  0.58228403  0.66578929  0.44046792  1
  H+  H375  1  0.82914490  0.40410163  0.09068829  1
  H+  H376  1  0.72932176  0.86454426  0.32707635  1
  H+  H377  1  0.34205900  0.90960882  0.40568943  1
  H+  H378  1  0.57242323  0.17220849  0.08257068  1
  H+  H379  1  0.83440082  0.17378357  0.10397269  1
  H+  H380  1  0.40298661  0.33494727  0.89496675  1
  H+  H381  1  0.83272214  0.69235799  0.38290971  1
  H+  H382  1  0.40940266  0.07210786  0.23134158  1
  H+  H383  1  0.40446005  0.58773707  0.60167953  1
  O2-  O384  1  0.07329649  0.16088442  0.10005716  1
  O2-  O385  1  0.08021610  0.17236346  0.49329820  1
  O2-  O386  1  0.08485057  0.16029866  0.81486704  1
  O2-  O387  1  0.07425521  0.42032558  0.13161002  1
  O2-  O388  1  0.09178939  0.42165281  0.48735425  1
  O2-  O389  1  0.09093179  0.40011667  0.82501019  1
  O2-  O390  1  0.07438695  0.66929404  0.16838063  1
  O2-  O391  1  0.09659670  0.65503464  0.49062007  1
  O2-  O392  1  0.09735443  0.67244746  0.81480689  1
  O2-  O393  1  0.08925704  0.91860529  0.13804041  1
  O2-  O394  1  0.08182671  0.87748997  0.45523598  1
  O2-  O395  1  0.09583080  0.92299003  0.81629838  1
  O2-  O396  1  0.39645372  0.21171867  0.15199416  1
  O2-  O397  1  0.29772117  0.18757306  0.45763584  1
  O2-  O398  1  0.33840425  0.16972135  0.80538050  1
  O2-  O399  1  0.30923762  0.40978523  0.14048136  1
  O2-  O400  1  0.32498753  0.42671337  0.48897598  1
  O2-  O401  1  0.32599003  0.42130486  0.82916044  1
  O2-  O402  1  0.34072667  0.66597120  0.14969569  1
  O2-  O403  1  0.33880595  0.69150333  0.47862107  1
  O2-  O404  1  0.34272776  0.65511483  0.75694853  1
  O2-  O405  1  0.34021737  0.91262804  0.14722314  1
  O2-  O406  1  0.35379854  0.91216402  0.48109710  1
  O2-  O407  1  0.33322262  0.92090861  0.82073803  1
  O2-  O408  1  0.58091663  0.16237579  0.17614885  1
  O2-  O409  1  0.59039652  0.16639465  0.47498135  1
  O2-  O410  1  0.57561096  0.16001166  0.82287047  1
  O2-  O411  1  0.63663735  0.44641780  0.12858908  1
  O2-  O412  1  0.57875094  0.42372611  0.46958632  1
  O2-  O413  1  0.64316893  0.45228531  0.80419369  1
  O2-  O414  1  0.57267900  0.66140270  0.15788892  1
  O2-  O415  1  0.57984117  0.66472685  0.48579718  1
  O2-  O416  1  0.58368475  0.67469151  0.80096165  1
  O2-  O417  1  0.57941039  0.91062270  0.14527740  1
  O2-  O418  1  0.58139563  0.89893358  0.47520156  1
  O2-  O419  1  0.56060172  0.89719974  0.81654886  1
  O2-  O420  1  0.83556809  0.18135044  0.14896372  1
  O2-  O421  1  0.85800095  0.18068306  0.47530772  1
  O2-  O422  1  0.84375374  0.16357408  0.81574340  1
  O2-  O423  1  0.83275313  0.40299058  0.13611054  1
  O2-  O424  1  0.78399415  0.35603705  0.46487307  1
  O2-  O425  1  0.82004520  0.41061946  0.82705415  1
  O2-  O426  1  0.84089212  0.67959795  0.15954038  1
  O2-  O427  1  0.79455137  0.70485400  0.44470917  1
  O2-  O428  1  0.84023129  0.66819093  0.80235846  1
  O2-  O429  1  0.83932829  0.91856728  0.15742887  1
  O2-  O430  1  0.84122660  0.93139278  0.47619759  1
  O2-  O431  1  0.84673234  0.91547999  0.80443395  1
  O2-  O432  1  0.14764859  0.07579465  0.16495557  1
  O2-  O433  1  0.15598189  0.08650074  0.53186353  1
  O2-  O434  1  0.17771076  0.09048573  0.85233103  1
  O2-  O435  1  0.14063829  0.31631876  0.15018602  1
  O2-  O436  1  0.16399299  0.32714736  0.52904065  1
  O2-  O437  1  0.16829396  0.31534372  0.86605670  1
  O2-  O438  1  0.15666562  0.58548838  0.17804037  1
  O2-  O439  1  0.17938630  0.57436375  0.53839557  1
  O2-  O440  1  0.25190093  0.66511145  0.84765568  1
  O2-  O441  1  0.16989713  0.84377882  0.18428362  1
  O2-  O442  1  0.20861455  0.90040546  0.53774182  1
  O2-  O443  1  0.16912400  0.83321872  0.85983626  1
  O2-  O444  1  0.41386750  0.07115134  0.18635178  1
  O2-  O445  1  0.43610463  0.06400782  0.53279084  1
  O2-  O446  1  0.41337641  0.08683457  0.86177381  1
  O2-  O447  1  0.42875249  0.33908548  0.22901012  1
  O2-  O448  1  0.41334828  0.34238468  0.51189667  1
  O2-  O449  1  0.41106080  0.33862175  0.85050519  1
  O2-  O450  1  0.41734695  0.59290715  0.18866544  1
  O2-  O451  1  0.41156350  0.59333883  0.52150058  1
  O2-  O452  1  0.38585820  0.56466282  0.89315769  1
  O2-  O453  1  0.42002792  0.83866281  0.19518058  1
  O2-  O454  1  0.43772883  0.83344761  0.52591694  1
  O2-  O455  1  0.40147181  0.82665687  0.86388625  1
  O2-  O456  1  0.66904315  0.08659029  0.19179681  1
  O2-  O457  1  0.65254455  0.07609062  0.55490482  1
  O2-  O458  1  0.62441722  0.05009430  0.87406477  1
  O2-  O459  1  0.67437455  0.32740345  0.18266858  1
  O2-  O460  1  0.64000782  0.32884458  0.51789867  1
  O2-  O461  1  0.65161695  0.32553042  0.86213282  1
  O2-  O462  1  0.66957255  0.59255006  0.18808949  1
  O2-  O463  1  0.65959048  0.58046226  0.51753528  1
  O2-  O464  1  0.66421150  0.59951229  0.86840599  1
  O2-  O465  1  0.67491533  0.83498570  0.18907751  1
  O2-  O466  1  0.67762594  0.83635048  0.52048186  1
  O2-  O467  1  0.68281529  0.84203780  0.79142408  1
  O2-  O468  1  1.01298654  0.25062288  0.23275060  1
  O2-  O469  1  0.92500890  0.09788137  0.51693882  1
  O2-  O470  1  0.92218860  0.07781540  0.85920568  1
  O2-  O471  1  0.91718894  0.33920711  0.17270143  1
  O2-  O472  1  0.92989054  0.34765432  0.52620916  1
  O2-  O473  1  0.90324378  0.31963365  0.84415033  1
  O2-  O474  1  0.91744009  0.59755613  0.20114351  1
  O2-  O475  1  0.94399965  0.50719975  0.53523711  1
  O2-  O476  1  0.92170210  0.58201514  0.85805334  1
  O2-  O477  1  0.92149336  0.84658519  0.19231821  1
  O2-  O478  1  0.92009215  0.83923013  0.50888225  1
  O2-  O479  1  0.91962143  0.82895311  0.85197687  1
  O2-  O480  1  0.13228967  0.06120299  0.29012457  1
  O2-  O481  1  0.16490609  0.06987726  0.64892600  1
  O2-  O482  1  0.18552529  0.08784157  0.97070321  1
  O2-  O483  1  0.16958480  0.34470195  0.32109917  1
  O2-  O484  1  0.15723706  0.32555212  0.64971855  1
  O2-  O485  1  0.16229304  0.31232463  0.98887746  1
  O2-  O486  1  0.15724157  0.58184819  0.34789230  1
  O2-  O487  1  0.16102186  0.57346214  0.66201708  1
  O2-  O488  1  0.18636664  0.57617595  0.96230897  1
  O2-  O489  1  0.14941462  0.82549340  0.35793836  1
  O2-  O490  1  0.16536945  0.83302965  0.66008138  1
  O2-  O491  1  0.17738774  0.83900618  0.98311014  1
  O2-  O492  1  0.40595887  0.07829218  0.31410122  1
  O2-  O493  1  0.41832067  0.06536817  0.64630399  1
  O2-  O494  1  0.42200187  0.08585448  0.98520066  1
  O2-  O495  1  0.44950663  0.30776742  0.28411145  1
  O2-  O496  1  0.43273740  0.31057114  0.63077337  1
  O2-  O497  1  0.36899432  0.33115962  0.97890570  1
  O2-  O498  1  0.44854904  0.64337245  0.30145305  1
  O2-  O499  1  0.40656411  0.58609112  0.64678315  1
  O2-  O500  1  0.40487638  0.54784261  1.00832982  1
  O2-  O501  1  0.42196909  0.84555319  0.30839958  1
  O2-  O502  1  0.41742013  0.83219917  0.65117327  1
  O2-  O503  1  0.41480711  0.82539024  0.98352157  1
  O2-  O504  1  0.65810344  0.07348943  0.31590334  1
  O2-  O505  1  0.64588333  0.11537747  0.67953665  1
  O2-  O506  1  0.66578223  0.09482555  1.00106085  1
  O2-  O507  1  0.66993513  0.32822658  0.30744583  1
  O2-  O508  1  0.63736169  0.31436027  0.64180026  1
  O2-  O509  1  0.65280211  0.33294770  0.98459644  1
  O2-  O510  1  0.67287265  0.58959626  0.30947046  1
  O2-  O511  1  0.68952758  0.58770848  0.62716702  1
  O2-  O512  1  0.55262287  0.52149348  0.95308855  1
  O2-  O513  1  0.66811468  0.83351687  0.31242646  1
  O2-  O514  1  0.66561433  0.83579816  0.64306860  1
  O2-  O515  1  0.52889920  0.73388941  0.97906128  1
  O2-  O516  1  0.91405652  0.08353294  0.30767330  1
  O2-  O517  1  0.93144328  0.09024370  0.63908953  1
  O2-  O518  1  0.92318092  0.08498674  0.98922858  1
  O2-  O519  1  0.92611073  0.32557271  0.31491935  1
  O2-  O520  1  0.91240271  0.32094971  0.64979570  1
  O2-  O521  1  0.91895588  0.33287816  0.97355145  1
  O2-  O522  1  0.91332736  0.57579026  0.31331197  1
  O2-  O523  1  0.92454445  0.57898062  0.64929475  1
  O2-  O524  1  0.92262737  0.57920558  0.98228715  1
  O2-  O525  1  0.95591848  0.86051958  0.31340739  1
  O2-  O526  1  0.92312248  0.83986320  0.63221679  1
  O2-  O527  1  0.93465152  0.84045682  0.98235333  1
  O2-  O528  1  0.08123223  0.16225391  0.03361483  1
  O2-  O529  1  0.08113224  0.15849783  0.33855265  1
  O2-  O530  1  0.09494775  0.16148306  0.69355045  1
  O2-  O531  1  0.09210272  0.41966442  0.01181513  1
  O2-  O532  1  0.07676972  0.40961677  0.35846710  1
  O2-  O533  1  0.07424264  0.40315450  0.69892510  1
  O2-  O534  1  0.08507216  0.68435502  0.03403787  1
  O2-  O535  1  0.08458659  0.66465435  0.31266089  1
  O2-  O536  1  0.08524161  0.66625660  0.69284698  1
  O2-  O537  1  0.09430615  0.92125769  0.01494886  1
  O2-  O538  1  0.04686732  0.90312819  0.33409823  1
  O2-  O539  1  0.08402332  0.90741267  0.69419973  1
  O2-  O540  1  0.34393851  0.17238692  0.02998113  1
  O2-  O541  1  0.30865103  0.15821255  0.32706129  1
  O2-  O542  1  0.34064946  0.15620533  0.68345838  1
  O2-  O543  1  0.35539762  0.45966750  0.02538582  1
  O2-  O544  1  0.32429628  0.40773004  0.37061666  1
  O2-  O545  1  0.28777231  0.45366063  0.71999928  1
  O2-  O546  1  0.34272233  0.65968590  0.03315080  1
  O2-  O547  1  0.34099129  0.67144355  0.36037121  1
  O2-  O548  1  0.32671697  0.66961348  0.69579004  1
  O2-  O549  1  0.34113597  0.91538254  0.02128890  1
  O2-  O550  1  0.33252788  0.90553254  0.36014423  1
  O2-  O551  1  0.33088581  0.90872314  0.69782641  1
  O2-  O552  1  0.57794104  0.17285583  0.03801103  1
  O2-  O553  1  0.57496109  0.16146475  0.35225007  1
  O2-  O554  1  0.61490313  0.16355940  0.70000969  1
  O2-  O555  1  0.55162036  0.39424110  0.02329219  1
  O2-  O556  1  0.59374707  0.42324605  0.34451870  1
  O2-  O557  1  0.56995774  0.45654347  0.68796137  1
  O2-  O558  1  0.59174405  0.65572954  0.04144208  1
  O2-  O559  1  0.59493050  0.67031098  0.36112034  1
  O2-  O560  1  0.57451695  0.65342921  0.67938450  1
  O2-  O561  1  0.57407372  0.90611996  0.01414408  1
  O2-  O562  1  0.57349002  0.91093824  0.34674178  1
  O2-  O563  1  0.58175455  0.92406154  0.69186475  1
  O2-  O564  1  0.83885815  0.16998653  0.02458024  1
  O2-  O565  1  0.83778896  0.17086146  0.35437179  1
  O2-  O566  1  0.80760679  0.15412902  0.68947743  1
  O2-  O567  1  0.82791301  0.40996225  0.01332077  1
  O2-  O568  1  0.83928494  0.41051809  0.34635737  1
  O2-  O569  1  0.88632019  0.43979520  0.71121301  1
  O2-  O570  1  0.87188650  0.68956325  0.03815611  1
  O2-  O571  1  0.85128627  0.69068914  0.33934557  1
  O2-  O572  1  0.84086101  0.67273527  0.67636552  1
  O2-  O573  1  0.86790748  0.93905015  0.04259606  1
  O2-  O574  1  0.83371721  0.91155845  0.35267522  1
  O2-  O575  1  0.84324216  0.91798518  0.68059081  1
