# generated using pymatgen
data_H2O
_symmetry_space_group_name_H-M   'P 1'
_cell_length_a   17.98119614
_cell_length_b   17.98613264
_cell_length_c   21.98816435
_cell_angle_alpha   90.00984970
_cell_angle_beta   89.98933985
_cell_angle_gamma   120.03674228
_symmetry_Int_Tables_number   1
_chemical_formula_structural   H2O
_chemical_formula_sum   'H384 O192'
_cell_volume   6156.23308722
_cell_formula_units_Z   192
loop_
 _symmetry_equiv_pos_site_id
 _symmetry_equiv_pos_as_xyz
  1  'x, y, z'
loop_
 _atom_type_symbol
 _atom_type_oxidation_number
  H+  1.0
  O2-  -2.0
loop_
 _atom_site_type_symbol
 _atom_site_label
 _atom_site_symmetry_multiplicity
 _atom_site_fract_x
 _atom_site_fract_y
 _atom_site_fract_z
 _atom_site_occupancy
  H+  H0  1  0.35838533  0.63841328  0.16594347  1
  H+  H1  1  0.33363384  0.67169662  0.70133538  1
  H+  H2  1  0.23959916  0.36666852  0.16579313  1
  H+  H3  1  0.88340430  0.86364548  0.84065313  1
  H+  H4  1  0.34608861  0.74705924  0.80514120  1
  H+  H5  1  0.39638340  0.83443071  0.88820072  1
  H+  H6  1  0.21261705  0.87017827  0.50523880  1
  H+  H7  1  0.60449246  0.46343153  0.98977097  1
  H+  H8  1  0.43396469  0.49414925  0.85323948  1
  H+  H9  1  0.64516377  0.36191066  0.66523469  1
  H+  H10  1  0.16446857  0.58649433  0.94355049  1
  H+  H11  1  0.15246095  -0.01820248  0.68164876  1
  H+  H12  1  0.89125922  0.52407856  0.66827795  1
  H+  H13  1  0.61249433  0.09236722  0.34128839  1
  H+  H14  1  0.98866346  0.94730225  0.12255361  1
  H+  H15  1  0.47091811  0.61260319  0.15758132  1
  H+  H16  1  0.86992574  0.22931042  0.66670078  1
  H+  H17  1  0.09438784  -0.01655695  0.49646267  1
  H+  H18  1  0.52512389  0.86703728  0.35246657  1
  H+  H19  1  0.27174352  0.38541995  1.01218786  1
  H+  H20  1  0.51013041  0.68638558  0.39106242  1
  H+  H21  1  0.86507573  0.61144467  0.48930925  1
  H+  H22  1  0.98399035  0.12264708  0.32170768  1
  H+  H23  1  0.15733825  0.38023362  0.32768345  1
  H+  H24  1  0.88865098  0.52126164  0.17634566  1
  H+  H25  1  0.39478044  0.34914422  0.30917279  1
  H+  H26  1  0.86128992  0.13351870  0.16616976  1
  H+  H27  1  0.12367324  0.77562051  0.33378023  1
  H+  H28  1  0.76854592  0.38043283  0.35016035  1
  H+  H29  1  0.85956936  0.51223513  0.34113566  1
  H+  H30  1  0.00376975  0.36659000  0.48556493  1
  H+  H31  1  0.90582990  0.38686765  0.32581713  1
  H+  H32  1  0.64417512  0.59738849  0.50499798  1
  H+  H33  1  0.35818464  0.88498374  0.00373427  1
  H+  H34  1  0.40198237  0.50914342  0.67760777  1
  H+  H35  1  0.37659136  0.34039545  0.89975911  1
  H+  H36  1  0.96271058  0.84705045  0.50461698  1
  H+  H37  1  0.88824259  0.74931565  0.50454616  1
  H+  H38  1  0.77951388  0.39130935  0.15213541  1
  H+  H39  1  0.10430076  0.38280006  0.00177534  1
  H+  H40  1  0.77183455  0.90953648  0.17616783  1
  H+  H41  1  0.44660507  0.05539945  0.28394405  1
  H+  H42  1  0.02594891  0.39482775  0.69422340  1
  H+  H43  1  0.12871100  0.52601370  0.69351599  1
  H+  H44  1  0.52230887  0.62751771  0.34263888  1
  H+  H45  1  0.13769032  0.63364581  0.18215445  1
  H+  H46  1  0.11256396  0.38276356  0.15661372  1
  H+  H47  1  0.42277489  0.49278033  0.31083996  1
  H+  H48  1  0.12796654  0.86686094  0.33549244  1
  H+  H49  1  0.22215085  0.61328500  1.00204831  1
  H+  H50  1  0.64366100  0.77804065  0.83622033  1
  H+  H51  1  0.88211181  0.27086669  0.83961951  1
  H+  H52  1  0.11388866  0.78914628  0.50054362  1
  H+  H53  1  0.03519680  0.81278541  0.72966692  1
  H+  H54  1  0.35597071  0.23361315  0.14731116  1
  H+  H55  1  0.35718280  0.14487085  0.14329205  1
  H+  H56  1  0.63291232  0.61113192  -0.00728207  1
  H+  H57  1  0.11666161  -0.01370275  0.84058236  1
  H+  H58  1  0.12944290  0.86131982  0.85282195  1
  H+  H59  1  0.21395809  0.87746398  0.15804940  1
  H+  H60  1  0.10312405  0.90433892  0.13337620  1
  H+  H61  1  0.29208107  0.11371722  0.69037959  1
  H+  H62  1  0.14638701  0.54042393  0.33368211  1
  H+  H63  1  0.85314364  0.38031157  0.00313661  1
  H+  H64  1  0.24713102  0.56295200  0.88309856  1
  H+  H65  1  0.77880874  0.38961192  0.67518213  1
  H+  H66  1  0.42295685  0.57086031  0.56923865  1
  H+  H67  1  0.62098060  0.34737329  0.14341066  1
  H+  H68  1  0.09678068  0.63761767  0.34135820  1
  H+  H69  1  0.55546373  0.36696106  0.06995311  1
  H+  H70  1  0.08748390  0.92118617  -0.05055207  1
  H+  H71  1  0.13228430  0.60615087  0.45490157  1
  H+  H72  1  0.78323667  0.63769738  0.82772657  1
  H+  H73  1  0.27214641  0.61785386  0.51059511  1
  H+  H74  1  0.47383053  0.10469192  0.34597059  1
  H+  H75  1  0.49820330  0.34096060  0.13132274  1
  H+  H76  1  0.98032255  0.36516398  0.16890612  1
  H+  H77  1  0.76604276  0.12458020  0.01304253  1
  H+  H78  1  0.67136864  0.84417782  0.89068706  1
  H+  H79  1  0.12145714  0.11347763  -0.00297574  1
  H+  H80  1  0.97304411  0.86614048  0.84723626  1
  H+  H81  1  0.12118142  0.21845991  0.82996351  1
  H+  H82  1  0.43239964  0.65457642  0.48633329  1
  H+  H83  1  0.96392173  0.35562204  0.99443864  1
  H+  H84  1  0.62504778  0.14944270  0.83080807  1
  H+  H85  1  0.86550552  0.72142212  0.67196246  1
  H+  H86  1  0.62699943  0.88724583  0.58264291  1
  H+  H87  1  0.88894618  0.27852785  0.17627089  1
  H+  H88  1  0.16565857  0.35722587  0.84640183  1
  H+  H89  1  0.37714106  0.36362204  0.15701568  1
  H+  H90  1  0.26140402  0.58595016  0.48532696  1
  H+  H91  1  0.29227096  0.38516677  0.33307111  1
  H+  H92  1  0.51237976  0.37600842  -0.01823893  1
  H+  H93  1  0.77851271  0.14429663  0.66245802  1
  H+  H94  1  0.08583908  0.40277668  0.78814578  1
  H+  H95  1  0.88785375  0.50496020  0.51235303  1
  H+  H96  1  0.63059676  0.63827753  0.83217476  1
  H+  H97  1  0.35910404  0.89720762  0.15532801  1
  H+  H98  1  0.62808260  0.11730787  0.49266676  1
  H+  H99  1  0.15162036  0.64423664  0.47587920  1
  H+  H100  1  0.62710511  0.02378819  0.83491005  1
  H+  H101  1  0.56885081  0.39822637  0.43434637  1
  H+  H102  1  0.85073035  0.21829634  0.01006639  1
  H+  H103  1  0.37949020  0.76263631  0.49621919  1
  H+  H104  1  0.67983344  0.74597421  0.12545864  1
  H+  H105  1  0.01707025  0.63261606  0.67283080  1
  H+  H106  1  0.35700761  0.12491466  0.32580826  1
  H+  H107  1  0.86634137  -0.02949755  1.00881104  1
  H+  H108  1  0.05419119  0.03220476  0.62659049  1
  H+  H109  1  0.40359590  0.26593130  0.67647109  1
  H+  H110  1  0.85870835  0.72263204  0.01037659  1
  H+  H111  1  0.36002226  0.46304618  0.15343034  1
  H+  H112  1  0.22450657  0.12155251  0.16443927  1
  H+  H113  1  0.89089097  0.02639941  0.84137799  1
  H+  H114  1  0.61223068  0.45258430  0.33867470  1
  H+  H115  1  0.11277211  0.39341562  0.68931558  1
  H+  H116  1  0.91531082  0.86142916  0.18123571  1
  H+  H117  1  0.12901512  0.27252920  1.00064436  1
  H+  H118  1  0.36638582  0.87429547  0.83438846  1
  H+  H119  1  0.12312150  0.24266366  0.16080826  1
  H+  H120  1  0.33933748  0.87707340  0.49272548  1
  H+  H121  1  0.52826172  0.14432000  0.15472790  1
  H+  H122  1  0.47118733  0.87076508  0.16572859  1
  H+  H123  1  -0.06678191  0.35805748  0.26547561  1
  H+  H124  1  0.10255750  0.47117799  0.00582426  1
  H+  H125  1  0.52421445  0.40590271  0.82205262  1
  H+  H126  1  0.78752737  0.89741170  0.34426335  1
  H+  H127  1  0.63086788  0.35943992  0.50799953  1
  H+  H128  1  0.35985572  0.62998361  0.00758682  1
  H+  H129  1  0.89399028  0.61581082  0.84074765  1
  H+  H130  1  0.53339132  0.13438131  0.67252110  1
  H+  H131  1  0.21163617  0.36362746  0.65269678  1
  H+  H132  1  0.11994520  0.45808175  0.84763861  1
  H+  H133  1  0.60566187  0.74389054  0.16498515  1
  H+  H134  1  0.88511607  0.52622441  0.99541446  1
  H+  H135  1  0.63748928  0.92553823  0.99880511  1
  H+  H136  1  0.61887512  0.23152138  0.15557137  1
  H+  H137  1  0.90366241  0.39072108  0.65951970  1
  H+  H138  1  0.41755998  0.32935644  0.21255444  1
  H+  H139  1  0.62136847  0.46996737  0.67293184  1
  H+  H140  1  0.60396918  0.96030160  0.35107106  1
  H+  H141  1  0.59094841  0.85017263  0.18777245  1
  H+  H142  1  0.65840862  0.84773767  0.66466241  1
  H+  H143  1  0.73499950  0.60355264  0.65897467  1
  H+  H144  1  0.14997200  0.28777912  0.32542557  1
  H+  H145  1  0.86868967  0.38934885  0.15647578  1
  H+  H146  1  0.39799194  0.71662449  0.64781871  1
  H+  H147  1  0.78253930  0.64786773  0.17196037  1
  H+  H148  1  0.64044444  0.77506019  0.33614721  1
  H+  H149  1  0.34473228  0.88667706  0.67558293  1
  H+  H150  1  0.87849994  0.10613376  -0.00198287  1
  H+  H151  1  0.62480278  0.34009041  0.34013822  1
  H+  H152  1  0.63871017  0.11941420  0.17952738  1
  H+  H153  1  0.61702724  0.02435616  0.50571360  1
  H+  H154  1  0.11862262  0.27987113  0.66376188  1
  H+  H155  1  0.23458304  0.63187823  0.18275210  1
  H+  H156  1  0.77188748  0.13392243  0.82489341  1
  H+  H157  1  0.33736179  0.59581098  0.29521158  1
  H+  H158  1  0.40449029  0.35375745  0.67960327  1
  H+  H159  1  0.51097559  0.12955122  0.46805441  1
  H+  H160  1  0.53258488  0.13188301  0.00023325  1
  H+  H161  1  0.36059096  0.66963453  0.79550622  1
  H+  H162  1  0.53851179  0.62920405  0.83457589  1
  H+  H163  1  0.37106834  0.64093328  0.28711361  1
  H+  H164  1  -0.01331719  0.10843185  0.49109458  1
  H+  H165  1  0.89575315  0.86129527  0.65556875  1
  H+  H166  1  0.38024647  0.51336529  1.00339147  1
  H+  H167  1  0.76601219  0.38119208  0.49558228  1
  H+  H168  1  0.64605695  0.60232814  0.65988093  1
  H+  H169  1  0.22599850  0.61349560  0.83617115  1
  H+  H170  1  0.21992452  0.10841427  0.31395875  1
  H+  H171  1  0.88714528  0.87372981  0.33069139  1
  H+  H172  1  0.85453268  0.11024754  0.35441725  1
  H+  H173  1  0.39714858  0.59432318  0.66271618  1
  H+  H174  1  0.00174167  0.85138310  0.67815217  1
  H+  H175  1  0.73044188  0.86992732  -0.00504149  1
  H+  H176  1  0.40752144  0.09975758  0.21472236  1
  H+  H177  1  0.79436796  0.88290073  0.67920097  1
  H+  H178  1  0.02832322  0.13397281  0.83056296  1
  H+  H179  1  0.85757529  0.47503819  0.83165410  1
  H+  H180  1  0.58033965  0.50731346  0.13742650  1
  H+  H181  1  1.01357957  0.13703472  1.01146847  1
  H+  H182  1  0.30704618  0.37669205  0.73233847  1
  H+  H183  1  0.36906065  0.51256811  0.50941906  1
  H+  H184  1  0.65329121  0.75694289  0.67941309  1
  H+  H185  1  0.07713973  0.06622522  0.65024282  1
  H+  H186  1  0.64780726  0.27420449  0.66221103  1
  H+  H187  1  0.63220091  0.25473498  0.99955060  1
  H+  H188  1  0.10420901  0.90000503  0.49545558  1
  H+  H189  1  0.91799480  0.03257236  0.16868712  1
  H+  H190  1  0.50661112  0.89532690  0.81769439  1
  H+  H191  1  0.09761009  0.37650300  0.49196738  1
  H+  H192  1  0.02437145  0.63490741  0.17054317  1
  H+  H193  1  0.87629591  0.97668344  0.66846696  1
  H+  H194  1  0.49717966  0.75460586  0.47549290  1
  H+  H195  1  0.62171608  0.13364480  0.67238774  1
  H+  H196  1  0.64664153  0.52362928  0.84145837  1
  H+  H197  1  0.34568021  1.02767020  0.83630556  1
  H+  H198  1  0.88809299  0.97265050  0.44617386  1
  H+  H199  1  0.07703045  0.17207634  0.07014789  1
  H+  H200  1  0.13207984  0.86484951  0.99621326  1
  H+  H201  1  0.25188800  0.88501340  0.83155646  1
  H+  H202  1  0.87618619  0.98629191  0.33575456  1
  H+  H203  1  0.97656393  0.85930639  0.99011398  1
  H+  H204  1  0.82950721  0.13834493  0.46232346  1
  H+  H205  1  0.52022967  0.36509391  0.32987092  1
  H+  H206  1  0.76149370  0.12752874  0.51056515  1
  H+  H207  1  0.06977930  0.68964028  0.84265574  1
  H+  H208  1  0.84777897  0.92470221  0.76682658  1
  H+  H209  1  0.11226601  0.62688377  0.68095085  1
  H+  H210  1  0.46424798  0.87627378  0.69353450  1
  H+  H211  1  0.65948621  0.65174635  0.19320840  1
  H+  H212  1  0.39094183  0.25938982  0.31037529  1
  H+  H213  1  0.11741164  0.14946315  0.15905608  1
  H+  H214  1  0.00666122  0.65642085  0.48994738  1
  H+  H215  1  0.12759555  0.78932902  0.16302797  1
  H+  H216  1  0.11087674  0.23656183  0.48833280  1
  H+  H217  1  0.86861659  0.24908484  0.51086435  1
  H+  H218  1  0.89249611  0.61450385  0.66476594  1
  H+  H219  1  0.25061250  0.87955131  0.34455682  1
  H+  H220  1  0.39631282  0.41717773  0.76715915  1
  H+  H221  1  0.85039687  0.62310045  0.39054691  1
  H+  H222  1  0.86828979  0.72959456  0.82664449  1
  H+  H223  1  0.72521372  0.11478491  0.18536141  1
  H+  H224  1  0.27144701  0.88976070  0.00595092  1
  H+  H225  1  0.13474571  0.56026449  0.62757597  1
  H+  H226  1  0.53158912  0.37829379  0.67731854  1
  H+  H227  1  0.77824200  0.89343625  0.82144368  1
  H+  H228  1  0.85554244  0.38491691  0.83060680  1
  H+  H229  1  0.52276599  0.60846040  0.50258028  1
  H+  H230  1  0.55446907  0.88033022  0.62435400  1
  H+  H231  1  0.66921238  0.59653082  0.35672779  1
  H+  H232  1  0.25648795  0.88480372  0.66788311  1
  H+  H233  1  0.26234525  0.14674180  0.99738521  1
  H+  H234  1  0.48069641  0.93493352  0.30766041  1
  H+  H235  1  0.91810113  0.56911512  0.57175082  1
  H+  H236  1  0.21550820  0.37532666  0.50684008  1
  H+  H237  1  0.51815034  0.63667239  0.00434832  1
  H+  H238  1  0.76298530  0.10031325  0.36394374  1
  H+  H239  1  0.40530465  0.11823048  0.66176405  1
  H+  H240  1  0.59225923  0.65074249  0.74010203  1
  H+  H241  1  0.66058955  0.06633151  0.89975979  1
  H+  H242  1  0.26163725  0.04207727  0.44852440  1
  H+  H243  1  1.09044781  0.93853989  0.07003937  1
  H+  H244  1  0.39304629  0.55422630  0.83906846  1
  H+  H245  1  0.62565697  0.36076437  0.83059382  1
  H+  H246  1  0.65703976  0.02567478  0.63765431  1
  H+  H247  1  0.38165030  0.88788218  0.32439446  1
  H+  H248  1  0.59053349  0.93769577  0.09954982  1
  H+  H249  1  0.60955977  0.53101354  0.11126444  1
  H+  H250  1  0.77139504  0.86818014  0.18236203  1
  H+  H251  1  0.11280389  0.72315475  0.66412777  1
  H+  H252  1  0.13529507  0.77688976  1.00501057  1
  H+  H253  1  0.49947599  0.89133487  0.49743343  1
  H+  H254  1  0.37400384  0.27403449  -0.01552867  1
  H+  H255  1  0.62362154  0.74882040  0.52358009  1
  H+  H256  1  0.02098891  0.63904784  0.01599483  1
  H+  H257  1  -0.02729566  0.35557639  0.84889291  1
  H+  H258  1  0.59989757  0.46046918  0.49142097  1
  H+  H259  1  0.72262764  0.36699373  0.83160917  1
  H+  H260  1  0.38574546  0.01922637  0.50501542  1
  H+  H261  1  0.10515151  -0.01851823  0.33618994  1
  H+  H262  1  0.35092984  0.38342146  0.46887913  1
  H+  H263  1  0.36102651  0.76254669  0.34857576  1
  H+  H264  1  0.11791175  0.14627772  0.33120469  1
  H+  H265  1  0.10966325  0.63875440  0.01589974  1
  H+  H266  1  0.39133029  0.02595194  0.65459474  1
  H+  H267  1  0.01224526  0.14862730  0.67208500  1
  H+  H268  1  0.88803547  0.76039407  0.18858072  1
  H+  H269  1  0.13542653  0.03533444  0.15555820  1
  H+  H270  1  0.85010422  0.36890122  0.49252229  1
  H+  H271  1  0.53384780  0.62154442  0.67947393  1
  H+  H272  1  0.38887453  0.77160557  -0.00827127  1
  H+  H273  1  0.72077348  0.60900013  0.99878330  1
  H+  H274  1  0.86406207  0.63345643  0.16526137  1
  H+  H275  1  0.88046228  0.10736316  0.64606173  1
  H+  H276  1  0.38557564  1.03155497  0.16084435  1
  H+  H277  1  0.22060048  0.10949780  0.50575798  1
  H+  H278  1  0.63636813  0.78961475  -0.01033320  1
  H+  H279  1  0.72534290  0.35702973  1.00000226  1
  H+  H280  1  0.61145063  0.98771505  0.16294424  1
  H+  H281  1  0.88426149  0.61427618  -0.00166053  1
  H+  H282  1  0.39901239  1.02334973  -0.01251414  1
  H+  H283  1  0.62105322  0.07147129  1.00139733  1
  H+  H284  1  0.43587514  0.37483239  0.46126652  1
  H+  H285  1  0.22558761  0.63897238  0.33985184  1
  H+  H286  1  0.60199700  0.21206848  0.37262184  1
  H+  H287  1  0.77624734  0.61012229  0.48261448  1
  H+  H288  1  0.34641190  0.10418087  0.48292184  1
  H+  H289  1  0.66972538  0.33793143  0.56622035  1
  H+  H290  1  0.67789323  0.56812627  0.56145813  1
  H+  H291  1  0.91361925  0.82817918  0.26538750  1
  H+  H292  1  0.43306469  0.57574245  0.22161290  1
  H+  H293  1  0.36162244  0.72987955  0.16304907  1
  H+  H294  1  0.98481110  0.42249918  0.61515390  1
  H+  H295  1  0.07124518  0.17632589  0.73301265  1
  H+  H296  1  0.90638725  0.57531835  0.23818045  1
  H+  H297  1  0.28069534  0.11361059  0.84426927  1
  H+  H298  1  0.58910957  0.16269316  0.06289411  1
  H+  H299  1  0.83040185  0.41718330  0.40784474  1
  H+  H300  1  0.63993863  0.06971912  0.27589683  1
  H+  H301  1  0.16343952  0.82987994  0.90840618  1
  H+  H302  1  0.67187490  0.80305220  0.58065321  1
  H+  H303  1  0.98853294  0.12918831  0.17116198  1
  H+  H304  1  0.97698023  0.87017325  0.33177523  1
  H+  H305  1  0.66873419  0.09617757  0.59127326  1
  H+  H306  1  0.14584364  0.11456562  0.84168040  1
  H+  H307  1  0.91400837  0.07490915  0.58986165  1
  H+  H308  1  0.04205069  0.41002428  0.33504876  1
  H+  H309  1  0.07470577  0.92821231  0.39978147  1
  H+  H310  1  0.91990783  0.58562519  0.90228750  1
  H+  H311  1  0.15730385  0.08015925  0.25671546  1
  H+  H312  1  0.31694677  0.91347172  0.43364320  1
  H+  H313  1  0.30743662  0.91971042  0.76884617  1
  H+  H314  1  0.41481683  0.84796026  0.22571606  1
  H+  H315  1  0.64655105  0.86397286  0.33849237  1
  H+  H316  1  0.51009449  0.52833784  0.27459465  1
  H+  H317  1  0.67475483  0.58140399  0.90215413  1
  H+  H318  1  0.90303464  0.32397811  0.93609119  1
  H+  H319  1  0.83000642  0.66432156  0.07049821  1
  H+  H320  1  0.34132745  0.97162032  0.34586741  1
  H+  H321  1  0.83058903  0.41507665  0.06348116  1
  H+  H322  1  0.12177060  0.02270920  0.99192123  1
  H+  H323  1  0.17514304  0.60774351  0.24898617  1
  H+  H324  1  0.42519103  0.08822207  0.55917605  1
  H+  H325  1  0.05791064  0.69248771  0.42736746  1
  H+  H326  1  0.00430943  0.63254759  0.33939282  1
  H+  H327  1  0.36199111  0.70184520  0.39898052  1
  H+  H328  1  0.68198143  0.61034857  0.25145252  1
  H+  H329  1  0.29095461  0.45080511  0.44591372  1
  H+  H330  1  0.47369053  0.93300048  0.63783572  1
  H+  H331  1  0.74023339  0.57913517  0.33018288  1
  H+  H332  1  0.90608361  0.32428756  0.56103047  1
  H+  H333  1  0.82696038  0.16169950  0.10960128  1
  H+  H334  1  0.15466983  0.82902515  0.59270117  1
  H+  H335  1  0.89084812  0.11496533  0.84066801  1
  H+  H336  1  0.83158891  0.16507815  0.76546750  1
  H+  H337  1  0.16894757  0.32659341  0.94050919  1
  H+  H338  1  0.65276056  0.28974536  0.29295519  1
  H+  H339  1  0.58679018  0.41899508  0.76567054  1
  H+  H340  1  0.58098293  0.65112142  0.44431731  1
  H+  H341  1  0.91234431  0.08155914  0.93779087  1
  H+  H342  1  0.58534158  0.67786338  0.05875852  1
  H+  H343  1  0.33449987  0.92802022  0.09450433  1
  H+  H344  1  0.07351356  0.47352122  0.53110330  1
  H+  H345  1  0.07611831  0.40648092  0.09838020  1
  H+  H346  1  0.11891258  0.84043058  0.65798754  1
  H+  H347  1  0.38093965  0.80341451  0.56010188  1
  H+  H348  1  0.91668837  0.81734268  0.59666808  1
  H+  H349  1  0.09133809  0.42903208  0.39805709  1
  H+  H350  1  0.89715406  0.92584786  0.09558909  1
  H+  H351  1  0.83531553  0.41959984  0.73670701  1
  H+  H352  1  0.18122491  0.34476919  0.22761165  1
  H+  H353  1  0.14541581  0.33123817  0.56298680  1
  H+  H354  1  0.90574570  0.82261010  0.93703518  1
  H+  H355  1  0.03951731  0.53772836  0.54692610  1
  H+  H356  1  0.41494558  0.56597386  0.94142043  1
  H+  H357  1  0.08169890  0.66281769  0.10913648  1
  H+  H358  1  0.16605904  0.08776850  0.90671996  1
  H+  H359  1  0.59300162  0.89287523  0.80987503  1
  H+  H360  1  0.32348523  0.14837046  0.38466826  1
  H+  H361  1  0.32415475  0.17743444  0.05399340  1
  H+  H362  1  0.66799252  0.36806522  0.20802500  1
  H+  H363  1  0.62159799  0.81682729  0.24547180  1
  H+  H364  1  0.11890189  0.15168615  0.48810801  1
  H+  H365  1  0.24806849  0.34172745  0.85540385  1
  H+  H366  1  0.47393015  0.86251324  0.98109160  1
  H+  H367  1  0.57121364  0.91189866  0.44746236  1
  H+  H368  1  0.35210671  0.14810956  0.74875464  1
  H+  H369  1  0.33347701  0.66433837  0.06633134  1
  H+  H370  1  0.63141973  0.26219569  0.82717059  1
  H+  H371  1  0.59684705  0.17222746  0.76644013  1
  H+  H372  1  0.21123324  -0.00173478  0.62607799  1
  H+  H373  1  0.09127092  0.17815717  0.39140241  1
  H+  H374  1  0.36370984  0.38833299  0.38278172  1
  H+  H375  1  0.92306220  0.08849104  0.26308262  1
  H+  H376  1  0.08086443  0.92141848  0.78357780  1
  H+  H377  1  0.86406417  0.87950400  0.00546076  1
  H+  H378  1  0.62662241  0.34965797  0.98845665  1
  H+  H379  1  0.33042230  0.40914534  0.07451480  1
  H+  H380  1  0.38286597  0.36729725  -0.00704399  1
  H+  H381  1  0.83969489  0.66556500  0.73393267  1
  H+  H382  1  0.41953767  0.09269012  0.93529856  1
  H+  H383  1  0.16856515  0.09946377  0.56725060  1
  O2-  O384  1  0.08733088  0.18091609  0.14574138  1
  O2-  O385  1  0.08620918  0.17712160  0.46980709  1
  O2-  O386  1  0.08692553  0.15971964  0.81221133  1
  O2-  O387  1  0.07626578  0.40723267  0.14342769  1
  O2-  O388  1  0.06612413  0.40704386  0.47736058  1
  O2-  O389  1  0.08876048  0.39780688  0.83344609  1
  O2-  O390  1  0.08493835  0.66522872  0.15514717  1
  O2-  O391  1  0.04860916  0.70926924  0.46851063  1
  O2-  O392  1  0.05474084  0.63310805  0.82489588  1
  O2-  O393  1  0.08459604  0.94332740  0.11452950  1
  O2-  O394  1  0.07120466  0.92605682  0.47759904  1
  O2-  O395  1  0.08162760  0.92320279  0.82823045  1
  O2-  O396  1  0.32190672  0.17108652  0.13317179  1
  O2-  O397  1  0.29688963  0.10242562  0.45993679  1
  O2-  O398  1  0.33944787  0.13453552  0.82667047  1
  O2-  O399  1  0.32922989  0.40317941  0.13979402  1
  O2-  O400  1  0.30120644  0.43443659  0.48595505  1
  O2-  O401  1  0.43152692  0.41731417  0.83018723  1
  O2-  O402  1  0.32669930  0.66764550  0.15163727  1
  O2-  O403  1  0.44482845  0.70582735  0.45906138  1
  O2-  O404  1  0.32027576  0.68885218  0.78484160  1
  O2-  O405  1  0.33371141  0.93177099  0.14027197  1
  O2-  O406  1  0.31851203  0.91623608  0.47967204  1
  O2-  O407  1  0.31186214  0.92334398  0.81380836  1
  O2-  O408  1  0.59001391  0.16998897  0.14313091  1
  O2-  O409  1  0.57170624  0.15803151  0.45235393  1
  O2-  O410  1  0.59931519  0.18158235  0.81162838  1
  O2-  O411  1  0.54602899  0.33802017  0.10997363  1
  O2-  O412  1  0.56061391  0.39980359  0.47867751  1
  O2-  O413  1  0.58376738  0.41856168  0.81186231  1
  O2-  O414  1  0.62076839  0.70644446  0.13795205  1
  O2-  O415  1  0.58446586  0.64244861  0.48856090  1
  O2-  O416  1  0.59692793  0.66526423  0.81679078  1
  O2-  O417  1  0.57905984  0.92941132  0.14367988  1
  O2-  O418  1  0.56187743  0.91900700  0.49108276  1
  O2-  O419  1  0.56454567  0.92557715  0.79856440  1
  O2-  O420  1  0.82832715  0.16257788  0.15488419  1
  O2-  O421  1  0.82422635  0.15180002  0.50541218  1
  O2-  O422  1  0.83261923  0.16583319  0.81065881  1
  O2-  O423  1  0.84113347  0.42255011  0.14001247  1
  O2-  O424  1  0.82799107  0.40819939  0.48035044  1
  O2-  O425  1  0.82502069  0.41458811  0.81509015  1
  O2-  O426  1  0.83859987  0.66800620  0.15007464  1
  O2-  O427  1  0.83615680  0.63694266  0.46580503  1
  O2-  O428  1  0.84277636  0.66947516  0.81067286  1
  O2-  O429  1  0.93189228  0.94105596  0.13357962  1
  O2-  O430  1  0.91853689  0.98336294  0.48557678  1
  O2-  O431  1  0.84122773  0.92367206  0.81219558  1
  O2-  O432  1  0.16359527  0.08976833  0.17996590  1
  O2-  O433  1  0.16377358  0.09553886  0.52302747  1
  O2-  O434  1  0.17373204  0.08437050  0.86119863  1
  O2-  O435  1  0.17695904  0.34008380  0.18273311  1
  O2-  O436  1  0.14973725  0.33184186  0.51812281  1
  O2-  O437  1  0.18586618  0.31879550  0.86239801  1
  O2-  O438  1  0.17494489  0.60897194  0.20181946  1
  O2-  O439  1  0.06430424  0.50576556  0.56579121  1
  O2-  O440  1  0.19965255  0.56989883  0.86881983  1
  O2-  O441  1  0.15162287  0.85182861  0.16475573  1
  O2-  O442  1  0.15376989  0.84657675  0.52251781  1
  O2-  O443  1  0.15972453  0.82950485  0.86285986  1
  O2-  O444  1  0.41909300  0.09517213  0.17201363  1
  O2-  O445  1  0.41867755  0.08237619  0.51390529  1
  O2-  O446  1  0.37266325  0.08499063  0.85726436  1
  O2-  O447  1  0.41125481  0.32997240  0.16794135  1
  O2-  O448  1  0.37782235  0.35414812  0.44509918  1
  O2-  O449  1  0.35447914  0.34456119  0.85788345  1
  O2-  O450  1  0.41703239  0.58526329  0.18025580  1
  O2-  O451  1  0.42199160  0.57327614  0.52436465  1
  O2-  O452  1  0.43696213  0.55341970  0.86447602  1
  O2-  O453  1  0.41070677  0.83837883  0.18108222  1
  O2-  O454  1  0.38381285  0.81368440  0.51634671  1
  O2-  O455  1  0.39597708  0.84035199  0.84334491  1
  O2-  O456  1  0.66355423  0.08624603  0.19884465  1
  O2-  O457  1  0.65115149  0.08683808  0.51687940  1
  O2-  O458  1  0.66391047  0.08011083  0.85595452  1
  O2-  O459  1  0.66869177  0.34352688  0.16876136  1
  O2-  O460  1  0.67034168  0.33898634  0.52115078  1
  O2-  O461  1  0.65923006  0.33107154  0.84269385  1
  O2-  O462  1  0.70234295  0.64055356  0.21242722  1
  O2-  O463  1  0.67565477  0.56633425  0.51608865  1
  O2-  O464  1  0.67972287  0.58396031  0.85667563  1
  O2-  O465  1  0.58431068  0.79844095  0.20868552  1
  O2-  O466  1  0.64527460  0.80614409  0.54221644  1
  O2-  O467  1  0.66975199  0.84040967  0.84566696  1
  O2-  O468  1  0.92726958  0.08825327  0.18426333  1
  O2-  O469  1  0.92686675  0.06486213  0.50575881  1
  O2-  O470  1  0.92125412  0.08639670  0.85802819  1
  O2-  O471  1  0.91920624  0.34094386  0.18522645  1
  O2-  O472  1  0.89990180  0.31521104  0.51668954  1
  O2-  O473  1  0.91020853  0.32989034  0.85747310  1
  O2-  O474  1  0.91713242  0.58077549  0.19382296  1
  O2-  O475  1  0.92423481  0.56606110  0.52691851  1
  O2-  O476  1  0.91237947  0.57594342  0.85749068  1
  O2-  O477  1  0.91901355  0.81861575  0.20847548  1
  O2-  O478  1  0.90946230  0.80475462  0.52555653  1
  O2-  O479  1  0.91055782  0.83051019  0.85648891  1
  O2-  O480  1  0.15825268  0.08079537  0.30254912  1
  O2-  O481  1  0.19656584  0.02801478  0.65664327  1
  O2-  O482  1  0.15288554  0.08543731  0.97975593  1
  O2-  O483  1  0.18640985  0.34909793  0.31249528  1
  O2-  O484  1  0.15064147  0.34168308  0.64599383  1
  O2-  O485  1  0.16162399  0.33295034  0.98465535  1
  O2-  O486  1  0.16972355  0.60177549  0.31876524  1
  O2-  O487  1  0.15188241  0.58109938  0.67004401  1
  O2-  O488  1  0.16098508  0.58548899  0.98844221  1
  O2-  O489  1  0.16047992  0.83762061  0.32409501  1
  O2-  O490  1  0.15730208  0.82183218  0.63878466  1
  O2-  O491  1  0.16698203  0.83546519  0.98701428  1
  O2-  O492  1  0.42479593  0.07642023  0.31631942  1
  O2-  O493  1  0.42944093  0.08548064  0.63996220  1
  O2-  O494  1  0.44170568  0.08181767  0.97310667  1
  O2-  O495  1  0.42613895  0.31916103  0.29481862  1
  O2-  O496  1  0.43251244  0.32482509  0.65968482  1
  O2-  O497  1  0.40749278  0.33662887  0.96923830  1
  O2-  O498  1  0.47080860  0.54649437  0.28999512  1
  O2-  O499  1  0.42936054  0.56365290  0.65413447  1
  O2-  O500  1  0.41003013  0.57418702  0.98572509  1
  O2-  O501  1  0.42810309  0.87853691  0.30555842  1
  O2-  O502  1  0.44373298  0.87335866  0.65180173  1
  O2-  O503  1  0.41210013  0.82936786  0.97234507  1
  O2-  O504  1  0.61797225  0.04851653  0.31794225  1
  O2-  O505  1  0.67509474  0.08759803  0.63589170  1
  O2-  O506  1  0.65278413  0.04272984  0.98624942  1
  O2-  O507  1  0.65640915  0.30570141  0.33567059  1
  O2-  O508  1  0.67839766  0.33504742  0.64848117  1
  O2-  O509  1  0.66247673  0.31978864  0.98507780  1
  O2-  O510  1  0.67802687  0.56305851  0.32557911  1
  O2-  O511  1  0.67525823  0.57215475  0.64249386  1
  O2-  O512  1  0.66204618  0.57879438  0.98010531  1
  O2-  O513  1  0.67366199  0.83358593  0.31860809  1
  O2-  O514  1  0.69183307  0.81793188  0.66621417  1
  O2-  O515  1  0.67199149  0.85092518  0.97776631  1
  O2-  O516  1  0.92287699  0.08640386  0.30855064  1
  O2-  O517  1  0.91237533  0.07752690  0.63489451  1
  O2-  O518  1  0.91046779  0.07767344  0.98317067  1
  O2-  O519  1  0.94327163  0.36602196  0.31006151  1
  O2-  O520  1  0.94376500  0.37318535  0.64086165  1
  O2-  O521  1  0.90184211  0.32408280  0.98167189  1
  O2-  O522  1  0.89103611  0.57519791  0.32315232  1
  O2-  O523  1  0.92406171  0.58404051  0.65086445  1
  O2-  O524  1  0.91814089  0.58744775  0.98325383  1
  O2-  O525  1  0.91473895  0.83822334  0.31705363  1
  O2-  O526  1  0.91927430  0.82321441  0.64310065  1
  O2-  O527  1  0.91058178  0.82440314  0.98222236  1
  O2-  O528  1  0.07513620  0.16935283  0.02439353  1
  O2-  O529  1  0.09130402  0.18012105  0.34590865  1
  O2-  O530  1  0.06853190  0.19102702  0.68985385  1
  O2-  O531  1  0.06959676  0.40909270  0.01611664  1
  O2-  O532  1  0.10188273  0.43817717  0.35338511  1
  O2-  O533  1  0.08385801  0.41939598  0.71330719  1
  O2-  O534  1  0.08023767  0.66835786  0.03373171  1
  O2-  O535  1  0.06491435  0.66751555  0.35271371  1
  O2-  O536  1  0.08102802  0.66594943  0.68594669  1
  O2-  O537  1  0.07668678  0.91474470  -0.00692442  1
  O2-  O538  1  0.07412266  0.92242738  0.35443130  1
  O2-  O539  1  0.05528193  0.86376290  0.70409194  1
  O2-  O540  1  0.32396673  0.18038961  0.00883274  1
  O2-  O541  1  0.32805234  0.15604982  0.33974671  1
  O2-  O542  1  0.35183483  0.15395454  0.70354772  1
  O2-  O543  1  0.33256007  0.41529516  0.02595639  1
  O2-  O544  1  0.35466664  0.40564257  0.34003703  1
  O2-  O545  1  0.36803199  0.41478503  0.72499192  1
  O2-  O546  1  0.33298894  0.66468350  0.02122094  1
  O2-  O547  1  0.32352782  0.71490278  0.37532715  1
  O2-  O548  1  0.35334087  0.66080521  0.66212426  1
  O2-  O549  1  0.33362224  0.92009585  0.01883017  1
  O2-  O550  1  0.31514458  0.91117624  0.35889951  1
  O2-  O551  1  0.31558675  0.91878177  0.68601600  1
  O2-  O552  1  0.59407045  0.16371284  0.01758528  1
  O2-  O553  1  0.56632684  0.14968767  0.38573128  1
  O2-  O554  1  0.59286112  0.16416440  0.68952120  1
  O2-  O555  1  0.57445918  0.39981523  -0.00547475  1
  O2-  O556  1  0.57793331  0.39123136  0.35102561  1
  O2-  O557  1  0.59384242  0.41172736  0.69223261  1
  O2-  O558  1  0.58104805  0.67256434  0.01386947  1
  O2-  O559  1  0.55372279  0.67589042  0.37205723  1
  O2-  O560  1  0.59464456  0.65146911  0.69446709  1
  O2-  O561  1  0.60468508  0.95456459  0.01293349  1
  O2-  O562  1  0.58310102  0.90179027  0.36922675  1
  O2-  O563  1  0.61707950  0.91026604  0.62107399  1
  O2-  O564  1  0.82567185  0.15915167  0.02772512  1
  O2-  O565  1  0.81818998  0.12015250  0.38351594  1
  O2-  O566  1  0.83737516  0.16986084  0.68091388  1
  O2-  O567  1  0.82183619  0.41024335  0.01806506  1
  O2-  O568  1  0.82855715  0.42238897  0.36170317  1
  O2-  O569  1  0.83951064  0.42309150  0.69125390  1
  O2-  O570  1  0.82675671  0.66144124  0.02509935  1
  O2-  O571  1  0.84461538  0.61856655  0.34444968  1
  O2-  O572  1  0.83945319  0.66147280  0.68824628  1
  O2-  O573  1  0.83655955  0.91066534  0.02503613  1
  O2-  O574  1  0.84895676  0.92844204  0.35638716  1
  O2-  O575  1  0.85727202  0.92014724  0.68864790  1
