# generated using pymatgen
data_H2O
_symmetry_space_group_name_H-M   'P 1'
_cell_length_a   17.95125436
_cell_length_b   17.96221467
_cell_length_c   21.98399145
_cell_angle_alpha   90.04501695
_cell_angle_beta   90.02191374
_cell_angle_gamma   119.97825880
_symmetry_Int_Tables_number   1
_chemical_formula_structural   H2O
_chemical_formula_sum   'H384 O192'
_cell_volume   6140.25852205
_cell_formula_units_Z   192
loop_
 _symmetry_equiv_pos_site_id
 _symmetry_equiv_pos_as_xyz
  1  'x, y, z'
loop_
 _atom_type_symbol
 _atom_type_oxidation_number
  H+  1.0
  O2-  -2.0
loop_
 _atom_site_type_symbol
 _atom_site_label
 _atom_site_symmetry_multiplicity
 _atom_site_fract_x
 _atom_site_fract_y
 _atom_site_fract_z
 _atom_site_occupancy
  H+  H0  1  0.07579072  0.15324675  0.76954436  1
  H+  H1  1  0.37618148  0.61356281  0.48656620  1
  H+  H2  1  0.84595310  0.14013874  0.40334269  1
  H+  H3  1  0.36425687  0.38621902  0.67275779  1
  H+  H4  1  0.20730635  0.86885853  0.92297702  1
  H+  H5  1  0.14640458  0.32098582  0.92818333  1
  H+  H6  1  0.71842405  0.83718193  0.83807793  1
  H+  H7  1  0.85960593  0.47523957  0.49140228  1
  H+  H8  1  0.97224028  0.34020494  0.67636088  1
  H+  H9  1  0.09020520  0.11922749  0.99962629  1
  H+  H10  1  0.86744898  0.62654790  0.16440417  1
  H+  H11  1  0.90097125  0.76444922  0.52665166  1
  H+  H12  1  0.36415748  0.51578318  0.82764805  1
  H+  H13  1  0.96928871  0.85184731  0.16681761  1
  H+  H14  1  0.49289933  0.60785784  0.30773823  1
  H+  H15  1  0.06564474  0.96035951  0.67758687  1
  H+  H16  1  0.38107477  0.23266846  0.34057340  1
  H+  H17  1  0.76678453  0.85223718  0.67041463  1
  H+  H18  1  0.12851346  0.32471230  0.66683889  1
  H+  H19  1  0.60568610  0.63390618  0.49347389  1
  H+  H20  1  0.01121018  0.96834709  0.46119880  1
  H+  H21  1  0.38918351  0.85205819  0.98296290  1
  H+  H22  1  0.17874817  0.83604711  0.28419461  1
  H+  H23  1  0.14001832  0.24652376  0.65440534  1
  H+  H24  1  0.29270763  0.54782260  0.11754117  1
  H+  H25  1  0.25333392  0.13812907  0.32010752  1
  H+  H26  1  0.85199922  0.64230708  0.66780514  1
  H+  H27  1  0.63553587  0.84649654  0.84116231  1
  H+  H28  1  0.12679766  0.60951880  0.94691310  1
  H+  H29  1  0.46544407  0.95944649  0.12887644  1
  H+  H30  1  0.34034747  0.70976709  -0.01019168  1
  H+  H31  1  0.35387113  0.02043508  0.85905361  1
  H+  H32  1  0.39258398  0.11882683  0.67247234  1
  H+  H33  1  0.30263037  0.62870798  0.08216404  1
  H+  H34  1  0.12094213  0.26905988  0.83232405  1
  H+  H35  1  0.89515433  0.35409723  0.84753845  1
  H+  H36  1  0.37384459  0.12671111  0.15880047  1
  H+  H37  1  0.66486562  0.08381817  0.27387686  1
  H+  H38  1  0.20970561  0.35984407  0.82795336  1
  H+  H39  1  0.69339706  0.34482528  0.82318033  1
  H+  H40  1  0.14395839  0.27349038  0.16613744  1
  H+  H41  1  0.38953962  0.22040884  0.00523947  1
  H+  H42  1  0.40451932  0.40330837  0.98096381  1
  H+  H43  1  0.11322884  0.45339407  0.34041147  1
  H+  H44  1  0.87662426  0.47670390  0.34158587  1
  H+  H45  1  0.01367788  0.26114448  0.73594082  1
  H+  H46  1  0.08907972  0.35490193  1.01043707  1
  H+  H47  1  0.87120941  0.62724605  0.00116422  1
  H+  H48  1  0.12047792  0.69950254  0.18942976  1
  H+  H49  1  0.24324473  0.36357969  0.31921547  1
  H+  H50  1  0.90214520  0.37667875  0.51638022  1
  H+  H51  1  0.25270391  0.88940972  0.64819979  1
  H+  H52  1  0.09609287  0.67116221  -0.11537399  1
  H+  H53  1  0.74132046  0.36714642  -0.00370971  1
  H+  H54  1  0.37089829  0.82025499  0.25197630  1
  H+  H55  1  0.13431312  1.03159447  0.50776744  1
  H+  H56  1  0.31586036  0.91231411  0.59222145  1
  H+  H57  1  0.15662762  0.13612881  0.31920215  1
  H+  H58  1  0.10304472  0.62592932  0.49573049  1
  H+  H59  1  0.86560297  0.87229147  0.82817450  1
  H+  H60  1  0.62734613  0.25001912  0.20266861  1
  H+  H61  1  0.32488186  0.66639401  0.75175440  1
  H+  H62  1  0.64825811  0.61143308  0.99463245  1
  H+  H63  1  0.87723406  1.00456113  0.83705262  1
  H+  H64  1  0.60144218  0.72942823  0.12782754  1
  H+  H65  1  0.36968895  0.00107684  0.15830201  1
  H+  H66  1  0.59252119  0.88928978  0.34219043  1
  H+  H67  1  0.34231313  0.47210299  -0.00949805  1
  H+  H68  1  0.72946854  0.37923762  0.21580930  1
  H+  H69  1  0.10654054  0.56389271  0.31027372  1
  H+  H70  1  0.23675176  0.63725816  0.34458798  1
  H+  H71  1  0.38465900  0.02939701  0.65206943  1
  H+  H72  1  0.50652096  0.10134422  0.83557277  1
  H+  H73  1  0.56016304  0.31777468  0.21262259  1
  H+  H74  1  0.38001122  0.63298499  0.33171249  1
  H+  H75  1  0.53229136  0.38217339  0.68135584  1
  H+  H76  1  0.08171887  0.65292175  0.12691057  1
  H+  H77  1  0.05384923  0.37370071  0.07555240  1
  H+  H78  1  0.66326592  0.27472292  0.97967810  1
  H+  H79  1  0.64714798  0.62360755  0.14364355  1
  H+  H80  1  0.91284870  0.57734044  0.24617698  1
  H+  H81  1  0.79007845  1.00829568  0.59767451  1
  H+  H82  1  0.02541067  0.36495139  0.34512275  1
  H+  H83  1  0.89689915  0.51656690  0.99567619  1
  H+  H84  1  0.55969588  0.12518401  0.97857443  1
  H+  H85  1  0.78951394  0.17522636  0.19429743  1
  H+  H86  1  0.09547161  0.17305793  0.09063174  1
  H+  H87  1  0.38754277  0.86197990  0.51487871  1
  H+  H88  1  0.63542848  0.52684880  0.49959472  1
  H+  H89  1  0.34945550  0.97576534  0.36885823  1
  H+  H90  1  0.74124230  0.67996474  0.84332025  1
  H+  H91  1  0.39272096  0.97019243  0.77404849  1
  H+  H92  1  0.19138443  0.92653900  0.83749352  1
  H+  H93  1  0.13116465  0.23359919  0.48979132  1
  H+  H94  1  0.64235097  0.11175655  0.33840928  1
  H+  H95  1  0.72330802  0.64033383  0.82383196  1
  H+  H96  1  0.12111618  0.25659456  0.98499615  1
  H+  H97  1  0.53012362  0.63249289  0.13527910  1
  H+  H98  1  0.60226731  0.62127304  0.67672272  1
  H+  H99  1  0.99278912  0.15248178  0.49612556  1
  H+  H100  1  0.78743815  0.63434683  0.34810961  1
  H+  H101  1  0.27994589  0.13753744  0.68653400  1
  H+  H102  1  0.12607844  0.84657509  0.51483745  1
  H+  H103  1  0.83704002  0.41515415  0.43137265  1
  H+  H104  1  0.03310378  0.87384062  0.00460284  1
  H+  H105  1  0.67000785  0.34092105  0.55103474  1
  H+  H106  1  0.16969456  0.14829774  0.16211427  1
  H+  H107  1  0.02557515  0.39687964  0.88302041  1
  H+  H108  1  0.87883440  0.60886204  0.51041369  1
  H+  H109  1  0.37080936  0.73276649  0.66552179  1
  H+  H110  1  0.62338604  0.38041466  0.00081728  1
  H+  H111  1  0.76202869  0.14255221  1.00996198  1
  H+  H112  1  0.86775301  0.72965017  0.34136354  1
  H+  H113  1  0.27126818  0.37617288  0.66619468  1
  H+  H114  1  0.10740037  0.65645641  0.67494875  1
  H+  H115  1  0.34602268  0.88718076  0.36564852  1
  H+  H116  1  0.62130333  1.01827099  0.51295205  1
  H+  H117  1  0.08388212  0.35176904  0.16506235  1
  H+  H118  1  0.20747903  0.70927721  0.60823119  1
  H+  H119  1  0.61886987  0.87859349  0.67928827  1
  H+  H120  1  0.90159731  0.61947520  0.33997885  1
  H+  H121  1  0.91509789  0.12685653  0.32234789  1
  H+  H122  1  0.57042070  0.61365187  0.83721707  1
  H+  H123  1  0.78109372  0.48236583  0.85921166  1
  H+  H124  1  0.86501380  0.38112322  0.02430770  1
  H+  H125  1  0.52649322  0.13404836  0.68412290  1
  H+  H126  1  0.36270407  0.13743825  0.84109876  1
  H+  H127  1  0.68481126  0.93662509  1.03014059  1
  H+  H128  1  0.37804984  0.39945108  0.47305624  1
  H+  H129  1  -0.02115881  0.34613513  0.00905123  1
  H+  H130  1  0.15410844  0.86170821  0.98250537  1
  H+  H131  1  0.07685780  0.43477744  0.16249278  1
  H+  H132  1  0.49181114  0.39582950  0.98062304  1
  H+  H133  1  1.04655607  0.14386876  0.33520075  1
  H+  H134  1  0.86643256  0.89482913  0.30452527  1
  H+  H135  1  0.80990498  0.92881830  0.27092673  1
  H+  H136  1  0.07667803  0.49349538  0.69982051  1
  H+  H137  1  0.90615886  0.76806959  -0.00506873  1
  H+  H138  1  0.91668026  0.04099959  0.30864196  1
  H+  H139  1  0.62616192  0.16820891  0.18109460  1
  H+  H140  1  0.13606512  0.23305693  0.33694161  1
  H+  H141  1  0.04488532  0.14502697  0.15409483  1
  H+  H142  1  0.46866169  0.61377344  0.65862652  1
  H+  H143  1  0.52526412  0.87581390  0.82792303  1
  H+  H144  1  0.61132631  0.85273995  0.52149128  1
  H+  H145  1  0.58230573  0.83555080  0.09465131  1
  H+  H146  1  0.35882861  0.63764094  0.66042428  1
  H+  H147  1  0.10216816  0.88703963  0.34142812  1
  H+  H148  1  0.45983786  0.35474772  0.83025707  1
  H+  H149  1  0.62272147  0.39407429  0.47917615  1
  H+  H150  1  0.66180747  0.61789069  0.29927726  1
  H+  H151  1  0.40092093  0.87409994  0.65129627  1
  H+  H152  1  0.60664697  0.74390778  0.33913395  1
  H+  H153  1  0.38571295  0.11057705  0.33452555  1
  H+  H154  1  0.36776471  0.23346666  0.48855850  1
  H+  H155  1  0.12283572  0.38524225  0.49750880  1
  H+  H156  1  0.38085024  0.37561106  0.32874647  1
  H+  H157  1  0.86862858  0.25021448  1.00554457  1
  H+  H158  1  0.80254487  0.92445946  0.16806418  1
  H+  H159  1  0.39755327  0.12787755  0.50976534  1
  H+  H160  1  0.26825535  0.63049030  0.49484123  1
  H+  H161  1  0.84751195  0.13373296  0.00422307  1
  H+  H162  1  0.85310414  0.11935687  0.82968164  1
  H+  H163  1  0.39347800  0.85358092  0.82391242  1
  H+  H164  1  0.21115890  0.59779447  0.97184147  1
  H+  H165  1  0.52988034  0.14212483  0.49982659  1
  H+  H166  1  0.75102475  1.02110762  0.19880805  1
  H+  H167  1  0.22439625  0.87430652  0.34891027  1
  H+  H168  1  -0.03591695  0.09650114  0.83873974  1
  H+  H169  1  0.62281384  -0.02929992  0.67542611  1
  H+  H170  1  0.13809133  0.51736893  0.50540130  1
  H+  H171  1  0.14453619  0.93535683  0.18319076  1
  H+  H172  1  0.62382104  0.22600153  0.49205362  1
  H+  H173  1  0.88734469  0.26141777  0.85342537  1
  H+  H174  1  0.37868810  0.88697196  0.15478654  1
  H+  H175  1  0.38050876  0.51732947  0.47852519  1
  H+  H176  1  0.60472119  0.39373327  0.83175975  1
  H+  H177  1  0.45251769  0.60728691  0.82835746  1
  H+  H178  1  0.51418335  0.85993715  1.00659759  1
  H+  H179  1  0.55852387  0.92168660  0.15566279  1
  H+  H180  1  0.89126878  0.95462269  0.53874942  1
  H+  H181  1  0.35272441  0.77906976  0.34278909  1
  H+  H182  1  0.85023592  0.91208631  0.53881861  1
  H+  H183  1  0.77015551  0.64067667  0.49907836  1
  H+  H184  1  0.50311705  0.36156921  0.33044878  1
  H+  H185  1  0.74019285  0.61390243  -0.00696581  1
  H+  H186  1  0.62988780  0.51496401  0.65954078  1
  H+  H187  1  0.20865356  0.56983312  0.16402925  1
  H+  H188  1  0.11551715  0.78238929  0.67737389  1
  H+  H189  1  0.78058936  0.62958993  0.15040803  1
  H+  H190  1  0.56675179  0.55621826  0.27814720  1
  H+  H191  1  0.99075349  0.62012585  0.33686970  1
  H+  H192  1  0.45901736  0.60447800  0.97617761  1
  H+  H193  1  0.71386785  0.60700577  0.65696908  1
  H+  H194  1  0.17928236  0.32875361  0.56473148  1
  H+  H195  1  0.81742748  0.39707687  0.61163051  1
  H+  H196  1  0.60494651  0.49197776  0.13514084  1
  H+  H197  1  0.99258096  0.37948299  0.51778495  1
  H+  H198  1  0.10702125  0.13632174  0.83282001  1
  H+  H199  1  0.11581965  0.75464331  0.52168287  1
  H+  H200  1  0.36175599  0.59517528  0.35302647  1
  H+  H201  1  0.51803340  0.72516845  0.36495602  1
  H+  H202  1  0.86417266  1.02551197  -0.00548122  1
  H+  H203  1  0.24935292  0.40711833  0.14559504  1
  H+  H204  1  0.72798828  0.10648844  0.66236407  1
  H+  H205  1  0.86366197  0.37495997  0.66184647  1
  H+  H206  1  0.52440408  0.49730566  0.90885297  1
  H+  H207  1  0.25146703  0.79867125  0.21304360  1
  H+  H208  1  0.63160376  0.47471380  -0.00061895  1
  H+  H209  1  0.62205844  0.11902787  0.51027141  1
  H+  H210  1  0.88725188  0.26232401  0.34043658  1
  H+  H211  1  0.38960156  0.26807628  0.68405402  1
  H+  H212  1  0.11718132  0.98796801  0.82991382  1
  H+  H213  1  0.96952251  0.85657705  0.32361595  1
  H+  H214  1  0.14781852  0.12431595  0.51072363  1
  H+  H215  1  0.63272288  0.75379993  0.67352740  1
  H+  H216  1  0.88026532  0.52747715  0.66055830  1
  H+  H217  1  0.92310185  0.05879569  0.60457339  1
  H+  H218  1  0.97595075  0.59924534  0.96158223  1
  H+  H219  1  0.33979969  0.62098546  -0.01385455  1
  H+  H220  1  0.22417975  0.11784861  0.84751446  1
  H+  H221  1  0.12531127  0.57808421  0.17837138  1
  H+  H222  1  0.57624357  0.46467113  0.83686049  1
  H+  H223  1  0.41432562  0.02461154  0.99229254  1
  H+  H224  1  0.61656540  0.22014693  0.70463419  1
  H+  H225  1  0.29168313  0.88934205  -0.00024848  1
  H+  H226  1  0.49616861  0.37748076  0.48050579  1
  H+  H227  1  0.32676307  0.18071006  0.15720499  1
  H+  H228  1  0.58603769  0.42367317  0.74038798  1
  H+  H229  1  0.92097512  0.04141928  0.16768210  1
  H+  H230  1  0.86444942  0.21060833  0.67233871  1
  H+  H231  1  0.84018876  0.36572974  0.17802899  1
  H+  H232  1  0.26254946  0.89997002  0.82438119  1
  H+  H233  1  0.90734949  0.77330283  0.83963694  1
  H+  H234  1  0.20315067  0.83992571  0.17967606  1
  H+  H235  1  0.15005460  0.35753095  0.32739803  1
  H+  H236  1  0.20600670  0.10265801  1.00071343  1
  H+  H237  1  0.69129852  0.93804075  0.23645311  1
  H+  H238  1  0.85712655  0.46295290  0.17815126  1
  H+  H239  1  0.45233703  0.85987414  0.33736797  1
  H+  H240  1  0.86963286  0.46103809  0.82294146  1
  H+  H241  1  0.78508485  0.39224786  0.33156311  1
  H+  H242  1  0.19239845  1.07165377  0.16682334  1
  H+  H243  1  0.34697763  0.75366913  0.19617642  1
  H+  H244  1  0.77944440  0.12255235  0.34914911  1
  H+  H245  1  0.62439214  0.77124717  0.51718546  1
  H+  H246  1  0.43696124  0.12484961  0.99885734  1
  H+  H247  1  1.00558753  0.89435191  0.50294431  1
  H+  H248  1  0.88550431  0.75973397  0.16565559  1
  H+  H249  1  0.27898077  0.14283323  0.49498644  1
  H+  H250  1  0.18963915  0.01836783  0.64609980  1
  H+  H251  1  0.72886267  0.35008721  0.69824029  1
  H+  H252  1  0.86503349  0.88575953  0.15699119  1
  H+  H253  1  0.12299646  0.72707578  -0.05500815  1
  H+  H254  1  0.83097767  0.89213204  0.76703815  1
  H+  H255  1  0.01252404  0.64147107  0.68392201  1
  H+  H256  1  0.11788330  0.40872301  0.87328764  1
  H+  H257  1  0.38650294  0.52506621  0.15385512  1
  H+  H258  1  0.34033667  0.62779475  0.81344692  1
  H+  H259  1  0.38424952  0.99250057  0.51289138  1
  H+  H260  1  0.12818628  1.00693067  -0.00517968  1
  H+  H261  1  0.88104305  -0.01139939  0.65829808  1
  H+  H262  1  0.72197345  0.10282880  0.83915901  1
  H+  H263  1  0.86845081  0.62951552  0.82268960  1
  H+  H264  1  0.01921632  0.10673255  0.67538064  1
  H+  H265  1  0.59721756  0.97889753  0.34401882  1
  H+  H266  1  0.10944848  0.10972898  0.67779703  1
  H+  H267  1  0.47379089  0.61420334  0.49087197  1
  H+  H268  1  0.10223113  0.51816785  0.72729864  1
  H+  H269  1  0.23932141  0.36690134  0.50446858  1
  H+  H270  1  0.61954351  0.47300599  0.32451206  1
  H+  H271  1  0.89084623  0.35391259  0.33629904  1
  H+  H272  1  0.40604714  0.19689393  0.07142188  1
  H+  H273  1  0.86015172  0.11885475  0.67429690  1
  H+  H274  1  1.10291620  0.67230606  0.77364584  1
  H+  H275  1  0.06930011  0.87480843  0.67981563  1
  H+  H276  1  0.93160499  0.31390738  0.18054863  1
  H+  H277  1  0.00474863  0.12753240  0.00179925  1
  H+  H278  1  0.15573349  0.68307375  0.36789977  1
  H+  H279  1  0.97227269  0.59739925  0.18889024  1
  H+  H280  1  0.60293896  1.02331456  0.16299684  1
  H+  H281  1  0.08796803  0.34162287  0.76621422  1
  H+  H282  1  0.59670991  0.71316394  0.82797024  1
  H+  H283  1  0.63877524  0.10668314  0.66960370  1
  H+  H284  1  0.26003528  0.37674590  -0.00725506  1
  H+  H285  1  0.51229872  0.88443604  0.49888566  1
  H+  H286  1  0.73139709  0.93880585  0.55023819  1
  H+  H287  1  0.98738594  0.86664074  0.84549084  1
  H+  H288  1  0.39066868  0.46611912  0.31850021  1
  H+  H289  1  0.85487274  0.67440418  0.76508427  1
  H+  H290  1  0.17792277  0.07808173  0.59893121  1
  H+  H291  1  0.41134675  0.34718353  0.89089364  1
  H+  H292  1  0.23795858  0.65528011  0.64658918  1
  H+  H293  1  0.93462227  0.82970106  0.93724087  1
  H+  H294  1  0.68439509  0.35379977  0.89621805  1
  H+  H295  1  0.89914603  0.07548114  0.93170611  1
  H+  H296  1  0.31984739  0.41119438  0.75936814  1
  H+  H297  1  0.65735941  0.08000735  0.57451469  1
  H+  H298  1  0.34224361  0.41981567  0.41311868  1
  H+  H299  1  0.24261518  0.98868342  0.16309496  1
  H+  H300  1  0.60357410  0.71173317  0.97913478  1
  H+  H301  1  0.65436399  0.57777785  0.56362097  1
  H+  H302  1  0.07750247  0.66832361  0.44206714  1
  H+  H303  1  0.92020849  0.44171071  0.77252023  1
  H+  H304  1  0.90730274  0.32026501  0.94593945  1
  H+  H305  1  0.82651227  0.95693093  0.42735066  1
  H+  H306  1  0.33540817  0.17051651  0.39898157  1
  H+  H307  1  0.36245199  0.91836572  0.05503022  1
  H+  H308  1  0.86518806  0.54044473  0.89956539  1
  H+  H309  1  0.10492902  0.91116117  0.06015083  1
  H+  H310  1  0.84668821  0.65767146  0.06287111  1
  H+  H311  1  0.33281622  0.16197750  0.75030120  1
  H+  H312  1  0.66044352  0.08846222  0.93478095  1
  H+  H313  1  0.57079926  0.64984212  0.73744332  1
  H+  H314  1  0.40650868  0.61748630  0.16609786  1
  H+  H315  1  0.21134881  0.63267879  0.80798280  1
  H+  H316  1  0.39673462  0.57588003  0.91761323  1
  H+  H317  1  0.83680922  0.67432872  0.44339340  1
  H+  H318  1  0.63436005  1.00839443  0.84213057  1
  H+  H319  1  0.60643050  0.10208364  0.83483567  1
  H+  H320  1  0.57517967  0.91910148  0.44152909  1
  H+  H321  1  0.57881197  0.66476205  0.04372139  1
  H+  H322  1  0.57025680  0.13627686  0.77207748  1
  H+  H323  1  0.57432772  0.41874325  0.07777204  1
  H+  H324  1  0.44329752  0.37130113  0.53893082  1
  H+  H325  1  0.12098440  0.74551231  0.35292709  1
  H+  H326  1  0.08928416  0.40780782  0.43705378  1
  H+  H327  1  0.82856233  0.15511566  0.77140112  1
  H+  H328  1  0.56232880  0.92979500  0.05850061  1
  H+  H329  1  0.12592591  0.51458570  0.92996731  1
  H+  H330  1  0.20070462  0.12378524  0.25132233  1
  H+  H331  1  0.95222905  0.10545547  0.22462136  1
  H+  H332  1  0.37282035  0.04136990  0.22440627  1
  H+  H333  1  0.91192988  0.81682103  0.26286292  1
  H+  H334  1  0.17050007  0.32962792  0.22851130  1
  H+  H335  1  0.60163570  0.42767777  0.41732441  1
  H+  H336  1  0.33311555  0.89474092  0.73139555  1
  H+  H337  1  0.46498205  0.26347715  0.18059745  1
  H+  H338  1  0.91258264  0.82992119  0.57930832  1
  H+  H339  1  0.38311592  0.76146634  0.82706510  1
  H+  H340  1  0.10264345  0.17156180  0.43105036  1
  H+  H341  1  0.45313727  0.32262947  0.26998802  1
  H+  H342  1  0.93011926  0.33249046  0.61007669  1
  H+  H343  1  0.30312671  0.43253206  0.08132725  1
  H+  H344  1  0.35879733  0.72167994  0.49534448  1
  H+  H345  1  0.92556521  0.86304795  0.67788952  1
  H+  H346  1  0.83551808  0.72298775  0.67276742  1
  H+  H347  1  0.65295496  0.87054060  0.14574837  1
  H+  H348  1  0.58946006  0.91094307  0.77149544  1
  H+  H349  1  0.48891127  0.87042031  0.66229743  1
  H+  H350  1  0.41727013  0.30804954  0.62017927  1
  H+  H351  1  0.82399045  0.91430599  0.42222132  1
  H+  H352  1  0.07166118  0.68556892  0.05188231  1
  H+  H353  1  0.32683330  0.91880074  0.46672010  1
  H+  H354  1  0.06280918  0.91622468  0.39502870  1
  H+  H355  1  0.82503588  0.06225077  0.50401743  1
  H+  H356  1  0.96713251  0.60609894  0.50996348  1
  H+  H357  1  0.73447874  0.36634315  0.49458711  1
  H+  H358  1  0.42385524  0.08108627  0.90762666  1
  H+  H359  1  0.64139186  0.39205391  0.32699029  1
  H+  H360  1  0.15892523  0.54758798  0.25965028  1
  H+  H361  1  0.15873271  0.08264953  0.90394450  1
  H+  H362  1  0.65594957  0.81267151  0.61384348  1
  H+  H363  1  0.38058736  0.52772816  0.65364146  1
  H+  H364  1  0.41512266  0.81777612  0.92431647  1
  H+  H365  1  0.35763099  0.22535467  0.83638114  1
  H+  H366  1  0.58150621  0.67690379  0.43687218  1
  H+  H367  1  0.42079414  0.82546722  0.56751127  1
  H+  H368  1  0.62396531  0.55907530  0.91150336  1
  H+  H369  1  0.83042273  0.41215686  0.08047386  1
  H+  H370  1  0.53795661  0.38354914  0.15398118  1
  H+  H371  1  0.07299266  0.64424318  0.04869466  1
  H+  H372  1  0.13154106  0.82682205  0.61268336  1
  H+  H373  1  0.16657194  0.59033168  0.55921653  1
  H+  H374  1  0.28603222  0.67571902  0.40778108  1
  H+  H375  1  0.45674078  0.56710674  0.24159819  1
  H+  H376  1  0.91202649  0.58686667  0.60315443  1
  H+  H377  1  0.81573322  0.92744947  0.06979010  1
  H+  H378  1  0.08154792  0.92136907  0.77404249  1
  H+  H379  1  0.34545473  0.37927938  0.81971746  1
  H+  H380  1  0.64379740  0.35505141  0.70700401  1
  H+  H381  1  0.89144680  0.30369135  0.24570927  1
  H+  H382  1  0.65851953  0.58013779  0.20377009  1
  H+  H383  1  0.43067806  0.10771048  0.57266961  1
  O2-  O384  1  0.10587887  0.17752620  0.13542110  1
  O2-  O385  1  0.09835136  0.17193160  0.47640359  1
  O2-  O386  1  0.07313379  0.16123942  0.81414688  1
  O2-  O387  1  0.04557662  0.37357370  0.14944460  1
  O2-  O388  1  0.09304696  0.41579907  0.48225306  1
  O2-  O389  1  0.08770104  0.43753714  0.88953050  1
  O2-  O390  1  0.08084407  0.64178738  0.17077023  1
  O2-  O391  1  0.07126458  0.65725268  0.48697225  1
  O2-  O392  1  0.13522652  0.68077787  0.81264888  1
  O2-  O393  1  0.18127572  0.96931804  0.14969608  1
  O2-  O394  1  0.04567847  0.94331700  0.47477939  1
  O2-  O395  1  0.09845556  0.92743063  0.81746530  1
  O2-  O396  1  0.38222953  0.18496297  0.14636087  1
  O2-  O397  1  0.33859529  0.17159357  0.47775386  1
  O2-  O398  1  0.32885362  0.16276434  0.82378668  1
  O2-  O399  1  0.29695392  0.45495632  0.12174399  1
  O2-  O400  1  0.34272108  0.42515823  0.45898451  1
  O2-  O401  1  0.31450088  0.40912643  0.80492396  1
  O2-  O402  1  0.30068281  0.60673796  0.12414162  1
  O2-  O403  1  0.32833874  0.66246810  0.47682201  1
  O2-  O404  1  0.31859872  0.66561410  0.79722846  1
  O2-  O405  1  0.40118219  0.93691023  0.12694392  1
  O2-  O406  1  0.34890834  0.92867690  0.50941553  1
  O2-  O407  1  0.35227904  0.90848697  0.77365549  1
  O2-  O408  1  0.60218818  0.20562456  0.17119740  1
  O2-  O409  1  0.59027315  0.16253270  0.48528610  1
  O2-  O410  1  0.56730350  0.12835998  0.81910375  1
  O2-  O411  1  0.55828589  0.43291708  0.12006389  1
  O2-  O412  1  0.59467802  0.42627698  0.46372591  1
  O2-  O413  1  0.56501369  0.41176901  0.81354333  1
  O2-  O414  1  0.58920023  0.66939597  0.11833402  1
  O2-  O415  1  0.57400524  0.66510343  0.48095736  1
  O2-  O416  1  0.55676291  0.65191494  0.81280874  1
  O2-  O417  1  0.56054840  0.97188278  0.13670655  1
  O2-  O418  1  0.57490204  0.91894593  0.48677505  1
  O2-  O419  1  0.58777737  0.91044817  0.81686929  1
  O2-  O420  1  0.75020867  0.11284668  0.18654683  1
  O2-  O421  1  0.87159359  0.09997050  0.47441763  1
  O2-  O422  1  0.82579218  0.15400632  0.81662444  1
  O2-  O423  1  0.81774451  0.40357198  0.16331923  1
  O2-  O424  1  0.83228989  0.41417245  0.47703044  1
  O2-  O425  1  0.87471684  0.41363100  0.80254639  1
  O2-  O426  1  0.84375687  0.65948697  0.14265340  1
  O2-  O427  1  0.83249579  0.66867056  0.48846203  1
  O2-  O428  1  0.88837076  0.68584978  0.80292866  1
  O2-  O429  1  0.85008287  0.92901634  0.14270728  1
  O2-  O430  1  0.75971798  1.00075441  0.55937742  1
  O2-  O431  1  0.83187181  0.89885555  0.81163873  1
  O2-  O432  1  0.20944490  0.13021645  0.18239243  1
  O2-  O433  1  0.17471485  0.08969299  0.52521310  1
  O2-  O434  1  0.16180279  0.08905443  0.85874255  1
  O2-  O435  1  0.16335308  0.33232281  0.18370604  1
  O2-  O436  1  0.17950259  0.33369909  0.51944465  1
  O2-  O437  1  0.14769553  0.33230119  0.84064571  1
  O2-  O438  1  0.15278350  0.54272440  0.18711485  1
  O2-  O439  1  0.16671131  0.58093355  0.51459694  1
  O2-  O440  1  0.14720546  0.60560320  0.81202785  1
  O2-  O441  1  0.19530165  0.79909790  0.21187057  1
  O2-  O442  1  0.14308828  0.81337339  0.54038823  1
  O2-  O443  1  0.24339663  0.92704010  0.85483111  1
  O2-  O444  1  0.34318496  0.03002916  0.18181178  1
  O2-  O445  1  0.43138003  0.10267996  0.52751651  1
  O2-  O446  1  0.40957957  0.07531874  0.86207096  1
  O2-  O447  1  0.50858401  0.32037365  0.19956120  1
  O2-  O448  1  0.43432341  0.35116445  0.49695384  1
  O2-  O449  1  0.39985295  0.32796608  0.84732680  1
  O2-  O450  1  0.43320234  0.58144429  0.17159155  1
  O2-  O451  1  0.40817224  0.57977737  0.49547049  1
  O2-  O452  1  0.39069620  0.57644006  0.84252249  1
  O2-  O453  1  0.34481948  0.80438715  0.20953236  1
  O2-  O454  1  0.41311654  0.82383815  0.52227730  1
  O2-  O455  1  0.41786985  0.82160650  0.84418884  1
  O2-  O456  1  0.66550365  0.09602817  0.20864020  1
  O2-  O457  1  0.65075646  0.07971179  0.52862247  1
  O2-  O458  1  0.66078733  0.07112054  0.85482397  1
  O2-  O459  1  0.67418706  0.36458290  0.23650118  1
  O2-  O460  1  0.67065424  0.33547028  0.50694120  1
  O2-  O461  1  0.68526384  0.37824698  0.85510719  1
  O2-  O462  1  0.66964479  0.58576954  0.15891511  1
  O2-  O463  1  0.65841880  0.58520607  0.51804790  1
  O2-  O464  1  0.57423984  0.53604625  0.88293246  1
  O2-  O465  1  0.59671881  0.82102741  0.13526746  1
  O2-  O466  1  0.64355758  0.82608363  0.53904860  1
  O2-  O467  1  0.65816272  0.80820361  0.85271606  1
  O2-  O468  1  0.95396346  0.10261509  0.17952798  1
  O2-  O469  1  0.94231021  0.14838419  0.51823925  1
  O2-  O470  1  0.90304198  0.06511902  0.85242065  1
  O2-  O471  1  0.87599761  0.29401523  0.20152989  1
  O2-  O472  1  0.93964654  0.36343827  0.54145413  1
  O2-  O473  1  0.91431080  0.31929677  0.87251329  1
  O2-  O474  1  0.91096754  0.57263325  0.20076238  1
  O2-  O475  1  0.90627337  0.57538110  0.52510792  1
  O2-  O476  1  0.84251168  0.52790984  0.85701655  1
  O2-  O477  1  0.91040419  0.82054448  0.18177676  1
  O2-  O478  1  0.94415564  0.81735265  0.54824562  1
  O2-  O479  1  0.92621719  0.83195947  0.85785696  1
  O2-  O480  1  0.19460338  0.11424645  0.29818607  1
  O2-  O481  1  0.17858066  0.06640602  0.64429376  1
  O2-  O482  1  0.15001311  0.06882784  0.98145884  1
  O2-  O483  1  0.18112898  0.33017015  0.30791413  1
  O2-  O484  1  0.16473717  0.30797933  0.64289840  1
  O2-  O485  1  0.15037056  0.31914245  0.97298065  1
  O2-  O486  1  0.15347391  0.55164702  0.30550205  1
  O2-  O487  1  0.18575877  0.65257347  0.62644367  1
  O2-  O488  1  0.14720803  0.56693657  0.95973438  1
  O2-  O489  1  0.16688343  0.84316174  0.32714216  1
  O2-  O490  1  0.13896720  0.84032745  0.65773786  1
  O2-  O491  1  0.18880617  0.83879954  0.96307631  1
  O2-  O492  1  0.40798042  0.06943156  0.33633994  1
  O2-  O493  1  0.42410937  0.09275777  0.65218742  1
  O2-  O494  1  0.45079619  0.08447449  0.97622859  1
  O2-  O495  1  0.44182134  0.32879888  0.31334955  1
  O2-  O496  1  0.42014924  0.32545411  0.66246678  1
  O2-  O497  1  0.45124978  0.40478885  0.95533247  1
  O2-  O498  1  0.47536620  0.55628351  0.28243762  1
  O2-  O499  1  0.41009753  0.58845808  0.64067657  1
  O2-  O500  1  0.39765686  0.57527325  0.96363995  1
  O2-  O501  1  0.39181888  0.83633111  0.32364705  1
  O2-  O502  1  0.42946271  0.84037505  0.64394490  1
  O2-  O503  1  0.41114310  0.81307528  0.96957208  1
  O2-  O504  1  0.66335793  0.07493890  0.32237326  1
  O2-  O505  1  0.66618231  0.07702767  0.64896302  1
  O2-  O506  1  0.65690649  0.10230141  0.97835494  1
  O2-  O507  1  0.68803763  0.35798611  0.30225785  1
  O2-  O508  1  0.67229677  0.32176622  0.71917384  1
  O2-  O509  1  0.68469572  0.33702920  0.97436734  1
  O2-  O510  1  0.62668059  0.56383393  0.27787158  1
  O2-  O511  1  0.65331201  0.57341795  0.64105864  1
  O2-  O512  1  0.67766894  0.57997761  0.98123927  1
  O2-  O513  1  0.73830487  0.96047268  0.20728824  1
  O2-  O514  1  0.66762180  0.81555814  0.65853666  1
  O2-  O515  1  0.74007071  0.97024809  1.05207601  1
  O2-  O516  1  0.95220049  0.10569763  0.30492588  1
  O2-  O517  1  0.91034307  0.05192848  0.64829654  1
  O2-  O518  1  0.90150842  0.08405243  0.97669907  1
  O2-  O519  1  0.91952004  0.32124270  0.32263314  1
  O2-  O520  1  0.91695596  0.31707656  0.65497965  1
  O2-  O521  1  0.90814766  0.31940016  0.99207070  1
  O2-  O522  1  0.93008887  0.58835922  0.32325639  1
  O2-  O523  1  0.90970370  0.58874948  0.64875284  1
  O2-  O524  1  0.91331008  0.56803596  0.96977557  1
  O2-  O525  1  0.90777527  0.82114141  0.30765594  1
  O2-  O526  1  0.86871089  0.83666185  0.65629382  1
  O2-  O527  1  0.94183575  0.82908191  0.98229663  1
  O2-  O528  1  0.06746637  0.15680660  0.01325405  1
  O2-  O529  1  0.10788694  0.17136809  0.35134904  1
  O2-  O530  1  0.08002311  0.14142091  0.68949329  1
  O2-  O531  1  0.05391390  0.37784581  0.02948909  1
  O2-  O532  1  0.08719606  0.39483520  0.35867249  1
  O2-  O533  1  0.05485878  0.32144748  0.72781612  1
  O2-  O534  1  0.08888487  0.66648814  -0.07005407  1
  O2-  O535  1  0.10117602  0.68432367  0.36645121  1
  O2-  O536  1  0.07300041  0.67548952  0.69904274  1
  O2-  O537  1  0.09848373  0.91011541  0.01591126  1
  O2-  O538  1  0.06351717  0.91048244  0.35049083  1
  O2-  O539  1  0.03703021  0.90312405  0.69609173  1
  O2-  O540  1  0.42551595  0.20405677  0.02802321  1
  O2-  O541  1  0.33864129  0.17162353  0.35344941  1
  O2-  O542  1  0.33849806  0.16646916  0.70422429  1
  O2-  O543  1  0.31962149  0.41361320  0.00884212  1
  O2-  O544  1  0.35226445  0.41004740  0.33864642  1
  O2-  O545  1  0.33031108  0.41437191  0.68252793  1
  O2-  O546  1  0.30458390  0.64694260  0.00065896  1
  O2-  O547  1  0.26482099  0.69010996  0.37018687  1
  O2-  O548  1  0.33020380  0.67134231  0.67510104  1
  O2-  O549  1  0.35422182  0.91824758  0.00988794  1
  O2-  O550  1  0.31632730  0.91525254  0.38528359  1
  O2-  O551  1  0.31521948  0.91576886  0.63740265  1
  O2-  O552  1  0.62360744  0.16201523  -0.02721299  1
  O2-  O553  1  0.43487004  0.06312682  0.27728426  1
  O2-  O554  1  0.58316219  0.15441735  0.70466341  1
  O2-  O555  1  0.59389888  0.41331607  0.01248119  1
  O2-  O556  1  0.60290189  0.41929612  0.34670285  1
  O2-  O557  1  0.59263301  0.41702584  0.69544213  1
  O2-  O558  1  0.57370553  0.65506497  -0.00183074  1
  O2-  O559  1  0.55500812  0.70010970  0.35972484  1
  O2-  O560  1  0.57399095  0.65371668  0.69180100  1
  O2-  O561  1  0.56715357  0.88774907  0.03218763  1
  O2-  O562  1  0.56247384  0.91681612  0.35964840  1
  O2-  O563  1  0.58911254  0.91077165  0.69143917  1
  O2-  O564  1  0.82346427  0.16870021  0.02200941  1
  O2-  O565  1  0.84123162  0.15433282  0.36058324  1
  O2-  O566  1  0.83136772  0.15029039  0.68861719  1
  O2-  O567  1  0.83871247  0.41663971  0.03531820  1
  O2-  O568  1  0.84229749  0.41522382  0.35354266  1
  O2-  O569  1  0.82895068  0.40411615  0.65523352  1
  O2-  O570  1  0.84288797  0.65879899  0.01767668  1
  O2-  O571  1  0.84557610  0.67188853  0.36310938  1
  O2-  O572  1  0.81400090  0.66280384  0.68504541  1
  O2-  O573  1  0.79101295  0.93222080  0.02992610  1
  O2-  O574  1  0.84768589  0.93831784  0.30561951  1
  O2-  O575  1  0.83131243  0.88611511  0.68264886  1
