# generated using pymatgen
data_H2O
_symmetry_space_group_name_H-M   'P 1'
_cell_length_a   17.98411411
_cell_length_b   18.00138424
_cell_length_c   22.01206252
_cell_angle_alpha   89.97412477
_cell_angle_beta   89.99071201
_cell_angle_gamma   119.96619163
_symmetry_Int_Tables_number   1
_chemical_formula_structural   H2O
_chemical_formula_sum   'H384 O192'
_cell_volume   6173.53743596
_cell_formula_units_Z   192
loop_
 _symmetry_equiv_pos_site_id
 _symmetry_equiv_pos_as_xyz
  1  'x, y, z'
loop_
 _atom_type_symbol
 _atom_type_oxidation_number
  H+  1.0
  O2-  -2.0
loop_
 _atom_site_type_symbol
 _atom_site_label
 _atom_site_symmetry_multiplicity
 _atom_site_fract_x
 _atom_site_fract_y
 _atom_site_fract_z
 _atom_site_occupancy
  H+  H0  1  0.38305483  0.26903575  0.17828960  1
  H+  H1  1  0.38494352  0.77861999  0.18845051  1
  H+  H2  1  0.27422988  0.89094820  0.15780970  1
  H+  H3  1  0.02561370  0.13407270  0.82102358  1
  H+  H4  1  0.87963155  0.02009188  0.83915937  1
  H+  H5  1  0.61311718  0.16405790  0.36081665  1
  H+  H6  1  0.64775288  0.27944536  0.64549533  1
  H+  H7  1  0.08802172  0.16546816  0.76228797  1
  H+  H8  1  0.73492379  0.89392046  0.50644289  1
  H+  H9  1  0.37257375  0.14975188  0.49904902  1
  H+  H10  1  0.43427473  0.84813306  0.50666444  1
  H+  H11  1  0.56223082  0.64099232  0.14408148  1
  H+  H12  1  0.98221134  0.61630580  0.17695427  1
  H+  H13  1  0.61417931  0.59215137  0.82595486  1
  H+  H14  1  0.51525870  0.37773889  0.16655699  1
  H+  H15  1  0.03047098  0.39542508  0.15456377  1
  H+  H16  1  0.34543917  0.41600409  0.90094874  1
  H+  H17  1  0.83355320  0.72480441  -0.08972634  1
  H+  H18  1  0.13054885  0.36598779  0.16927873  1
  H+  H19  1  0.10771593  0.13068075  0.34506234  1
  H+  H20  1  0.85945649  0.97808993  0.34050497  1
  H+  H21  1  0.11835248  0.73138204  0.81677852  1
  H+  H22  1  0.87567198  0.58121228  0.79195025  1
  H+  H23  1  0.14769613  0.35572839  0.81943031  1
  H+  H24  1  0.69551206  0.58313653  0.83085551  1
  H+  H25  1  0.60210052  0.19314586  0.51601726  1
  H+  H26  1  0.58428418  0.45128956  1.00561067  1
  H+  H27  1  0.44729991  0.59685781  0.89597148  1
  H+  H28  1  0.80931245  0.09094546  0.82217544  1
  H+  H29  1  0.52984890  0.63146038  0.34100466  1
  H+  H30  1  1.01241270  0.91559385  0.98939908  1
  H+  H31  1  0.34173038  0.62941562  0.06345130  1
  H+  H32  1  0.10212891  0.38126002  0.49533234  1
  H+  H33  1  0.15634521  0.86301120  0.64713184  1
  H+  H34  1  0.39753716  0.61994774  0.33385897  1
  H+  H35  1  0.12758451  0.15144581  0.67232596  1
  H+  H36  1  0.86891457  0.14206181  0.49719870  1
  H+  H37  1  0.14310261  0.78328301  0.17326996  1
  H+  H38  1  0.10275562  0.47186968  0.34663453  1
  H+  H39  1  0.77771334  0.41189454  0.49856312  1
  H+  H40  1  0.13164627  0.90789459  0.00337250  1
  H+  H41  1  0.66062566  0.77063261  0.16313404  1
  H+  H42  1  0.40503999  0.28027193  0.49784969  1
  H+  H43  1  0.62254091  0.36061805  0.83502409  1
  H+  H44  1  0.34059754  0.17289563  0.40687663  1
  H+  H45  1  0.73223724  0.59780004  0.49502156  1
  H+  H46  1  0.41210140  0.30233730  0.93641905  1
  H+  H47  1  0.51461092  0.13920995  0.36336537  1
  H+  H48  1  0.00970932  0.38738195  0.34030126  1
  H+  H49  1  0.41396172  0.32695936  0.23787869  1
  H+  H50  1  0.63335291  0.53087636  0.64692722  1
  H+  H51  1  0.72744750  0.11833787  -0.00520925  1
  H+  H52  1  0.62571736  0.60816304  0.48572111  1
  H+  H53  1  0.54307809  0.65332902  0.81977404  1
  H+  H54  1  0.71393344  0.35127921  0.83356259  1
  H+  H55  1  0.37617619  1.00671564  0.16917452  1
  H+  H56  1  0.14922865  0.11786200  0.83177895  1
  H+  H57  1  0.86143437  0.22862727  0.50137136  1
  H+  H58  1  1.02996418  0.64447637  0.80986771  1
  H+  H59  1  0.77431973  0.63287340  0.34451001  1
  H+  H60  1  0.72587349  0.11618512  0.65168524  1
  H+  H61  1  0.40787104  0.60474597  0.98731454  1
  H+  H62  1  0.79797010  0.54148901  0.00689617  1
  H+  H63  1  0.17503752  0.58128036  0.39882833  1
  H+  H64  1  0.21114535  0.62630195  0.21628055  1
  H+  H65  1  0.13950711  0.51278171  0.50002744  1
  H+  H66  1  0.26817541  0.12657269  0.16812137  1
  H+  H67  1  0.62662032  0.63316356  -0.00216307  1
  H+  H68  1  0.04217990  0.39241665  0.67068533  1
  H+  H69  1  0.60237032  0.37503873  0.16543864  1
  H+  H70  1  0.86325217  0.48264572  0.16487749  1
  H+  H71  1  0.35891145  0.36962635  0.98829997  1
  H+  H72  1  0.87640708  0.11970733  0.99211477  1
  H+  H73  1  0.64016319  0.51194453  0.17617128  1
  H+  H74  1  0.88362924  0.27825154  0.32786152  1
  H+  H75  1  0.91881501  0.34250534  0.23177171  1
  H+  H76  1  0.88929967  0.77417376  0.17902448  1
  H+  H77  1  0.23306205  0.86996985  0.83876386  1
  H+  H78  1  0.03903056  0.49746845  0.78525303  1
  H+  H79  1  0.83661502  0.35052279  0.82096500  1
  H+  H80  1  0.85711594  0.39185892  0.50416639  1
  H+  H81  1  0.89624550  0.27360360  0.66216266  1
  H+  H82  1  0.37894915  0.63952324  0.48369262  1
  H+  H83  1  0.73779370  0.14357328  0.34157943  1
  H+  H84  1  0.51205695  0.35986272  0.82549365  1
  H+  H85  1  0.62592784  0.12112006  0.18083170  1
  H+  H86  1  0.28790682  0.38724428  0.84275852  1
  H+  H87  1  0.14512701  0.27427753  0.66060958  1
  H+  H88  1  0.07140585  0.66021809  0.40601033  1
  H+  H89  1  0.51891434  0.12877648  0.01174808  1
  H+  H90  1  0.85916798  0.47768658  0.34369854  1
  H+  H91  1  0.14431779  0.87273625  0.16757228  1
  H+  H92  1  0.40160463  0.53312109  0.50207120  1
  H+  H93  1  0.12552071  0.15137690  0.49794775  1
  H+  H94  1  0.09663095  0.67688280  0.10989270  1
  H+  H95  1  0.39554960  0.10839880  -0.01359988  1
  H+  H96  1  0.54745603  0.64354660  0.00768566  1
  H+  H97  1  0.40521929  0.51588539  0.98274844  1
  H+  H98  1  0.69656824  0.86652071  0.89720727  1
  H+  H99  1  0.89877383  0.51300015  0.65821554  1
  H+  H100  1  0.63962063  0.36813207  -0.01009595  1
  H+  H101  1  0.12619630  0.63880849  0.66372038  1
  H+  H102  1  0.92258165  0.83390216  0.98012049  1
  H+  H103  1  -0.02673804  0.85953708  0.50337300  1
  H+  H104  1  0.02274348  0.88672768  0.15965286  1
  H+  H105  1  0.87832946  0.48469926  0.02084586  1
  H+  H106  1  0.57498730  0.91212080  0.50600198  1
  H+  H107  1  0.68371152  0.09012313  0.84303987  1
  H+  H108  1  0.37242359  0.98471478  -0.00127395  1
  H+  H109  1  0.28310038  0.64978023  0.34391222  1
  H+  H110  1  0.87345849  0.88562032  0.16188650  1
  H+  H111  1  -0.00014218  0.61330832  0.51400030  1
  H+  H112  1  0.89829835  0.13434738  0.17841189  1
  H+  H113  1  0.77531579  0.62739079  0.16926299  1
  H+  H114  1  0.91447338  0.82762760  0.85039784  1
  H+  H115  1  0.16603129  0.06796697  0.49338484  1
  H+  H116  1  0.12739313  0.97289638  0.65586612  1
  H+  H117  1  0.77476249  0.39076992  0.16790320  1
  H+  H118  1  0.89289495  0.61487135  0.17836525  1
  H+  H119  1  0.23308246  0.87542545  0.98965903  1
  H+  H120  1  0.77920003  0.15435284  0.16198003  1
  H+  H121  1  0.36475680  0.20965426  0.01277169  1
  H+  H122  1  0.52581680  0.89409937  1.00007082  1
  H+  H123  1  0.11846568  0.24545950  0.15746365  1
  H+  H124  1  0.15288893  0.77247108  0.64950636  1
  H+  H125  1  0.38504827  0.25330028  0.83715720  1
  H+  H126  1  0.82146690  0.63521412  -0.00348146  1
  H+  H127  1  0.11953541  0.94265835  0.50635403  1
  H+  H128  1  0.78026409  0.38316108  0.65629773  1
  H+  H129  1  0.38586528  0.10836161  0.34039363  1
  H+  H130  1  0.62964522  0.87751777  0.65631845  1
  H+  H131  1  0.11509803  0.26224737  0.32277635  1
  H+  H132  1  0.54168794  0.93187950  0.44497688  1
  H+  H133  1  0.37486124  0.63538987  0.66876638  1
  H+  H134  1  0.14241782  1.00224483  0.00760254  1
  H+  H135  1  0.14787453  0.17967896  0.13702794  1
  H+  H136  1  0.85435486  0.13168964  0.66493834  1
  H+  H137  1  0.38951975  0.79129982  0.98063706  1
  H+  H138  1  0.26619252  0.62976473  0.83671078  1
  H+  H139  1  0.73490954  0.37842530  0.98796723  1
  H+  H140  1  0.13547310  0.52567362  0.98159361  1
  H+  H141  1  0.23871130  0.11497376  0.83325163  1
  H+  H142  1  0.38676042  0.35657751  0.32968875  1
  H+  H143  1  0.38734280  0.34440344  0.84910555  1
  H+  H144  1  0.49575794  0.61567421  0.49680733  1
  H+  H145  1  0.17781981  0.10036448  0.92312952  1
  H+  H146  1  0.63718940  0.40918345  0.50945914  1
  H+  H147  1  0.38630771  1.03352538  0.66569036  1
  H+  H148  1  0.99189158  0.60638380  0.65863547  1
  H+  H149  1  0.63624707  0.82670666  0.49741282  1
  H+  H150  1  0.52281523  0.89325011  0.67087817  1
  H+  H151  1  0.37638311  0.12717296  0.81933157  1
  H+  H152  1  0.13305378  0.65368099  0.00649440  1
  H+  H153  1  0.34023090  0.62911814  0.19880223  1
  H+  H154  1  0.52860776  0.65117485  0.66118246  1
  H+  H155  1  1.01977829  0.88279641  0.34396522  1
  H+  H156  1  0.19300834  0.87256531  0.26262761  1
  H+  H157  1  0.98574788  0.12158281  0.50229950  1
  H+  H158  1  0.39083297  0.87969646  0.98647610  1
  H+  H159  1  0.47642679  0.86063862  0.17369600  1
  H+  H160  1  0.33889652  0.41641883  0.54956571  1
  H+  H161  1  0.14391815  0.86850497  0.83482371  1
  H+  H162  1  0.99386646  0.85764066  0.64913171  1
  H+  H163  1  0.63562478  0.02653311  0.65316445  1
  H+  H164  1  0.87802446  0.36473714  0.32850206  1
  H+  H165  1  0.61890107  0.86817782  0.15498378  1
  H+  H166  1  0.11312991  0.39221694  0.99263012  1
  H+  H167  1  0.27408783  0.13321589  0.35133858  1
  H+  H168  1  0.37382407  0.10257578  0.17458817  1
  H+  H169  1  0.89158514  0.37464396  0.17263534  1
  H+  H170  1  0.11229180  0.34947838  0.32421061  1
  H+  H171  1  0.82684659  0.40183227  0.72124365  1
  H+  H172  1  0.89483590  0.03190968  0.49952886  1
  H+  H173  1  0.59358565  0.21373346  0.16577065  1
  H+  H174  1  0.54227587  0.18194952  0.82541997  1
  H+  H175  1  0.26005470  0.54258537  0.07923194  1
  H+  H176  1  0.83579970  0.66773153  0.11137378  1
  H+  H177  1  0.63909008  0.04841911  0.21117988  1
  H+  H178  1  0.28956605  0.16437253  0.49978487  1
  H+  H179  1  0.37522881  0.47952346  0.34681708  1
  H+  H180  1  0.35125317  0.38283506  0.17056125  1
  H+  H181  1  0.40667071  0.52114502  0.64144043  1
  H+  H182  1  0.11849361  0.62224391  0.49699871  1
  H+  H183  1  0.63865451  0.10483054  0.50579490  1
  H+  H184  1  0.15593931  0.55019673  0.82973982  1
  H+  H185  1  0.86462854  0.14190159  0.34468642  1
  H+  H186  1  0.64055996  0.70226115  0.49272330  1
  H+  H187  1  0.87491774  0.72603961  0.90081224  1
  H+  H188  1  0.61965254  0.94233236  0.36657652  1
  H+  H189  1  0.22341608  0.60526921  0.99786135  1
  H+  H190  1  0.12951255  0.98725618  0.81559970  1
  H+  H191  1  0.47055357  0.10684828  0.17183937  1
  H+  H192  1  0.96995889  0.11000427  0.33488111  1
  H+  H193  1  -0.03334153  0.36315942  0.50816327  1
  H+  H194  1  0.12517770  0.71492456  0.49963074  1
  H+  H195  1  0.62391487  0.77552361  0.65610367  1
  H+  H196  1  0.78173978  0.88618653  0.15974971  1
  H+  H197  1  0.37105972  0.39555898  0.49163030  1
  H+  H198  1  0.45824097  0.09310977  0.51000308  1
  H+  H199  1  0.84065492  0.67113109  0.40025646  1
  H+  H200  1  0.83510902  0.68994043  0.82837257  1
  H+  H201  1  0.96482517  0.11942515  0.99070167  1
  H+  H202  1  0.43782460  0.59727907  0.18133730  1
  H+  H203  1  0.38986801  0.64988996  0.82796315  1
  H+  H204  1  0.68780965  0.55973744  0.97414860  1
  H+  H205  1  0.22153380  0.36942025  0.50676940  1
  H+  H206  1  0.13147814  1.01415530  0.18065361  1
  H+  H207  1  0.11327411  0.64994127  0.17690906  1
  H+  H208  1  0.64054744  1.02336407  -0.00310824  1
  H+  H209  1  0.36567368  0.89169198  0.16026314  1
  H+  H210  1  0.59454755  0.45415455  0.82094545  1
  H+  H211  1  0.64517989  0.89366035  0.82027304  1
  H+  H212  1  0.85934241  0.23723034  1.00497892  1
  H+  H213  1  0.86577931  -0.00408653  1.01880279  1
  H+  H214  1  0.13091035  0.74203169  0.00942385  1
  H+  H215  1  0.14757222  0.32801163  0.23309246  1
  H+  H216  1  0.13484673  0.01907238  0.34107359  1
  H+  H217  1  0.72219993  0.37721716  0.33315966  1
  H+  H218  1  0.08064767  0.04635336  0.62591794  1
  H+  H219  1  0.28002910  0.11957194  1.01155379  1
  H+  H220  1  0.35824256  0.50098056  0.18573928  1
  H+  H221  1  0.34077292  0.92604928  0.05980555  1
  H+  H222  1  0.46521882  0.33636645  -0.00139865  1
  H+  H223  1  0.64392521  0.72826488  0.81707271  1
  H+  H224  1  0.39989800  0.78171160  0.66707513  1
  H+  H225  1  0.98426918  0.13131218  0.18126339  1
  H+  H226  1  0.38441757  0.26553372  0.33109770  1
  H+  H227  1  0.59134120  0.09425804  0.85696602  1
  H+  H228  1  1.02552673  0.39568116  0.99704838  1
  H+  H229  1  0.52535796  0.15303721  0.66527786  1
  H+  H230  1  0.78039099  0.70165605  0.77922410  1
  H+  H231  1  0.83231856  0.18102823  0.06609117  1
  H+  H232  1  0.15804838  0.89794384  0.32112708  1
  H+  H233  1  1.03604283  0.91035740  0.81150255  1
  H+  H234  1  0.24567063  0.85635457  0.34772255  1
  H+  H235  1  0.63479751  0.77218545  -0.02624425  1
  H+  H236  1  0.49436966  0.86837769  0.83173288  1
  H+  H237  1  0.12320692  0.09493816  0.19823253  1
  H+  H238  1  0.94015988  0.30170808  0.83455065  1
  H+  H239  1  0.80396967  0.85210829  0.83761092  1
  H+  H240  1  0.11365870  0.23365710  0.49310037  1
  H+  H241  1  0.73921520  0.11551083  0.50733708  1
  H+  H242  1  0.88462201  0.61288073  0.32962977  1
  H+  H243  1  0.73038819  0.60590590  0.63931856  1
  H+  H244  1  0.89794865  0.36286166  0.66105727  1
  H+  H245  1  0.62713312  0.36597343  0.33479262  1
  H+  H246  1  0.24130478  0.61829095  0.65401303  1
  H+  H247  1  0.62709326  0.95783253  0.14478479  1
  H+  H248  1  0.08973810  0.45555843  0.75677024  1
  H+  H249  1  0.08041493  0.16467890  0.40287701  1
  H+  H250  1  0.61876230  0.85202072  -0.02359504  1
  H+  H251  1  0.13855802  0.26397439  0.82944742  1
  H+  H252  1  0.70530758  0.27503085  0.21446053  1
  H+  H253  1  0.67274725  0.08011203  0.57052426  1
  H+  H254  1  0.59823888  0.46280145  0.35904694  1
  H+  H255  1  0.32821083  0.84495816  0.35916805  1
  H+  H256  1  0.49845944  0.40445869  0.67127758  1
  H+  H257  1  0.25217211  0.13586101  0.66643345  1
  H+  H258  1  0.86772212  0.24267356  0.15963263  1
  H+  H259  1  0.37715530  0.11774660  0.66150570  1
  H+  H260  1  0.22318493  0.17567308  0.96970260  1
  H+  H261  1  0.60823258  0.13243254  1.01960100  1
  H+  H262  1  0.61147660  0.02334805  0.35413457  1
  H+  H263  1  0.77431849  0.88465242  0.33890833  1
  H+  H264  1  0.35717142  0.74543133  0.49818347  1
  H+  H265  1  0.37195816  0.89667745  0.82361441  1
  H+  H266  1  0.62872721  0.83191515  0.31133418  1
  H+  H267  1  0.37494642  0.98676524  0.82875735  1
  H+  H268  1  0.87315088  0.62689404  0.66002509  1
  H+  H269  1  0.65297759  0.60612785  0.17398076  1
  H+  H270  1  0.88531082  0.37563955  0.99890113  1
  H+  H271  1  0.64757568  0.07985172  0.91763288  1
  H+  H272  1  0.60895328  0.14539198  0.66034082  1
  H+  H273  1  1.00301195  0.62486109  1.02155419  1
  H+  H274  1  0.56301333  0.41492586  0.72355584  1
  H+  H275  1  0.87006611  0.73191525  0.49570160  1
  H+  H276  1  0.86244706  0.89178132  0.49603536  1
  H+  H277  1  0.40835524  0.53290442  0.84209374  1
  H+  H278  1  0.38627317  0.73894292  0.82567801  1
  H+  H279  1  0.02906454  0.13287688  0.67716399  1
  H+  H280  1  0.84962714  0.44548431  0.81565823  1
  H+  H281  1  0.12857305  0.27596601  0.98534291  1
  H+  H282  1  0.88034177  0.64860216  0.49624876  1
  H+  H283  1  0.09918538  0.14074304  0.00226147  1
  H+  H284  1  0.89053742  0.92248809  0.01521486  1
  H+  H285  1  0.56998762  0.39896885  0.06813924  1
  H+  H286  1  0.88385721  0.77373136  0.32831057  1
  H+  H287  1  0.41082689  0.34497654  0.59123745  1
  H+  H288  1  0.88602709  0.86447353  0.32940118  1
  H+  H289  1  0.33448552  0.22788747  0.66251136  1
  H+  H290  1  0.64154821  0.75256246  0.32265430  1
  H+  H291  1  0.84088210  0.17591924  0.40526812  1
  H+  H292  1  0.33948427  0.15775708  0.76175042  1
  H+  H293  1  0.16355510  0.33545943  0.56574261  1
  H+  H294  1  0.12454558  0.86134709  0.49073338  1
  H+  H295  1  0.56903827  0.82130386  0.78427888  1
  H+  H296  1  0.26048259  0.38073337  0.16910359  1
  H+  H297  1  0.41462202  0.57598059  0.27795582  1
  H+  H298  1  0.87926896  0.26043358  0.89019952  1
  H+  H299  1  0.91458780  0.33312074  0.57025480  1
  H+  H300  1  0.16417892  0.08929242  0.57624550  1
  H+  H301  1  0.67870263  0.82117857  0.22634613  1
  H+  H302  1  0.50935103  0.37534589  0.34850919  1
  H+  H303  1  0.56601529  0.15473944  0.10285676  1
  H+  H304  1  0.32840677  0.82443804  0.50641323  1
  H+  H305  1  0.91893456  0.36975996  0.93438228  1
  H+  H306  1  0.58352436  0.90492724  0.05845803  1
  H+  H307  1  0.52512060  0.39155714  0.44783301  1
  H+  H308  1  0.67730549  0.12894950  0.28444224  1
  H+  H309  1  0.81206073  0.17820701  0.81707720  1
  H+  H310  1  0.38181668  0.45011910  0.74020190  1
  H+  H311  1  0.08073323  0.90344254  0.40277421  1
  H+  H312  1  0.37384410  0.73834539  0.33645633  1
  H+  H313  1  0.19614234  0.59663717  0.89973363  1
  H+  H314  1  0.15943609  0.32977168  0.92333391  1
  H+  H315  1  0.33875262  0.92469978  0.73425932  1
  H+  H316  1  0.43215297  0.08456055  0.92455883  1
  H+  H317  1  0.40425214  0.08387735  0.56831035  1
  H+  H318  1  0.07549068  0.17598784  0.06167876  1
  H+  H319  1  0.17100200  0.07609797  0.28202920  1
  H+  H320  1  0.23465865  0.60036444  0.49460880  1
  H+  H321  1  0.34953157  0.66588727  0.72966157  1
  H+  H322  1  0.83431232  0.65675387  0.71317135  1
  H+  H323  1  0.15991038  0.37011782  0.66195142  1
  H+  H324  1  0.10426326  0.91975118  0.71803870  1
  H+  H325  1  0.91566242  0.58083326  0.27171368  1
  H+  H326  1  0.63876765  0.60002540  0.33039296  1
  H+  H327  1  0.90394416  0.77039763  0.64842153  1
  H+  H328  1  0.39659055  0.86985413  0.66928535  1
  H+  H329  1  0.66997619  0.56495457  0.55217652  1
  H+  H330  1  0.27443458  0.38102976  -0.01607491  1
  H+  H331  1  1.01641458  0.62765989  0.34517693  1
  H+  H332  1  0.12969047  0.48301061  0.66348526  1
  H+  H333  1  0.89234902  0.57431240  0.86001883  1
  H+  H334  1  0.32777069  0.15226718  0.10760479  1
  H+  H335  1  0.91956106  0.83695828  0.23667077  1
  H+  H336  1  0.47544034  0.88769108  0.33488789  1
  H+  H337  1  0.94170359  0.90295849  0.89382097  1
  H+  H338  1  0.08578851  0.92600457  0.10090986  1
  H+  H339  1  0.42151280  0.85202838  0.27354944  1
  H+  H340  1  0.09590425  0.67169139  0.72241997  1
  H+  H341  1  0.89746209  0.52303013  0.51197373  1
  H+  H342  1  0.91180633  0.08349149  0.59004669  1
  H+  H343  1  0.67537535  0.34512619  0.58877544  1
  H+  H344  1  0.17043813  0.84230189  0.93183212  1
  H+  H345  1  0.66825415  0.34439297  0.90295498  1
  H+  H346  1  0.90236339  0.08007179  0.89626247  1
  H+  H347  1  0.13597828  0.62170900  0.35493371  1
  H+  H348  1  0.33939459  0.44873978  0.73889704  1
  H+  H349  1  0.91506625  0.09132607  0.27408673  1
  H+  H350  1  0.66689835  0.32622102  0.24660245  1
  H+  H351  1  0.85622649  0.72956699  0.03968819  1
  H+  H352  1  0.59436179  0.92436432  0.72506763  1
  H+  H353  1  0.90442638  0.76035521  0.03971794  1
  H+  H354  1  0.28896673  0.36708442  0.63857646  1
  H+  H355  1  0.93337294  0.57947713  0.57884917  1
  H+  H356  1  0.66654289  0.85136281  0.59567242  1
  H+  H357  1  0.26975814  0.84753097  0.43599898  1
  H+  H358  1  0.43451604  0.85008296  0.89015997  1
  H+  H359  1  0.82989425  0.41663013  0.07302232  1
  H+  H360  1  0.18425668  0.58926677  0.59288449  1
  H+  H361  1  0.08509766  0.41780300  0.09389733  1
  H+  H362  1  0.81314064  0.14801096  0.72414354  1
  H+  H363  1  0.32032888  0.40699223  0.39440865  1
  H+  H364  1  0.63477531  0.33397671  0.47462571  1
  H+  H365  1  0.41834133  0.07698823  0.28519299  1
  H+  H366  1  0.62205379  0.54705856  0.92297322  1
  H+  H367  1  0.59633059  0.65843362  0.39723394  1
  H+  H368  1  0.59074024  0.68639823  0.72042477  1
  H+  H369  1  0.34666361  0.66872346  0.42369609  1
  H+  H370  1  0.19797502  0.82946073  0.55858451  1
  H+  H371  1  0.28662311  0.89077984  0.67134852  1
  H+  H372  1  0.66951360  0.56303820  0.27676567  1
  H+  H373  1  0.57672161  0.15542054  0.44625494  1
  H+  H374  1  0.29707791  0.65223422  0.14640631  1
  H+  H375  1  0.93506459  0.60976558  0.97178268  1
  H+  H376  1  0.43190995  0.59062105  0.58988966  1
  H+  H377  1  0.62325175  0.67385769  0.08759830  1
  H+  H378  1  0.13132974  0.59203051  0.26016244  1
  H+  H379  1  0.92120885  0.83573302  0.56541645  1
  H+  H380  1  0.06866488  0.40745299  0.43530808  1
  H+  H381  1  0.84937461  0.92896897  0.09464855  1
  H+  H382  1  0.83348726  0.91972693  0.43528432  1
  H+  H383  1  0.83285935  0.42129949  0.40409931  1
  O2-  O384  1  0.09651971  0.18501838  0.13780160  1
  O2-  O385  1  0.08668321  0.17246389  0.48043399  1
  O2-  O386  1  0.08673795  0.16298421  0.80886383  1
  O2-  O387  1  0.08958708  0.41936414  0.13853490  1
  O2-  O388  1  0.07141244  0.41186951  0.48095452  1
  O2-  O389  1  0.07642223  0.47482773  0.79662308  1
  O2-  O390  1  0.08634981  0.67960122  0.15388598  1
  O2-  O391  1  0.08504470  0.65281769  0.48945790  1
  O2-  O392  1  0.09049088  0.67342996  0.79777282  1
  O2-  O393  1  0.08397605  0.92062659  0.14592764  1
  O2-  O394  1  0.09005029  0.88994555  0.48273564  1
  O2-  O395  1  0.09540529  0.92726268  0.80005339  1
  O2-  O396  1  0.32859616  0.15321127  0.15322093  1
  O2-  O397  1  0.35033181  0.18836225  0.48322927  1
  O2-  O398  1  0.34147851  0.15489880  0.80664528  1
  O2-  O399  1  0.32278685  0.41511581  0.15727243  1
  O2-  O400  1  0.33748201  0.42336445  0.50425864  1
  O2-  O401  1  0.34890832  0.41714673  0.85563701  1
  O2-  O402  1  0.31752191  0.66833148  0.18850656  1
  O2-  O403  1  0.33962047  0.66070628  0.46937801  1
  O2-  O404  1  0.35569920  0.67645005  0.81301003  1
  O2-  O405  1  0.33741365  0.92373318  0.14424670  1
  O2-  O406  1  0.27570230  0.86067408  0.48633400  1
  O2-  O407  1  0.33876671  0.92532536  0.81348830  1
  O2-  O408  1  0.56156177  0.15338793  0.15072522  1
  O2-  O409  1  0.58099076  0.14038637  0.49270924  1
  O2-  O410  1  0.52220248  0.12075355  0.83102510  1
  O2-  O411  1  0.57582251  0.40686283  0.14931421  1
  O2-  O412  1  0.52277425  0.39110415  0.49368235  1
  O2-  O413  1  0.57272575  0.39276269  0.80912922  1
  O2-  O414  1  0.62317190  0.67200585  0.13430889  1
  O2-  O415  1  0.60049274  0.64791985  0.47358924  1
  O2-  O416  1  0.59979653  0.67280065  0.79971884  1
  O2-  O417  1  0.58684239  0.89685348  0.13918359  1
  O2-  O418  1  0.52533653  0.91145583  0.48736566  1
  O2-  O419  1  0.59064387  0.88006878  0.79812983  1
  O2-  O420  1  0.83647973  0.18225590  0.14293271  1
  O2-  O421  1  0.83311314  0.16863713  0.48483835  1
  O2-  O422  1  0.77465684  0.11668938  0.80757918  1
  O2-  O423  1  0.83200549  0.42228291  0.14828996  1
  O2-  O424  1  0.83929192  0.43323246  0.48851514  1
  O2-  O425  1  0.81086618  0.38412450  0.80542582  1
  O2-  O426  1  0.83690245  0.66618663  0.15569114  1
  O2-  O427  1  0.84642310  0.67225467  0.47868111  1
  O2-  O428  1  0.79799238  0.66101908  0.79321539  1
  O2-  O429  1  0.84383224  0.91740760  0.14585790  1
  O2-  O430  1  0.83364270  0.92353799  0.48063720  1
  O2-  O431  1  0.74267717  0.83183858  0.82866092  1
  O2-  O432  1  0.16348701  0.07344587  0.19937380  1
  O2-  O433  1  0.18832185  0.11638428  0.52116405  1
  O2-  O434  1  0.17869069  0.08832750  0.84989875  1
  O2-  O435  1  0.15662355  0.33203771  0.18686068  1
  O2-  O436  1  0.16075517  0.33854180  0.52033118  1
  O2-  O437  1  0.16972085  0.32589709  0.84401203  1
  O2-  O438  1  0.14795700  0.60029199  0.21758249  1
  O2-  O439  1  0.17490969  0.57579661  0.51066691  1
  O2-  O440  1  0.20323468  0.60150439  0.85343664  1
  O2-  O441  1  0.17868069  0.84666896  0.18194279  1
  O2-  O442  1  0.18860951  0.81802073  0.51282558  1
  O2-  O443  1  0.17169805  0.83770914  0.85274835  1
  O2-  O444  1  0.40683924  0.07159442  0.18691538  1
  O2-  O445  1  0.40183181  0.08335124  0.52309662  1
  O2-  O446  1  0.43292086  0.08608206  0.85505229  1
  O2-  O447  1  0.41420907  0.32946186  0.19188184  1
  O2-  O448  1  0.43172596  0.34536296  0.51060363  1
  O2-  O449  1  0.41671834  0.31082695  0.85785416  1
  O2-  O450  1  0.38452813  0.56364556  0.20352043  1
  O2-  O451  1  0.43599038  0.59596639  0.51125604  1
  O2-  O452  1  0.44114629  0.59572601  0.85096959  1
  O2-  O453  1  0.41926993  0.84273133  0.19125911  1
  O2-  O454  1  0.37186871  0.80294585  0.51830633  1
  O2-  O455  1  0.43368400  0.84294098  0.84526339  1
  O2-  O456  1  0.66930066  0.10943368  0.20158421  1
  O2-  O457  1  0.67630801  0.07965019  0.52169131  1
  O2-  O458  1  0.63133993  0.07200763  0.87024629  1
  O2-  O459  1  0.67547955  0.30613857  0.20393896  1
  O2-  O460  1  0.66712738  0.37577448  0.50625348  1
  O2-  O461  1  0.65735241  0.33214679  0.85490304  1
  O2-  O462  1  0.67593786  0.57136004  0.19257840  1
  O2-  O463  1  0.67108990  0.56105028  0.50588105  1
  O2-  O464  1  0.63508038  0.55472597  0.84436675  1
  O2-  O465  1  0.68174802  0.82912080  0.18104389  1
  O2-  O466  1  0.67520947  0.87541472  0.52237822  1
  O2-  O467  1  0.72973108  0.89821468  0.85843266  1
  O2-  O468  1  0.92634451  0.10562588  0.19844594  1
  O2-  O469  1  0.92307899  0.09237257  0.51446232  1
  O2-  O470  1  0.90307987  0.08008915  0.85081506  1
  O2-  O471  1  0.92077214  0.34284202  0.18634103  1
  O2-  O472  1  0.90686018  0.33417539  0.52512251  1
  O2-  O473  1  0.88225346  0.28344634  0.84935606  1
  O2-  O474  1  0.92139451  0.58255480  0.19205056  1
  O2-  O475  1  0.93521733  0.58437304  0.53000633  1
  O2-  O476  1  0.90402606  0.56050520  0.81951215  1
  O2-  O477  1  0.91977240  0.83601332  0.19060184  1
  O2-  O478  1  0.91426504  0.83511572  0.51895927  1
  O2-  O479  1  0.92688648  0.88697281  0.85023104  1
  O2-  O480  1  0.16770964  0.08021063  0.32663897  1
  O2-  O481  1  0.14271771  0.06840660  0.62637976  1
  O2-  O482  1  0.18208222  0.11404219  0.96851515  1
  O2-  O483  1  0.13874019  0.31956169  0.30364178  1
  O2-  O484  1  0.18082715  0.33410639  0.64273628  1
  O2-  O485  1  0.16280074  0.33528884  0.96849878  1
  O2-  O486  1  0.17335597  0.59254651  0.35558136  1
  O2-  O487  1  0.18110133  0.58917318  0.63800277  1
  O2-  O488  1  0.17419487  0.58825725  0.97020824  1
  O2-  O489  1  0.20896137  0.89822267  0.30357027  1
  O2-  O490  1  0.18713757  0.83212959  0.63335428  1
  O2-  O491  1  0.17116653  0.84563497  0.97750195  1
  O2-  O492  1  0.42069032  0.08110640  0.32935366  1
  O2-  O493  1  0.41244432  0.09262556  0.64838975  1
  O2-  O494  1  0.42689948  0.07953463  0.97195355  1
  O2-  O495  1  0.41551562  0.32504699  0.31335635  1
  O2-  O496  1  0.38815875  0.34450398  0.63328260  1
  O2-  O497  1  0.40517065  0.30405921  0.98156187  1
  O2-  O498  1  0.42649605  0.58694748  0.32233383  1
  O2-  O499  1  0.42875612  0.58313372  0.63512335  1
  O2-  O500  1  0.44282499  0.57965098  0.97578950  1
  O2-  O501  1  0.41850739  0.84539582  0.31843926  1
  O2-  O502  1  0.43076331  0.84296607  0.65553965  1
  O2-  O503  1  0.42354234  0.85158759  0.96933167  1
  O2-  O504  1  0.67630321  0.12255614  0.32906861  1
  O2-  O505  1  0.66625445  0.08514986  0.63381979  1
  O2-  O506  1  0.66582548  0.08379013  0.98103143  1
  O2-  O507  1  0.66759502  0.35570815  0.31044954  1
  O2-  O508  1  0.68934965  0.33934923  0.63092075  1
  O2-  O509  1  0.67957824  0.35610224  0.96599222  1
  O2-  O510  1  0.66863859  0.56696668  0.32163197  1
  O2-  O511  1  0.67213191  0.58251820  0.62264663  1
  O2-  O512  1  0.62767307  0.54794685  0.96815544  1
  O2-  O513  1  0.66957463  0.81247924  0.30335960  1
  O2-  O514  1  0.65908565  0.84382604  0.64118079  1
  O2-  O515  1  0.63142105  0.81602231  0.94891501  1
  O2-  O516  1  0.90926324  0.08323434  0.31951732  1
  O2-  O517  1  0.89177680  0.07599728  0.63347603  1
  O2-  O518  1  0.90351998  0.08634603  0.97729793  1
  O2-  O519  1  0.91035430  0.33771346  0.31098856  1
  O2-  O520  1  0.93092123  0.33421801  0.64800540  1
  O2-  O521  1  0.91501251  0.34850074  0.97580201  1
  O2-  O522  1  0.91217705  0.57866597  0.31700679  1
  O2-  O523  1  0.93045040  0.57451965  0.64277825  1
  O2-  O524  1  0.93956688  0.59169366  1.01267223  1
  O2-  O525  1  0.91554874  0.83422829  0.31267577  1
  O2-  O526  1  0.93331092  0.83122368  0.63556371  1
  O2-  O527  1  0.95299273  0.89578422  0.97250208  1
  O2-  O528  1  0.06991774  0.17180685  0.01605479  1
  O2-  O529  1  0.07416559  0.15856324  0.35758571  1
  O2-  O530  1  0.09652421  0.17885040  0.68986193  1
  O2-  O531  1  0.08734970  0.42666392  0.00816132  1
  O2-  O532  1  0.06850314  0.41095929  0.35866507  1
  O2-  O533  1  0.10220528  0.42725903  0.68624125  1
  O2-  O534  1  0.10792370  0.68404166  0.02837829  1
  O2-  O535  1  0.07615737  0.65872919  0.36145802  1
  O2-  O536  1  0.09234849  0.66653413  0.67664225  1
  O2-  O537  1  0.10571033  0.94227368  0.02026121  1
  O2-  O538  1  0.08036262  0.91420863  0.35864418  1
  O2-  O539  1  0.10575082  0.91395192  0.67323314  1
  O2-  O540  1  0.33764588  0.14923561  0.02984861  1
  O2-  O541  1  0.33649012  0.16588319  0.36154565  1
  O2-  O542  1  0.31199956  0.17032649  0.68063995  1
  O2-  O543  1  0.33829399  0.41104381  -0.01964006  1
  O2-  O544  1  0.34728997  0.41695758  0.35471457  1
  O2-  O545  1  0.35092858  0.40101426  0.62443922  1
  O2-  O546  1  0.27965164  0.60229984  0.06830601  1
  O2-  O547  1  0.34657574  0.67718819  0.35004259  1
  O2-  O548  1  0.34491879  0.66523036  0.68478206  1
  O2-  O549  1  0.33897786  0.92330183  0.01478579  1
  O2-  O550  1  0.27179538  0.83051805  0.37634206  1
  O2-  O551  1  0.34508055  0.92572724  0.68908343  1
  O2-  O552  1  0.57303885  0.15549812  0.03640729  1
  O2-  O553  1  0.57220820  0.17496553  0.38365641  1
  O2-  O554  1  0.58780622  0.18337968  0.67436838  1
  O2-  O555  1  0.56629397  0.39331396  0.02299152  1
  O2-  O556  1  0.56331088  0.40289967  0.37389285  1
  O2-  O557  1  0.55802952  0.43981701  0.68522426  1
  O2-  O558  1  0.60994590  0.67373207  0.01675211  1
  O2-  O559  1  0.59276635  0.65985144  0.35170162  1
  O2-  O560  1  0.58678562  0.69517284  0.67629900  1
  O2-  O561  1  0.58628318  0.91804661  0.01437384  1
  O2-  O562  1  0.57812684  0.96193486  0.36906333  1
  O2-  O563  1  0.58898883  0.92764704  0.68033604  1
  O2-  O564  1  0.82905191  0.17753245  0.02021615  1
  O2-  O565  1  0.83862899  0.17671332  0.35998189  1
  O2-  O566  1  0.82544443  0.16397595  0.68096411  1
  O2-  O567  1  0.83626044  0.42217312  0.02736580  1
  O2-  O568  1  0.82835999  0.41695557  0.35932635  1
  O2-  O569  1  0.83991700  0.41251505  0.67748156  1
  O2-  O570  1  0.78761897  0.57768109  -0.02090160  1
  O2-  O571  1  0.83664975  0.66965882  0.35487929  1
  O2-  O572  1  0.84254996  0.65881395  0.66903704  1
  O2-  O573  1  0.85140308  0.93852872  0.03644331  1
  O2-  O574  1  0.83294279  0.91731157  0.35602163  1
  O2-  O575  1  0.95077088  1.06147326  0.66854135  1
