# generated using pymatgen
data_H2O
_symmetry_space_group_name_H-M   'P 1'
_cell_length_a   17.99167721
_cell_length_b   17.99732472
_cell_length_c   22.00609896
_cell_angle_alpha   89.99470686
_cell_angle_beta   89.97918754
_cell_angle_gamma   119.99128060
_symmetry_Int_Tables_number   1
_chemical_formula_structural   H2O
_chemical_formula_sum   'H384 O192'
_cell_volume   6171.50944144
_cell_formula_units_Z   192
loop_
 _symmetry_equiv_pos_site_id
 _symmetry_equiv_pos_as_xyz
  1  'x, y, z'
loop_
 _atom_type_symbol
 _atom_type_oxidation_number
  H+  1.0
  O2-  -2.0
loop_
 _atom_site_type_symbol
 _atom_site_label
 _atom_site_symmetry_multiplicity
 _atom_site_fract_x
 _atom_site_fract_y
 _atom_site_fract_z
 _atom_site_occupancy
  H+  H0  1  0.38087523  0.26561510  0.18302756  1
  H+  H1  1  0.89654580  0.49572242  0.67783254  1
  H+  H2  1  0.79093537  0.63619415  0.29807022  1
  H+  H3  1  0.50900508  0.10192506  0.67465939  1
  H+  H4  1  0.09429481  0.59681072  1.01963952  1
  H+  H5  1  0.12213538  0.73262713  0.67879752  1
  H+  H6  1  0.06096041  0.43705059  0.16667585  1
  H+  H7  1  0.35980023  0.09569307  0.31626525  1
  H+  H8  1  0.68831921  0.07023713  0.18277564  1
  H+  H9  1  0.35363244  0.96032259  0.49251598  1
  H+  H10  1  0.13453866  0.26676224  0.84401904  1
  H+  H11  1  0.80798295  0.40626494  0.68134651  1
  H+  H12  1  0.37601735  0.35556204  0.97457981  1
  H+  H13  1  0.89145770  0.87269527  0.84206307  1
  H+  H14  1  0.61594566  0.64231630  0.14543842  1
  H+  H15  1  0.88093453  0.78045904  0.16107514  1
  H+  H16  1  0.86282753  0.89133136  0.67248889  1
  H+  H17  1  0.50849412  0.36293336  0.49460566  1
  H+  H18  1  0.90869237  0.33515184  0.51979264  1
  H+  H19  1  0.34258412  0.20768342  0.34490507  1
  H+  H20  1  0.32373241  0.90644390  0.39817365  1
  H+  H21  1  0.71012042  0.13298014  0.33497847  1
  H+  H22  1  0.36166976  0.73145151  0.67816494  1
  H+  H23  1  0.88146826  0.27093721  0.99886170  1
  H+  H24  1  0.86457468  0.63953278  1.00525485  1
  H+  H25  1  0.12701256  0.11358461  0.31727610  1
  H+  H26  1  0.27429661  0.15110082  0.16058841  1
  H+  H27  1  0.19064011  0.09038860  0.66605012  1
  H+  H28  1  0.63930345  0.27160163  0.82099503  1
  H+  H29  1  0.60726382  0.21045523  0.13512741  1
  H+  H30  1  0.64031152  0.90590053  0.82275858  1
  H+  H31  1  0.10815227  0.22660846  0.33577178  1
  H+  H32  1  0.77833371  0.89622815  0.15396444  1
  H+  H33  1  0.50430743  0.62335323  0.66675460  1
  H+  H34  1  0.83421374  0.92087966  0.77061977  1
  H+  H35  1  0.61382613  0.33834696  0.00101742  1
  H+  H36  1  0.36671973  0.64615436  1.01214839  1
  H+  H37  1  0.72306331  0.61055413  0.14793525  1
  H+  H38  1  0.76666084  0.65391021  0.66367413  1
  H+  H39  1  0.34427027  0.96033756  0.33558562  1
  H+  H40  1  0.63064149  0.34313470  0.13548232  1
  H+  H41  1  0.26871076  0.87740411  1.00723573  1
  H+  H42  1  0.12032857  0.65250376  0.16702227  1
  H+  H43  1  0.10953629  0.35858242  0.83528114  1
  H+  H44  1  1.02179791  0.14479665  1.00739638  1
  H+  H45  1  0.62441014  0.51462232  0.50292393  1
  H+  H46  1  0.22923620  0.35465718  0.66135472  1
  H+  H47  1  0.50496398  0.87785361  1.01175254  1
  H+  H48  1  0.36908491  0.76011854  0.50752704  1
  H+  H49  1  0.63910328  0.62909155  0.83935432  1
  H+  H50  1  0.58382745  0.54092517  0.27780584  1
  H+  H51  1  0.97188401  0.50389859  0.10352028  1
  H+  H52  1  0.60626777  0.20826793  0.50022801  1
  H+  H53  1  0.63528198  0.09922271  0.98488253  1
  H+  H54  1  0.76853090  0.13550407  0.00426238  1
  H+  H55  1  0.13453668  0.88120180  0.83960902  1
  H+  H56  1  0.22354170  0.36580501  0.32310969  1
  H+  H57  1  0.37376754  0.26068824  0.65175299  1
  H+  H58  1  0.99461692  0.36007030  0.31984866  1
  H+  H59  1  0.91806018  0.83311648  0.59363712  1
  H+  H60  1  0.01081018  0.35891512  0.83089369  1
  H+  H61  1  0.88912971  0.38676701  0.32037329  1
  H+  H62  1  0.81086096  0.31542984  0.47091763  1
  H+  H63  1  0.53273859  0.39968013  0.84265696  1
  H+  H64  1  0.27944320  0.38633888  0.15883674  1
  H+  H65  1  0.53014801  0.89610752  0.33775797  1
  H+  H66  1  0.89120476  0.78455015  0.83852374  1
  H+  H67  1  0.39040935  0.52326823  1.00170179  1
  H+  H68  1  0.59436578  0.07421552  0.51949395  1
  H+  H69  1  0.86935450  0.73180147  0.00624399  1
  H+  H70  1  1.01979934  0.15272092  0.15812171  1
  H+  H71  1  0.77545699  0.40135437  0.43821416  1
  H+  H72  1  0.42911658  0.83523890  0.81923999  1
  H+  H73  1  0.10917612  0.24406910  0.15770914  1
  H+  H74  1  0.39238667  0.86847389  0.00038444  1
  H+  H75  1  0.97217285  0.60442304  0.50547499  1
  H+  H76  1  0.77022839  0.65169385  0.81945278  1
  H+  H77  1  0.15684756  0.39081990  0.17214842  1
  H+  H78  1  0.72495630  0.27403561  0.68051232  1
  H+  H79  1  0.40939276  0.33054591  0.91381041  1
  H+  H80  1  0.39209056  0.77544238  0.33375774  1
  H+  H81  1  0.03054017  0.39336464  0.01147189  1
  H+  H82  1  0.27696239  0.39506062  0.82686577  1
  H+  H83  1  0.44685482  0.09407368  0.31573032  1
  H+  H84  1  -0.01986424  0.86049949  0.50810101  1
  H+  H85  1  0.13046278  0.11433971  0.00177002  1
  H+  H86  1  0.34786734  0.63768187  0.49694040  1
  H+  H87  1  0.63163782  0.86621778  1.00377821  1
  H+  H88  1  0.86883089  0.88259783  0.48891119  1
  H+  H89  1  0.11223296  0.97691830  0.01755514  1
  H+  H90  1  0.02748430  0.37234136  0.68329075  1
  H+  H91  1  0.34945481  0.48796624  0.67228025  1
  H+  H92  1  0.82730495  0.90900820  0.38969984  1
  H+  H93  1  0.62952609  0.08699678  0.66965205  1
  H+  H94  1  0.14056627  1.03481254  0.84249751  1
  H+  H95  1  0.25205314  0.66462193  0.17612551  1
  H+  H96  1  0.10841366  0.48419202  0.33351188  1
  H+  H97  1  0.87461575  0.10795835  0.66039793  1
  H+  H98  1  0.29762577  0.06896590  0.70577274  1
  H+  H99  1  0.77321170  0.63314472  0.49403286  1
  H+  H100  1  0.47192836  0.09638010  0.49964944  1
  H+  H101  1  0.46965250  0.62479114  0.51015955  1
  H+  H102  1  0.21385044  0.61774113  0.33393168  1
  H+  H103  1  0.14100621  0.36821326  -0.00652846  1
  H+  H104  1  0.62202774  0.78829196  0.31097786  1
  H+  H105  1  0.77906867  0.87939773  0.49106705  1
  H+  H106  1  0.51018464  0.37541914  0.16449429  1
  H+  H107  1  0.14322492  0.77873110  0.17359600  1
  H+  H108  1  0.37130888  0.41671578  0.66283575  1
  H+  H109  1  0.40745359  0.83042430  0.60478898  1
  H+  H110  1  0.59362118  0.45976964  0.13973240  1
  H+  H111  1  0.59838318  0.63414694  0.48534246  1
  H+  H112  1  0.63191007  0.86254927  0.14821858  1
  H+  H113  1  1.02820767  0.64972959  0.16838875  1
  H+  H114  1  0.27136124  0.12726482  1.00083534  1
  H+  H115  1  0.07801806  0.66043953  0.43645103  1
  H+  H116  1  0.49240362  0.64557094  0.33939189  1
  H+  H117  1  0.90508417  0.36868318  0.67734368  1
  H+  H118  1  0.89155206  1.02370808  0.32215399  1
  H+  H119  1  0.35116410  0.19482306  0.47561261  1
  H+  H120  1  0.77309515  0.37894474  0.35112484  1
  H+  H121  1  1.01950808  0.13582734  0.33494693  1
  H+  H122  1  0.52101803  0.33548396  0.71571370  1
  H+  H123  1  0.10579257  0.88174055  0.67206768  1
  H+  H124  1  0.16573749  0.31540258  0.60467770  1
  H+  H125  1  0.35720010  0.21317310  -0.01464371  1
  H+  H126  1  0.10782641  0.88042537  0.49442463  1
  H+  H127  1  0.78282412  0.09736495  0.39251321  1
  H+  H128  1  0.14985111  0.53246321  0.98387559  1
  H+  H129  1  0.39209425  0.51567423  0.17484576  1
  H+  H130  1  0.88711458  0.86584229  -0.00165529  1
  H+  H131  1  0.87822917  0.11199767  0.17149136  1
  H+  H132  1  0.86301547  0.42914046  0.06470327  1
  H+  H133  1  0.14867253  0.39765255  0.50173705  1
  H+  H134  1  0.21145742  0.10562901  0.31519706  1
  H+  H135  1  0.18848441  0.61970506  0.23514073  1
  H+  H136  1  0.27598607  0.38921608  1.00622662  1
  H+  H137  1  0.92088642  0.73592152  0.35426209  1
  H+  H138  1  0.89013461  0.03038504  0.16907247  1
  H+  H139  1  0.35706310  -0.01109064  0.82889769  1
  H+  H140  1  0.14066237  0.86665974  1.00224595  1
  H+  H141  1  0.22510074  0.86488553  0.66140203  1
  H+  H142  1  0.95109617  0.30173262  0.15912540  1
  H+  H143  1  0.59672357  0.18888552  0.68251518  1
  H+  H144  1  0.82180004  0.55173776  0.88130364  1
  H+  H145  1  0.61989841  0.74570644  0.84267217  1
  H+  H146  1  0.02435765  0.89868933  0.82841436  1
  H+  H147  1  0.61833005  0.33877942  0.52936425  1
  H+  H148  1  0.96849540  0.11672599  0.84411847  1
  H+  H149  1  0.61162914  0.08523438  0.17693340  1
  H+  H150  1  0.86047878  0.63100243  0.50669257  1
  H+  H151  1  0.37948969  0.09214414  0.50118540  1
  H+  H152  1  0.15147496  0.72899109  0.31946279  1
  H+  H153  1  0.37823837  0.30667336  0.41174544  1
  H+  H154  1  0.13630361  0.27656739  0.99416499  1
  H+  H155  1  0.78470514  0.60083851  0.31973066  1
  H+  H156  1  0.51871378  0.91746892  0.81313830  1
  H+  H157  1  0.90637125  0.54360282  0.17598335  1
  H+  H158  1  0.22789863  0.12459241  0.85332444  1
  H+  H159  1  0.14152159  0.13431833  0.16288904  1
  H+  H160  1  0.66673423  0.24562231  0.36193749  1
  H+  H161  1  0.62485545  0.14128066  0.83285580  1
  H+  H162  1  0.92229167  0.41857166  0.14506709  1
  H+  H163  1  0.23008553  0.62570691  0.98875051  1
  H+  H164  1  0.25499232  0.63599178  0.49408467  1
  H+  H165  1  0.78178381  0.38341978  0.82013201  1
  H+  H166  1  0.13695147  0.37002049  0.32346804  1
  H+  H167  1  0.60106519  0.15813785  0.32912811  1
  H+  H168  1  0.68092690  0.64648750  0.37396642  1
  H+  H169  1  0.68026427  0.37511094  0.35294315  1
  H+  H170  1  0.80294745  0.15294971  0.78101365  1
  H+  H171  1  0.62527535  0.60866771  0.65081662  1
  H+  H172  1  0.27094952  0.87701053  0.16374015  1
  H+  H173  1  0.61237839  -0.03872351  0.66758294  1
  H+  H174  1  0.88613792  0.01327838  0.50403638  1
  H+  H175  1  0.35158276  0.37847278  0.34542705  1
  H+  H176  1  0.25222754  0.89603793  0.82886691  1
  H+  H177  1  0.98095368  0.85829227  0.32491204  1
  H+  H178  1  0.86810575  0.47720571  0.00022769  1
  H+  H179  1  0.64177670  0.54090590  0.84881741  1
  H+  H180  1  0.10197882  0.21343301  0.67758332  1
  H+  H181  1  0.47196485  0.85945413  0.66165934  1
  H+  H182  1  0.93854142  0.62261814  0.33640152  1
  H+  H183  1  0.47734793  0.62144935  0.85241834  1
  H+  H184  1  0.93102522  0.59529049  0.23902782  1
  H+  H185  1  0.77571821  0.89293013  0.00971064  1
  H+  H186  1  0.26237438  0.11041074  0.49214530  1
  H+  H187  1  0.89715879  0.48171668  0.32506872  1
  H+  H188  1  0.64474817  0.53205638  0.65057591  1
  H+  H189  1  0.87860109  0.09369888  0.49081235  1
  H+  H190  1  0.00709245  0.13023017  0.67536438  1
  H+  H191  1  0.10868701  0.97014074  0.49452645  1
  H+  H192  1  0.47424358  0.60936229  0.17386522  1
  H+  H193  1  0.12697232  0.76505416  0.50918270  1
  H+  H194  1  0.32669825  0.16478614  0.68845210  1
  H+  H195  1  0.40700287  0.58218047  0.26564926  1
  H+  H196  1  0.65708622  0.58267140  0.55563622  1
  H+  H197  1  0.85906101  0.13935882  1.00983278  1
  H+  H198  1  0.85439186  0.64439826  0.81351564  1
  H+  H199  1  0.97206233  0.59043452  1.00430510  1
  H+  H200  1  0.49900561  0.36029797  0.99564916  1
  H+  H201  1  0.87903459  0.51789032  0.50618926  1
  H+  H202  1  0.38372075  0.53466957  0.50747223  1
  H+  H203  1  0.80638321  0.15622366  0.44961535  1
  H+  H204  1  0.59631591  0.44380930  0.33193481  1
  H+  H205  1  0.73146108  0.63551055  0.99571187  1
  H+  H206  1  0.68275106  0.31521116  0.72149226  1
  H+  H207  1  0.12893154  0.50580447  0.48532425  1
  H+  H208  1  0.38605706  0.67477499  0.84126386  1
  H+  H209  1  1.02675369  0.88695756  1.01785936  1
  H+  H210  1  0.11091271  0.63082612  0.49376417  1
  H+  H211  1  0.88912488  0.77046539  0.51142028  1
  H+  H212  1  0.86028195  0.63992960  0.16219653  1
  H+  H213  1  0.64696490  0.36466852  0.82635178  1
  H+  H214  1  0.86770842  0.51296444  0.84271793  1
  H+  H215  1  0.87065411  0.38229388  0.00171414  1
  H+  H216  1  0.17447833  0.81684555  0.24001157  1
  H+  H217  1  0.39520115  0.78069204  0.99482083  1
  H+  H218  1  0.02428806  0.12668157  0.48823502  1
  H+  H219  1  0.73624154  0.86808411  0.85028064  1
  H+  H220  1  0.44643981  0.33283510  0.34589923  1
  H+  H221  1  0.09486613  -0.03417753  0.66906344  1
  H+  H222  1  0.86402989  -0.01917202  0.83017954  1
  H+  H223  1  0.50874533  0.86664210  0.10714520  1
  H+  H224  1  0.40609199  0.24630184  0.64420697  1
  H+  H225  1  0.27856330  0.64185435  0.69994958  1
  H+  H226  1  0.11690094  0.37120737  0.67976372  1
  H+  H227  1  0.00923056  0.66094807  0.82920807  1
  H+  H228  1  0.66080271  0.90884043  0.48456680  1
  H+  H229  1  0.11221951  0.61981121  0.83846434  1
  H+  H230  1  0.36014869  0.14286068  0.15804332  1
  H+  H231  1  0.56337279  0.67418937  0.43428333  1
  H+  H232  1  0.47176221  0.36147188  0.76505493  1
  H+  H233  1  0.81559433  0.19952058  0.16245048  1
  H+  H234  1  0.31717631  0.66086497  0.40248302  1
  H+  H235  1  0.10547212  -0.02107024  0.33213814  1
  H+  H236  1  0.34817910  0.86949994  0.49292174  1
  H+  H237  1  0.63668759  0.88131540  0.31029704  1
  H+  H238  1  0.89230024  0.36239818  0.84404947  1
  H+  H239  1  0.61342360  0.73319783  0.14933825  1
  H+  H240  1  0.63853089  0.77266566  0.50460896  1
  H+  H241  1  0.76569228  0.12751577  0.67894721  1
  H+  H242  1  0.88636393  0.84327197  0.32619867  1
  H+  H243  1  0.75218755  0.37938160  0.50650626  1
  H+  H244  1  0.27581507  0.40934220  0.49231950  1
  H+  H245  1  0.66852453  0.32087087  0.07916271  1
  H+  H246  1  0.35886660  0.39949274  0.47814613  1
  H+  H247  1  0.38108524  0.10183831  0.99132349  1
  H+  H248  1  0.10639449  0.09711941  0.66053765  1
  H+  H249  1  0.21685920  0.85243084  0.50675144  1
  H+  H250  1  0.68477622  0.03884047  0.32284773  1
  H+  H251  1  0.55851645  0.61838467  0.72254298  1
  H+  H252  1  0.39849857  0.37050815  0.82674172  1
  H+  H253  1  0.85502827  0.21742989  0.68568790  1
  H+  H254  1  0.70972451  1.00471017  0.45693232  1
  H+  H255  1  0.16407004  0.58138101  0.76562236  1
  H+  H256  1  0.85621708  -0.02361639  0.67166658  1
  H+  H257  1  0.57366760  0.14182699  0.77506120  1
  H+  H258  1  0.08194678  0.92175960  0.39234204  1
  H+  H259  1  0.61265447  0.92351384  0.75836812  1
  H+  H260  1  0.86811162  0.75734515  0.66108071  1
  H+  H261  1  0.60667830  0.86972245  0.66476442  1
  H+  H262  1  0.47576855  0.10921630  0.84361073  1
  H+  H263  1  0.51553582  0.11045357  -0.00114511  1
  H+  H264  1  1.01185095  0.59959250  0.31764802  1
  H+  H265  1  0.51459522  0.63054426  1.00673583  1
  H+  H266  1  0.36089862  0.88311328  0.68035120  1
  H+  H267  1  0.35825957  0.96692228  0.00861846  1
  H+  H268  1  0.64781679  0.60046477  0.38084087  1
  H+  H269  1  0.47956086  0.40640528  0.65747727  1
  H+  H270  1  0.14270330  0.52403225  0.70638851  1
  H+  H271  1  0.61663643  -0.00094834  0.51485208  1
  H+  H272  1  0.77841339  0.23393174  0.51196987  1
  H+  H273  1  0.17073005  0.34630941  0.23088361  1
  H+  H274  1  0.88523019  1.02692908  0.00005134  1
  H+  H275  1  0.97483100  0.85881544  0.65856544  1
  H+  H276  1  0.77077619  0.88609681  0.32907703  1
  H+  H277  1  0.31282724  0.27649457  0.47462145  1
  H+  H278  1  0.99170565  0.61926594  0.66258024  1
  H+  H279  1  0.37841131  0.01291237  0.16068715  1
  H+  H280  1  0.38463102  0.62488599  0.66438495  1
  H+  H281  1  0.63755673  0.76114004  0.66112970  1
  H+  H282  1  0.36438329  0.37950653  0.16354880  1
  H+  H283  1  0.36106257  -0.02884092  0.67462255  1
  H+  H284  1  0.13216442  0.10635370  0.49911206  1
  H+  H285  1  0.37658853  0.52191893  0.32457399  1
  H+  H286  1  0.41057601  0.12325177  0.64097041  1
  H+  H287  1  0.37539637  0.24340840  0.83206700  1
  H+  H288  1  0.08875014  0.91172488  0.11728959  1
  H+  H289  1  0.41848644  0.58499206  0.94286572  1
  H+  H290  1  0.16005011  0.58298153  0.55472299  1
  H+  H291  1  0.62129580  0.25303464  0.99901861  1
  H+  H292  1  0.08124356  0.18001260  0.06641605  1
  H+  H293  1  0.65585908  0.30938487  0.58491848  1
  H+  H294  1  0.63485323  0.77959512  0.99869933  1
  H+  H295  1  0.15042340  0.52268213  0.16083557  1
  H+  H296  1  0.59643822  0.43774231  0.79039508  1
  H+  H297  1  0.32500884  0.42680047  0.39353024  1
  H+  H298  1  0.91987807  0.08610056  0.26548522  1
  H+  H299  1  0.68087417  0.56908331  0.28889436  1
  H+  H300  1  0.09953724  0.43692808  0.06497377  1
  H+  H301  1  0.36871594  0.84059435  0.14899304  1
  H+  H302  1  0.64996298  0.55999915  0.19619266  1
  H+  H303  1  0.39158819  0.12091900  0.84708625  1
  H+  H304  1  0.20319719  0.42597756  0.56041646  1
  H+  H305  1  0.08224561  0.15703517  0.42881601  1
  H+  H306  1  0.58808900  0.66282675  0.34224084  1
  H+  H307  1  0.22448343  0.82796137  0.32694509  1
  H+  H308  1  0.83774094  0.92451298  0.06785526  1
  H+  H309  1  0.40960719  0.06602554  0.93558187  1
  H+  H310  1  0.57243951  0.70340337  0.78216417  1
  H+  H311  1  0.92858420  0.58094417  0.60435553  1
  H+  H312  1  0.93357283  0.33941476  0.61830162  1
  H+  H313  1  0.11103550  0.87862679  0.17727821  1
  H+  H314  1  0.54498693  0.44940613  0.38520585  1
  H+  H315  1  0.72514887  0.85290797  0.66324881  1
  H+  H316  1  0.97442682  0.86473423  0.16668709  1
  H+  H317  1  0.91682123  0.32974461  0.93889369  1
  H+  H318  1  0.90420931  0.08128227  0.59803498  1
  H+  H319  1  0.16426909  0.83146928  0.60176402  1
  H+  H320  1  0.57601423  0.13723680  0.05705290  1
  H+  H321  1  0.16141456  0.09147273  0.21849250  1
  H+  H322  1  0.45871490  0.84887981  0.50754653  1
  H+  H323  1  0.13204403  0.79049906  0.84081128  1
  H+  H324  1  0.16539417  0.33065327  0.90330418  1
  H+  H325  1  0.06627038  0.63114933  0.07931854  1
  H+  H326  1  0.60004601  0.31520944  0.25654559  1
  H+  H327  1  0.07971523  0.92315998  0.76700003  1
  H+  H328  1  0.67337738  0.82843072  0.56534869  1
  H+  H329  1  0.60436577  0.93020419  0.38933402  1
  H+  H330  1  0.15460198  0.08083060  0.94250558  1
  H+  H331  1  0.15558909  0.07669528  0.56216587  1
  H+  H332  1  0.87549402  0.11012255  0.84720592  1
  H+  H333  1  0.93227939  0.32850748  0.22416269  1
  H+  H334  1  0.32530711  0.92071387  0.76809349  1
  H+  H335  1  0.39148023  0.86216951  0.33188101  1
  H+  H336  1  0.36379330  0.69775970  0.77797975  1
  H+  H337  1  0.65590328  0.84142466  0.21453959  1
  H+  H338  1  0.07224259  0.16095421  0.77312400  1
  H+  H339  1  0.58241576  0.39278774  0.44792750  1
  H+  H340  1  0.91164964  0.08523621  0.94060816  1
  H+  H341  1  0.71601877  0.10363104  0.88832816  1
  H+  H342  1  0.82586563  0.68403080  0.72646813  1
  H+  H343  1  0.43751425  0.38047921  0.59207898  1
  H+  H344  1  0.33242464  0.42965247  0.76661791  1
  H+  H345  1  0.12251714  0.64536350  0.69974516  1
  H+  H346  1  0.08779442  0.42860685  0.39443097  1
  H+  H347  1  0.41595072  0.06700233  0.58834511  1
  H+  H348  1  0.04513385  0.41085823  0.48988886  1
  H+  H349  1  0.32264747  0.90363238  0.09895593  1
  H+  H350  1  0.51488343  0.12498909  0.14723428  1
  H+  H351  1  0.34280434  0.62857577  0.34144053  1
  H+  H352  1  0.92306727  0.58143670  0.93936773  1
  H+  H353  1  0.07679121  0.38677662  0.76814871  1
  H+  H354  1  0.95233147  0.43079192  0.54335726  1
  H+  H355  1  0.33804692  0.41100973  0.06382233  1
  H+  H356  1  0.33987624  0.69291104  0.06366745  1
  H+  H357  1  0.88850726  0.67523392  0.41217485  1
  H+  H358  1  0.92014323  0.83932358  0.93925447  1
  H+  H359  1  0.83638897  0.66637889  0.09806786  1
  H+  H360  1  0.85814058  0.42772285  0.77285628  1
  H+  H361  1  0.86830727  0.89460724  0.15242272  1
  H+  H362  1  0.90951253  0.26627645  0.31596875  1
  H+  H363  1  0.59595345  0.15907559  0.43687864  1
  H+  H364  1  0.40238998  0.07107865  0.21865490  1
  H+  H365  1  0.64099136  0.35735317  0.25322790  1
  H+  H366  1  0.54908469  0.38447702  0.05858735  1
  H+  H367  1  0.16466694  0.58928396  0.87739297  1
  H+  H368  1  0.57954363  0.66894500  0.07085115  1
  H+  H369  1  0.67498570  0.84516152  0.91009014  1
  H+  H370  1  0.61997500  0.64293730  0.00389310  1
  H+  H371  1  0.32302923  0.16078514  0.78879933  1
  H+  H372  1  0.67490256  0.61422895  0.93444771  1
  H+  H373  1  0.40200994  0.32353824  0.24480083  1
  H+  H374  1  0.87568453  0.26619043  0.84679516  1
  H+  H375  1  0.10681813  0.13644029  0.83316114  1
  H+  H376  1  0.30841268  0.12862152  0.39060660  1
  H+  H377  1  0.38795781  0.53381432  0.84625961  1
  H+  H378  1  0.64787694  0.05888066  0.60565377  1
  H+  H379  1  0.81192060  0.15449892  0.09987281  1
  H+  H380  1  0.16868391  0.84452786  0.94000694  1
  H+  H381  1  0.64399289  0.01669355  0.99085048  1
  H+  H382  1  0.07213305  0.68428620  0.77176495  1
  H+  H383  1  0.40862206  0.59252585  0.60137533  1
  O2-  O384  1  0.07906637  0.18506219  0.14043050  1
  O2-  O385  1  0.08433368  0.15288016  0.47406208  1
  O2-  O386  1  0.07490187  0.16573318  0.81842504  1
  O2-  O387  1  0.11653668  0.46131172  0.14604637  1
  O2-  O388  1  0.10079559  0.44029528  0.46853695  1
  O2-  O389  1  0.07201004  0.38349822  0.81501564  1
  O2-  O390  1  0.08460020  0.67368869  0.14679355  1
  O2-  O391  1  0.07518426  0.65957626  0.48095407  1
  O2-  O392  1  0.06957476  0.68898671  0.81753834  1
  O2-  O393  1  0.07560818  0.90217468  0.16105506  1
  O2-  O394  1  0.07557603  0.90915639  0.48067713  1
  O2-  O395  1  0.08466001  0.92994425  0.81205915  1
  O2-  O396  1  0.33859901  0.18342326  0.15332022  1
  O2-  O397  1  0.32097382  0.13110853  0.47362637  1
  O2-  O398  1  0.33846056  0.17595331  0.83161551  1
  O2-  O399  1  0.33929015  0.41179320  0.14309809  1
  O2-  O400  1  0.33453250  0.43794762  0.47308085  1
  O2-  O401  1  0.33622746  0.43105101  0.81172381  1
  O2-  O402  1  0.34102510  0.72048980  0.13434042  1
  O2-  O403  1  0.31965860  0.66866841  0.48015109  1
  O2-  O404  1  0.36944206  0.71322821  0.82142163  1
  O2-  O405  1  0.33014037  0.90428466  0.14429624  1
  O2-  O406  1  0.31852071  0.90027210  0.47755383  1
  O2-  O407  1  0.31634940  0.92797200  0.81275141  1
  O2-  O408  1  0.57416089  0.14576021  0.13194533  1
  O2-  O409  1  0.57733957  0.15132940  0.48033821  1
  O2-  O410  1  0.58358693  0.15868229  0.81872324  1
  O2-  O411  1  0.56330931  0.39666291  0.13963467  1
  O2-  O412  1  0.57145911  0.39118387  0.49223344  1
  O2-  O413  1  0.59816137  0.43542994  0.83510278  1
  O2-  O414  1  0.58268928  0.67181044  0.13398275  1
  O2-  O415  1  0.57081121  0.66962216  0.47898138  1
  O2-  O416  1  0.58377393  0.68688554  0.82180726  1
  O2-  O417  1  0.57096803  0.89982900  0.09668714  1
  O2-  O418  1  0.65187953  0.95371658  0.46489742  1
  O2-  O419  1  0.63043089  0.94723139  0.79986706  1
  O2-  O420  1  0.80852410  0.14652472  0.14510657  1
  O2-  O421  1  0.82098115  0.26655862  0.48075556  1
  O2-  O422  1  0.80899910  0.16047056  0.82656558  1
  O2-  O423  1  0.91653428  0.46416403  0.12350754  1
  O2-  O424  1  0.80244762  0.40645450  0.47862572  1
  O2-  O425  1  0.84614976  0.41915812  0.81780001  1
  O2-  O426  1  0.82623869  0.66343927  0.14284156  1
  O2-  O427  1  0.83635287  0.66634445  0.49026747  1
  O2-  O428  1  0.82923276  0.67960818  0.80020562  1
  O2-  O429  1  0.83877154  0.92950628  0.14039450  1
  O2-  O430  1  0.83803980  0.91178597  0.47342780  1
  O2-  O431  1  0.83698086  0.91996203  0.81583902  1
  O2-  O432  1  0.17428805  0.10617855  0.17481704  1
  O2-  O433  1  0.16311923  0.07658992  0.51754412  1
  O2-  O434  1  0.16461931  0.09289909  0.86098918  1
  O2-  O435  1  0.17433958  0.34910408  0.18518799  1
  O2-  O436  1  0.18424922  0.38122097  0.52956759  1
  O2-  O437  1  0.16310241  0.32878925  0.85702418  1
  O2-  O438  1  0.19189780  0.62171211  0.19006783  1
  O2-  O439  1  0.16286978  0.58859578  0.51072419  1
  O2-  O440  1  0.13437013  0.57946809  0.83846349  1
  O2-  O441  1  0.17753175  0.83415328  0.19521205  1
  O2-  O442  1  0.15784810  0.82536453  0.52494411  1
  O2-  O443  1  0.16721938  0.85221641  0.85348823  1
  O2-  O444  1  0.40720474  0.07444155  0.17385485  1
  O2-  O445  1  0.41274722  0.06489254  0.51750384  1
  O2-  O446  1  0.41363600  0.08012130  0.85436646  1
  O2-  O447  1  0.41102647  0.32904937  0.20090976  1
  O2-  O448  1  0.37410925  0.30579114  0.46507418  1
  O2-  O449  1  0.43169096  0.34063931  0.82911655  1
  O2-  O450  1  0.41870784  0.57349742  0.19405353  1
  O2-  O451  1  0.40948262  0.59327059  0.52595649  1
  O2-  O452  1  0.41751028  0.59026046  0.86767697  1
  O2-  O453  1  0.40175197  0.80754532  0.14786023  1
  O2-  O454  1  0.40103188  0.82179313  0.52463998  1
  O2-  O455  1  0.45658220  0.89712733  0.81016035  1
  O2-  O456  1  0.63348148  0.05468233  0.20206125  1
  O2-  O457  1  0.59745354  0.02945412  0.54349935  1
  O2-  O458  1  0.72056705  0.13004970  0.84762318  1
  O2-  O459  1  0.66583745  0.31698498  0.12492629  1
  O2-  O460  1  0.65279202  0.31115490  0.54052075  1
  O2-  O461  1  0.67418182  0.33315350  0.80851511  1
  O2-  O462  1  0.65830912  0.57998640  0.15378473  1
  O2-  O463  1  0.65319447  0.57697817  0.51063460  1
  O2-  O464  1  0.67489503  0.60526402  0.85460159  1
  O2-  O465  1  0.65983124  0.83458404  0.16946399  1
  O2-  O466  1  0.67711193  0.83198463  0.52014002  1
  O2-  O467  1  0.67553757  0.83920069  0.86479313  1
  O2-  O468  1  0.91755121  0.09103164  0.18442793  1
  O2-  O469  1  0.90954245  0.07420491  0.51771570  1
  O2-  O470  1  0.90846449  0.08238063  0.85999344  1
  O2-  O471  1  0.93001302  0.33606949  0.17887903  1
  O2-  O472  1  0.95739870  0.37927428  0.54497648  1
  O2-  O473  1  0.91750778  0.32681044  0.85873585  1
  O2-  O474  1  0.92375578  0.60024925  0.19363694  1
  O2-  O475  1  0.91340032  0.57531493  0.52481318  1
  O2-  O476  1  0.87590621  0.56901199  0.86026553  1
  O2-  O477  1  0.91061135  0.84319990  0.16510406  1
  O2-  O478  1  0.91956440  0.83162963  0.52587690  1
  O2-  O479  1  0.92285604  0.84280934  0.85642733  1
  O2-  O480  1  0.15215284  0.08001917  0.29909496  1
  O2-  O481  1  0.13574778  0.06622530  0.64372472  1
  O2-  O482  1  0.15591865  0.07925700  0.98754559  1
  O2-  O483  1  0.16333645  0.33680318  0.30714094  1
  O2-  O484  1  0.16698631  0.31640560  0.64948495  1
  O2-  O485  1  0.16928092  0.33676386  0.97698671  1
  O2-  O486  1  0.15559609  0.58827146  0.31303846  1
  O2-  O487  1  0.17031389  0.58425954  0.71991228  1
  O2-  O488  1  0.17014493  0.59286837  0.97279566  1
  O2-  O489  1  0.16846578  0.78918550  0.30760099  1
  O2-  O490  1  0.16415454  0.83457867  0.64758863  1
  O2-  O491  1  0.16974498  0.83689729  0.98413844  1
  O2-  O492  1  0.38835922  0.06279730  0.30058799  1
  O2-  O493  1  0.41573363  0.07236573  0.63496430  1
  O2-  O494  1  0.40969904  0.06668608  0.98052947  1
  O2-  O495  1  0.38504171  0.30904269  0.35328391  1
  O2-  O496  1  0.45901615  0.42629821  0.62213579  1
  O2-  O497  1  0.39916171  0.31992398  0.95805373  1
  O2-  O498  1  0.40182806  0.58318128  0.31167102  1
  O2-  O499  1  0.41119925  0.59086168  0.64705750  1
  O2-  O500  1  0.42267682  0.58538737  0.98865367  1
  O2-  O501  1  0.42773456  0.83631138  0.32244159  1
  O2-  O502  1  0.40972012  0.83358636  0.65001262  1
  O2-  O503  1  0.42950706  0.84408806  0.98665672  1
  O2-  O504  1  0.73565106  0.09648922  0.32857283  1
  O2-  O505  1  0.66734475  0.06866686  0.64996738  1
  O2-  O506  1  0.67309365  0.07461650  0.97237367  1
  O2-  O507  1  0.71193115  0.35039893  0.37184000  1
  O2-  O508  1  0.69028369  0.30197944  0.67866622  1
  O2-  O509  1  0.65531551  0.31640971  1.00099428  1
  O2-  O510  1  0.62597670  0.52223963  0.27353513  1
  O2-  O511  1  0.66694712  0.59048256  0.63558359  1
  O2-  O512  1  0.67250055  0.61581135  0.97956235  1
  O2-  O513  1  0.66034653  0.84489650  0.29275831  1
  O2-  O514  1  0.66677305  0.81987875  0.64444100  1
  O2-  O515  1  0.66622263  0.84059422  0.98660282  1
  O2-  O516  1  0.92318962  0.08520861  0.31049273  1
  O2-  O517  1  0.90571659  0.07960640  0.64358127  1
  O2-  O518  1  0.91352764  0.08834216  0.98576076  1
  O2-  O519  1  0.93626177  0.32406243  0.29908561  1
  O2-  O520  1  0.92472581  0.32831470  0.66293077  1
  O2-  O521  1  0.91475205  0.33272701  0.98411189  1
  O2-  O522  1  0.95021356  0.58359253  0.30922035  1
  O2-  O523  1  0.93107182  0.58175927  0.64951789  1
  O2-  O524  1  0.91482323  0.57459145  0.98372270  1
  O2-  O525  1  0.91900046  0.81417191  0.31703559  1
  O2-  O526  1  0.91412622  0.83211046  0.64132444  1
  O2-  O527  1  0.91709466  0.83458799  0.98422542  1
  O2-  O528  1  0.08312720  0.17687524  0.02056104  1
  O2-  O529  1  0.08113309  0.16667994  0.35070269  1
  O2-  O530  1  0.06593277  0.15379527  0.69333923  1
  O2-  O531  1  0.09271562  0.42450881  0.02063474  1
  O2-  O532  1  0.08470685  0.42367849  0.34862484  1
  O2-  O533  1  0.08785193  0.39991919  0.69958704  1
  O2-  O534  1  0.04390202  0.58896080  0.04440422  1
  O2-  O535  1  0.10974773  0.62746447  0.34366677  1
  O2-  O536  1  0.08864636  0.67563719  0.69934989  1
  O2-  O537  1  0.08709109  0.91638771  0.03182290  1
  O2-  O538  1  0.08099008  0.91940745  0.34778562  1
  O2-  O539  1  0.07005887  0.90660090  0.68707458  1
  O2-  O540  1  0.33454904  0.15469891  0.00201628  1
  O2-  O541  1  0.31345287  0.14220211  0.34659045  1
  O2-  O542  1  0.28347562  0.11436912  0.71110256  1
  O2-  O543  1  0.33746724  0.41750162  0.01856543  1
  O2-  O544  1  0.32678947  0.41812534  0.34896279  1
  O2-  O545  1  0.32774217  0.42652834  0.68403068  1
  O2-  O546  1  0.33658137  0.67878224  0.01853885  1
  O2-  O547  1  0.31348116  0.65925610  0.35702358  1
  O2-  O548  1  0.34234504  0.67344880  0.69613466  1
  O2-  O549  1  0.32973107  0.90586550  0.02316890  1
  O2-  O550  1  0.32557890  0.90289605  0.35312897  1
  O2-  O551  1  0.32949504  0.91394900  0.69389733  1
  O2-  O552  1  0.57727425  0.13825239  0.01108943  1
  O2-  O553  1  0.63915972  0.18102417  0.36406463  1
  O2-  O554  1  0.56503548  0.12889226  0.69655556  1
  O2-  O555  1  0.55703398  0.38839589  0.01395631  1
  O2-  O556  1  0.56903076  0.41448917  0.37070286  1
  O2-  O557  1  0.50989261  0.38190516  0.72515587  1
  O2-  O558  1  0.57859021  0.66641622  0.02166656  1
  O2-  O559  1  0.55242881  0.68551499  0.35712914  1
  O2-  O560  1  0.56613018  0.64401627  0.68231742  1
  O2-  O561  1  0.57434698  0.90775194  0.02942250  1
  O2-  O562  1  0.59421505  0.92956125  0.34509246  1
  O2-  O563  1  0.57695628  0.89984743  0.68024110  1
  O2-  O564  1  0.82785926  0.16995672  0.02263947  1
  O2-  O565  1  0.80071219  0.10146298  0.43693056  1
  O2-  O566  1  0.82285674  0.15717589  0.70037580  1
  O2-  O567  1  0.84406237  0.41731327  0.01979784  1
  O2-  O568  1  0.86247645  0.41913010  0.33656403  1
  O2-  O569  1  0.86686000  0.43416780  0.69712148  1
  O2-  O570  1  0.83506768  0.67010099  0.01989145  1
  O2-  O571  1  0.92636076  0.68991378  0.37676062  1
  O2-  O572  1  0.82648924  0.68783229  0.68040305  1
  O2-  O573  1  0.83735004  0.92253163  0.02149057  1
  O2-  O574  1  0.83009734  0.91071838  0.34470006  1
  O2-  O575  1  0.82969708  0.91695862  0.68930883  1
