# generated using pymatgen
data_H2O
_symmetry_space_group_name_H-M   'P 1'
_cell_length_a   17.99365691
_cell_length_b   18.00044198
_cell_length_c   22.00958856
_cell_angle_alpha   89.99572291
_cell_angle_beta   90.00888941
_cell_angle_gamma   119.99684820
_symmetry_Int_Tables_number   1
_chemical_formula_structural   H2O
_chemical_formula_sum   'H384 O192'
_cell_volume   6173.89084545
_cell_formula_units_Z   192
loop_
 _symmetry_equiv_pos_site_id
 _symmetry_equiv_pos_as_xyz
  1  'x, y, z'
loop_
 _atom_type_symbol
 _atom_type_oxidation_number
  H+  1.0
  O2-  -2.0
loop_
 _atom_site_type_symbol
 _atom_site_label
 _atom_site_symmetry_multiplicity
 _atom_site_fract_x
 _atom_site_fract_y
 _atom_site_fract_z
 _atom_site_occupancy
  H+  H0  1  0.91501604  0.17063579  0.46834205  1
  H+  H1  1  0.35852294  0.34213874  0.99677973  1
  H+  H2  1  0.68374961  0.84552514  0.23674446  1
  H+  H3  1  0.87879473  0.77399855  0.17484464  1
  H+  H4  1  0.77332501  0.90153167  0.84030515  1
  H+  H5  1  0.40622045  0.54184506  0.64813225  1
  H+  H6  1  0.89645315  0.38986657  0.50286887  1
  H+  H7  1  0.14614534  0.36762925  0.68465347  1
  H+  H8  1  0.39132781  0.77651936  0.99884242  1
  H+  H9  1  0.33696877  0.71205299  0.15877114  1
  H+  H10  1  0.56590674  0.40324868  0.32077107  1
  H+  H11  1  0.96662817  0.11294991  0.50969447  1
  H+  H12  1  0.60914172  0.95356101  0.48421809  1
  H+  H13  1  0.22635600  0.86749789  0.32698317  1
  H+  H14  1  0.74421532  0.12307999  0.16520313  1
  H+  H15  1  0.36512908  0.88641447  0.34060750  1
  H+  H16  1  0.92165240  0.24755975  0.65332271  1
  H+  H17  1  0.84485050  0.16915335  0.01453892  1
  H+  H18  1  0.81389669  0.14224848  0.48272199  1
  H+  H19  1  0.63184969  0.08935137  0.49422888  1
  H+  H20  1  0.68052694  0.40962754  0.36940813  1
  H+  H21  1  1.02474751  0.88960259  0.49465890  1
  H+  H22  1  0.38774926  0.40213583  0.66989919  1
  H+  H23  1  0.62502497  0.63954220  0.82545175  1
  H+  H24  1  0.70733746  0.34104933  0.66159825  1
  H+  H25  1  0.10346371  0.21966015  0.16882635  1
  H+  H26  1  0.47382526  0.11164116  0.98957226  1
  H+  H27  1  0.35419549  0.39294188  0.33282436  1
  H+  H28  1  0.53990805  0.39532691  0.14925060  1
  H+  H29  1  1.02790984  0.65212503  0.83886915  1
  H+  H30  1  0.61705434  0.22510540  0.14570256  1
  H+  H31  1  0.69031182  0.83638172  0.91178482  1
  H+  H32  1  0.88714187  0.38367891  0.34508151  1
  H+  H33  1  0.35820733  0.64223659  0.34149650  1
  H+  H34  1  0.33820788  0.66474530  0.06443800  1
  H+  H35  1  0.86655910  0.21895365  0.32708588  1
  H+  H36  1  0.02841730  0.64291298  0.16850892  1
  H+  H37  1  0.39498908  0.60555592  0.84034736  1
  H+  H38  1  0.15547706  0.88572478  0.99539607  1
  H+  H39  1  0.22000102  0.12604207  0.83733494  1
  H+  H40  1  0.13691623  0.25921229  0.33435661  1
  H+  H41  1  0.91135733  0.38414717  0.68507643  1
  H+  H42  1  0.67447154  0.78434951  0.66768066  1
  H+  H43  1  0.64646714  0.53263902  0.66711462  1
  H+  H44  1  0.47895510  0.84744627  0.83688005  1
  H+  H45  1  0.37779412  0.60464384  0.16048865  1
  H+  H46  1  0.72334162  0.09832179  0.32595982  1
  H+  H47  1  0.34008792  0.45709540  0.01450497  1
  H+  H48  1  0.89105177  0.27214748  0.17287177  1
  H+  H49  1  0.15249107  0.84476202  0.65065678  1
  H+  H50  1  0.88572753  0.79720886  0.83648178  1
  H+  H51  1  0.66070908  0.53122118  0.83987074  1
  H+  H52  1  0.40165190  0.77768792  0.66773352  1
  H+  H53  1  0.22334076  0.35428293  0.17761074  1
  H+  H54  1  0.35548143  0.12888624  0.00443032  1
  H+  H55  1  0.38655054  0.77282892  0.33245858  1
  H+  H56  1  0.85412300  0.73775747  0.66541513  1
  H+  H57  1  0.34969176  0.12950512  0.67233502  1
  H+  H58  1  0.54692749  0.40380404  0.83125384  1
  H+  H59  1  0.67832574  0.32236370  0.38082517  1
  H+  H60  1  0.94885851  0.57815112  0.99401058  1
  H+  H61  1  0.48125286  0.85602051  0.32672483  1
  H+  H62  1  0.63183624  0.88011337  0.68098293  1
  H+  H63  1  0.96068758  0.09804959  0.98038578  1
  H+  H64  1  0.02896287  0.16945056  0.08147136  1
  H+  H65  1  0.01071117  0.89250184  0.33725254  1
  H+  H66  1  0.61944563  0.96271193  0.33657492  1
  H+  H67  1  1.01029124  0.88690367  0.15843710  1
  H+  H68  1  0.40533326  0.59913370  0.49833970  1
  H+  H69  1  0.59852898  0.11415076  0.68216908  1
  H+  H70  1  0.06371729  0.68346807  0.01412867  1
  H+  H71  1  0.38022712  0.53928600  0.32861562  1
  H+  H72  1  1.02841199  0.63423536  0.67755662  1
  H+  H73  1  0.57638517  0.23296009  0.68970207  1
  H+  H74  1  0.91151859  0.28310485  0.49716785  1
  H+  H75  1  0.11555429  1.01170437  0.16929704  1
  H+  H76  1  0.64143616  0.43166114  0.52863416  1
  H+  H77  1  0.64122903  0.78058745  0.17987421  1
  H+  H78  1  0.37985365  0.10675178  0.32267433  1
  H+  H79  1  0.54515455  0.90517692  0.16073039  1
  H+  H80  1  0.38786658  0.65364084  0.00667773  1
  H+  H81  1  0.87763179  0.78676763  0.33086091  1
  H+  H82  1  0.86155648  0.96395836  0.51555450  1
  H+  H83  1  0.33760750  0.92039133  0.39890998  1
  H+  H84  1  0.20705980  0.09616891  0.16617277  1
  H+  H85  1  0.13281196  0.87937398  0.82173133  1
  H+  H86  1  0.13227667  0.57000540  0.36036998  1
  H+  H87  1  0.83482319  0.66938084  0.10149414  1
  H+  H88  1  0.24117850  0.86237749  0.17928034  1
  H+  H89  1  0.50789409  0.11678328  0.32831638  1
  H+  H90  1  0.60775012  0.12421320  -0.00136714  1
  H+  H91  1  0.38912523  0.11011332  0.16721674  1
  H+  H92  1  0.88771706  0.62887728  0.32706154  1
  H+  H93  1  0.10692662  0.22861050  0.83826430  1
  H+  H94  1  0.89364860  0.03419358  0.87173559  1
  H+  H95  1  0.85907493  0.49533787  0.99338636  1
  H+  H96  1  0.40387550  0.38453260  0.84284236  1
  H+  H97  1  0.37193520  0.88749898  0.16247674  1
  H+  H98  1  0.34482322  0.13873723  0.82937199  1
  H+  H99  1  0.34295164  0.91880345  0.06726915  1
  H+  H100  1  0.53384027  0.63425124  0.82782198  1
  H+  H101  1  0.37183250  0.98988440  0.49510221  1
  H+  H102  1  0.39570463  0.70404510  0.50525456  1
  H+  H103  1  0.82103808  0.87172872  0.33014953  1
  H+  H104  1  0.89100871  0.61566025  0.16906972  1
  H+  H105  1  0.91384622  0.28977047  0.96995635  1
  H+  H106  1  0.15753310  0.31510405  0.27116666  1
  H+  H107  1  0.64828825  1.02856466  0.16038266  1
  H+  H108  1  0.77192876  0.88954129  0.15740127  1
  H+  H109  1  0.13961871  0.36256487  0.83918098  1
  H+  H110  1  0.71642177  0.35168530  0.99330979  1
  H+  H111  1  0.77534204  0.63572016  0.15970894  1
  H+  H112  1  0.01947005  0.90333439  0.83669700  1
  H+  H113  1  0.72513504  0.62975904  0.99355750  1
  H+  H114  1  0.21652699  0.10716160  -0.00264743  1
  H+  H115  1  0.36652775  0.35775609  0.49027995  1
  H+  H116  1  0.62650451  0.26529850  0.99041005  1
  H+  H117  1  0.04767679  0.20726043  0.49061215  1
  H+  H118  1  0.12846417  0.03488990  0.84159493  1
  H+  H119  1  0.72591239  0.34668783  0.84275457  1
  H+  H120  1  0.20589246  0.34400608  0.99302846  1
  H+  H121  1  0.15022666  0.77811534  0.50109679  1
  H+  H122  1  0.18321020  0.61894290  0.93823149  1
  H+  H123  1  0.37441234  0.47362784  0.48463562  1
  H+  H124  1  0.09419769  0.99429911  0.67569415  1
  H+  H125  1  0.35876958  0.47231025  0.15817365  1
  H+  H126  1  0.89432086  0.12047641  0.87439233  1
  H+  H127  1  0.46681952  0.63018128  0.33064167  1
  H+  H128  1  0.85694867  0.37647733  0.99554711  1
  H+  H129  1  1.03227269  0.40562211  1.00039699  1
  H+  H130  1  0.20329926  0.32888286  0.49769583  1
  H+  H131  1  0.04285694  0.40067996  0.49437621  1
  H+  H132  1  0.13367537  0.12246734  0.64969039  1
  H+  H133  1  0.60079504  0.19710597  0.31858561  1
  H+  H134  1  0.62354780  1.01068942  0.83747766  1
  H+  H135  1  0.14627897  0.61587929  0.66658365  1
  H+  H136  1  0.67518130  0.33679118  0.20279615  1
  H+  H137  1  0.77527738  0.47480384  0.70246794  1
  H+  H138  1  0.13239682  0.35290380  0.50418902  1
  H+  H139  1  0.35872624  0.22166940  0.48725526  1
  H+  H140  1  0.48042145  0.13988027  0.68955367  1
  H+  H141  1  0.02385350  0.88639349  0.00631396  1
  H+  H142  1  0.64125517  0.12496391  0.66906994  1
  H+  H143  1  0.28557400  0.89791802  0.00610528  1
  H+  H144  1  0.11395279  0.13379719  0.84067528  1
  H+  H145  1  0.26251091  0.37016202  0.83448896  1
  H+  H146  1  0.13385856  0.78672568  0.82259898  1
  H+  H147  1  0.64613324  0.36821886  0.14505084  1
  H+  H148  1  0.48209990  0.11572299  0.50679612  1
  H+  H149  1  0.51760195  0.87002614  0.48646993  1
  H+  H150  1  0.85212675  0.85037394  0.65991150  1
  H+  H151  1  0.37126872  0.97645559  0.16216450  1
  H+  H152  1  0.12354210  0.48912091  0.00644520  1
  H+  H153  1  0.12564610  0.35651346  0.98931223  1
  H+  H154  1  0.23149421  0.36523292  0.67518810  1
  H+  H155  1  0.85200164  0.63243249  1.00783430  1
  H+  H156  1  0.14736346  0.77049175  0.18310539  1
  H+  H157  1  0.80366027  0.38066678  0.49480938  1
  H+  H158  1  0.61904620  0.88387821  0.83513889  1
  H+  H159  1  0.87566000  0.41945117  0.41759753  1
  H+  H160  1  0.64850482  0.77421403  0.85323822  1
  H+  H161  1  0.01565023  0.65291997  0.32565280  1
  H+  H162  1  0.11057755  0.46893235  0.16250349  1
  H+  H163  1  0.26215217  0.38450454  0.33569615  1
  H+  H164  1  0.47548475  0.44560713  0.88740633  1
  H+  H165  1  0.89633865  0.36637255  0.81876898  1
  H+  H166  1  0.44349119  0.60152486  0.59094874  1
  H+  H167  1  0.63028043  0.83571474  0.51086453  1
  H+  H168  1  0.18555572  0.82291763  0.59223609  1
  H+  H169  1  0.87607009  0.35780020  0.66302243  1
  H+  H170  1  0.89615600  0.52904053  0.16748635  1
  H+  H171  1  0.37724631  0.64581456  0.66930182  1
  H+  H172  1  0.39274493  0.86959687  0.99929207  1
  H+  H173  1  0.72026503  0.84581588  0.51977278  1
  H+  H174  1  0.10887233  -0.02103109  1.00614497  1
  H+  H175  1  0.62160632  0.20640752  0.48076618  1
  H+  H176  1  0.59854291  0.61188017  0.50484100  1
  H+  H177  1  0.11998854  0.12902899  0.34745423  1
  H+  H178  1  0.84964639  0.05705347  0.54825001  1
  H+  H179  1  0.88113040  0.01419249  0.16733320  1
  H+  H180  1  0.87600256  0.86162119  0.16930044  1
  H+  H181  1  0.35127669  -0.01459853  0.83341037  1
  H+  H182  1  -0.01783013  0.35402577  0.32431150  1
  H+  H183  1  0.27225460  0.13464643  0.33398562  1
  H+  H184  1  0.84288295  -0.00454684  0.31776064  1
  H+  H185  1  0.95043907  0.87381324  0.66535248  1
  H+  H186  1  0.04927732  0.41836617  0.82215765  1
  H+  H187  1  0.85163270  0.09007359  0.02903293  1
  H+  H188  1  0.82207848  0.55070080  0.85537783  1
  H+  H189  1  0.60661203  0.95943507  -0.00046740  1
  H+  H190  1  0.16266204  0.07901226  0.26179364  1
  H+  H191  1  0.81019665  0.41007977  0.36407830  1
  H+  H192  1  0.12093013  0.71590043  0.67942639  1
  H+  H193  1  0.86679655  0.10004425  0.31886094  1
  H+  H194  1  0.78348954  0.65422567  0.82183426  1
  H+  H195  1  0.36477907  0.38699087  0.16535561  1
  H+  H196  1  0.78635727  0.38976301  0.14596206  1
  H+  H197  1  0.63706080  0.52026016  0.15202490  1
  H+  H198  1  0.37763582  0.01557143  0.32297386  1
  H+  H199  1  -0.04315139  0.06931932  0.68086717  1
  H+  H200  1  0.49508180  0.40354183  0.47070398  1
  H+  H201  1  0.66570056  0.00482356  0.65432105  1
  H+  H202  1  0.13096543  0.77733904  0.32018540  1
  H+  H203  1  0.59961124  0.65113681  0.35743971  1
  H+  H204  1  0.12980069  0.60578885  0.18136873  1
  H+  H205  1  0.28249177  0.62289666  0.82232494  1
  H+  H206  1  0.32892074  0.42010546  0.42418015  1
  H+  H207  1  0.59796389  0.12428116  0.82620416  1
  H+  H208  1  0.83522581  0.40391268  0.06054938  1
  H+  H209  1  0.14387079  0.11528211  0.50574868  1
  H+  H210  1  0.46134617  0.11206360  0.84439754  1
  H+  H211  1  0.61885067  0.48901527  0.99881102  1
  H+  H212  1  0.89934191  0.53074871  0.50303260  1
  H+  H213  1  0.65930864  0.43932179  0.49670631  1
  H+  H214  1  0.09754102  0.43750328  0.72888025  1
  H+  H215  1  0.08172483  0.66642294  0.77914163  1
  H+  H216  1  0.65026855  0.54939943  0.32911171  1
  H+  H217  1  0.62666989  0.38602450  0.83077466  1
  H+  H218  1  0.66617890  0.87761480  0.33196657  1
  H+  H219  1  0.23910406  0.62214712  0.66455579  1
  H+  H220  1  0.13539978  0.35599625  0.17540895  1
  H+  H221  1  0.63900447  0.62329757  0.66665194  1
  H+  H222  1  0.38663110  0.27253304  0.33478400  1
  H+  H223  1  0.36353943  0.78628613  0.51444586  1
  H+  H224  1  0.36993168  0.71566620  0.82985789  1
  H+  H225  1  0.22809750  0.62065955  0.33641369  1
  H+  H226  1  0.34946816  0.21590119  1.00590348  1
  H+  H227  1  0.11388355  0.23284448  0.66696989  1
  H+  H228  1  0.27556582  0.12985771  0.49140135  1
  H+  H229  1  0.93685075  0.30936573  0.79616948  1
  H+  H230  1  0.76494003  0.64263124  0.49153003  1
  H+  H231  1  0.46941913  0.61085407  0.16200503  1
  H+  H232  1  0.37985483  0.88722166  0.68388436  1
  H+  H233  1  0.61446227  0.39732132  -0.00278924  1
  H+  H234  1  0.25451859  0.61987068  0.15704349  1
  H+  H235  1  0.86203150  0.12742715  0.16928073  1
  H+  H236  1  0.88766394  0.88625536  0.84572150  1
  H+  H237  1  0.32393713  0.20228800  0.14938617  1
  H+  H238  1  0.26601848  0.13901097  0.67002774  1
  H+  H239  1  0.61455699  0.64135374  0.15539746  1
  H+  H240  1  0.39397809  0.88286024  0.51151001  1
  H+  H241  1  0.84385302  0.20973505  0.84126047  1
  H+  H242  1  0.87441390  0.38856606  0.15404686  1
  H+  H243  1  0.38534092  1.01411072  0.66460762  1
  H+  H244  1  0.07679941  0.89992631  0.68534201  1
  H+  H245  1  0.15742343  0.32795102  0.90336038  1
  H+  H246  1  0.09621963  0.88523297  0.33440652  1
  H+  H247  1  0.53943770  0.39932477  0.68426151  1
  H+  H248  1  0.89757411  0.04298517  0.61928426  1
  H+  H249  1  0.63067872  0.08857940  0.32388235  1
  H+  H250  1  0.64408361  0.12117132  0.15841688  1
  H+  H251  1  0.42265396  0.29349695  0.19358498  1
  H+  H252  1  0.50056432  0.87059709  0.00417976  1
  H+  H253  1  0.78193718  0.65832498  0.35031522  1
  H+  H254  1  0.88871219  0.86075582  0.50417197  1
  H+  H255  1  0.11708174  0.45593676  0.33089947  1
  H+  H256  1  0.85824256  0.72620923  0.49907619  1
  H+  H257  1  0.13866574  0.66059500  0.01538088  1
  H+  H258  1  0.16486557  0.80351826  -0.00242658  1
  H+  H259  1  1.01773883  0.13682149  0.85347718  1
  H+  H260  1  0.98084848  0.36003104  0.17091482  1
  H+  H261  1  0.44600155  0.36452919  0.36447211  1
  H+  H262  1  0.28711526  0.87742259  0.67926165  1
  H+  H263  1  0.83258365  0.95129878  0.78427658  1
  H+  H264  1  0.13483019  0.02016407  0.32164197  1
  H+  H265  1  0.12604426  0.48635699  0.66627438  1
  H+  H266  1  0.62909088  0.89617973  0.16235333  1
  H+  H267  1  0.24597897  0.62955518  0.99238159  1
  H+  H268  1  0.15996166  0.53623663  0.50936700  1
  H+  H269  1  0.45035863  0.79059114  0.18950383  1
  H+  H270  1  0.39059435  0.26946877  0.66709819  1
  H+  H271  1  0.67099778  0.34566527  0.49790601  1
  H+  H272  1  0.42908131  0.83989315  0.61002677  1
  H+  H273  1  0.88776113  0.61376723  0.50139348  1
  H+  H274  1  0.74424617  0.63248445  0.66530156  1
  H+  H275  1  0.38761418  0.02185250  0.99434583  1
  H+  H276  1  0.61709903  0.74296133  0.34302813  1
  H+  H277  1  0.79335403  0.12749352  0.68506130  1
  H+  H278  1  0.85843722  0.46250158  0.82904788  1
  H+  H279  1  0.38880104  0.51473917  0.84322004  1
  H+  H280  1  0.60726192  0.21826443  0.83489091  1
  H+  H281  1  0.05871823  0.14250383  0.39547856  1
  H+  H282  1  0.06090383  0.17741483  0.61083570  1
  H+  H283  1  0.09910658  0.12868549  0.16005976  1
  H+  H284  1  0.86240338  0.72740566  0.00681141  1
  H+  H285  1  0.04213473  0.64755474  0.49372687  1
  H+  H286  1  0.54211265  0.88155867  0.67686429  1
  H+  H287  1  0.71213648  0.07941190  0.99111191  1
  H+  H288  1  0.87087611  0.11478067  0.69696925  1
  H+  H289  1  0.34810255  0.66598484  0.73343880  1
  H+  H290  1  0.66463277  0.32345957  0.90224499  1
  H+  H291  1  0.24592044  0.88995318  0.81884215  1
  H+  H292  1  0.31774936  0.16510234  0.76803486  1
  H+  H293  1  0.85920852  0.83974720  1.00018754  1
  H+  H294  1  0.82537234  0.41452639  0.76623715  1
  H+  H295  1  0.59052715  0.66806639  0.73300142  1
  H+  H296  1  0.18675974  0.59431398  0.56979196  1
  H+  H297  1  0.15758620  0.08676043  0.93976692  1
  H+  H298  1  0.09971458  0.42560675  0.43463689  1
  H+  H299  1  0.40164604  0.08277083  0.90287808  1
  H+  H300  1  0.67693598  0.30672613  0.55995228  1
  H+  H301  1  0.41956274  0.82498573  0.89455644  1
  H+  H302  1  0.81487701  0.89730507  0.09273770  1
  H+  H303  1  0.40484065  0.32685012  0.94059901  1
  H+  H304  1  0.63056278  0.35590162  0.65461305  1
  H+  H305  1  0.85675065  0.48795294  0.67094057  1
  H+  H306  1  0.60571846  0.42840416  0.73888940  1
  H+  H307  1  0.41792828  0.08271641  0.22799277  1
  H+  H308  1  0.82133886  0.93939899  0.68289016  1
  H+  H309  1  0.31475222  0.40000545  0.07375487  1
  H+  H310  1  0.13434201  0.02185917  0.50323476  1
  H+  H311  1  0.83244534  0.92227819  0.44741196  1
  H+  H312  1  0.91019094  0.59138809  0.26831916  1
  H+  H313  1  0.90031098  0.62961957  0.65053538  1
  H+  H314  1  0.91576909  0.83331407  0.56455034  1
  H+  H315  1  0.16068641  0.57260503  0.23762551  1
  H+  H316  1  0.38394084  0.32751435  0.55252255  1
  H+  H317  1  0.57331852  0.50003708  0.46829339  1
  H+  H318  1  0.32985585  0.15964674  0.39491416  1
  H+  H319  1  0.68003446  0.63625769  0.28989833  1
  H+  H320  1  0.65418296  0.06108585  0.93019314  1
  H+  H321  1  0.92951403  0.59597825  0.59351999  1
  H+  H322  1  0.97075444  0.10485395  0.17883335  1
  H+  H323  1  0.33816224  0.92237707  0.77490733  1
  H+  H324  1  0.08050485  0.92047266  0.43398155  1
  H+  H325  1  0.16480261  0.07987656  0.60026275  1
  H+  H326  1  0.87963815  0.67222155  0.81642164  1
  H+  H327  1  0.65011353  0.30239442  0.27867886  1
  H+  H328  1  0.59410629  0.90834172  0.77087722  1
  H+  H329  1  0.94524829  0.32093555  0.56356370  1
  H+  H330  1  0.57361231  0.72703574  -0.00603226  1
  H+  H331  1  0.08568302  0.41501583  0.10084324  1
  H+  H332  1  0.58134142  0.44324514  0.38738307  1
  H+  H333  1  0.69902492  0.32467316  0.27751166  1
  H+  H334  1  0.17851348  0.83911022  0.24877607  1
  H+  H335  1  0.11029746  0.36500612  0.33966873  1
  H+  H336  1  0.57645799  0.14781324  0.42224737  1
  H+  H337  1  0.39708766  0.46692190  0.72087385  1
  H+  H338  1  0.89907461  0.83927969  0.26791917  1
  H+  H339  1  0.14571874  0.86584787  0.50652001  1
  H+  H340  1  0.29309769  0.63484779  0.50341354  1
  H+  H341  1  0.83093856  0.67986919  0.72630451  1
  H+  H342  1  0.32307567  0.15003783  0.09156792  1
  H+  H343  1  0.64473132  0.55951289  0.21587360  1
  H+  H344  1  0.59486711  0.68713122  0.10228654  1
  H+  H345  1  0.58642612  0.89714576  0.39385603  1
  H+  H346  1  0.16764107  0.50951283  0.88001301  1
  H+  H347  1  0.83308770  0.15097408  0.78392398  1
  H+  H348  1  0.64370123  0.58112853  0.55327624  1
  H+  H349  1  0.07251672  0.91672452  0.10014885  1
  H+  H350  1  0.52842874  0.13503252  0.15611084  1
  H+  H351  1  0.45659607  0.32900339  0.61672688  1
  H+  H352  1  0.44143745  0.35924139  0.24468661  1
  H+  H353  1  0.54638183  0.17310513  0.75601195  1
  H+  H354  1  0.84437442  0.68446024  0.40592173  1
  H+  H355  1  0.53812365  0.64740341  0.66875419  1
  H+  H356  1  0.33365701  0.67305053  0.40279566  1
  H+  H357  1  0.39492096  0.12027902  0.50952144  1
  H+  H358  1  0.58095702  0.15615490  0.05775634  1
  H+  H359  1  0.89052938  0.56288349  0.90329123  1
  H+  H360  1  0.41468183  0.82322051  0.24224690  1
  H+  H361  1  0.71099999  0.10002860  0.84129413  1
  H+  H362  1  0.10656616  0.65477995  0.32077238  1
  H+  H363  1  0.90775152  0.83490365  0.93945998  1
  H+  H364  1  0.83219441  0.14839731  0.10670540  1
  H+  H365  1  0.74333143  0.02983357  0.61194061  1
  H+  H366  1  0.09700511  0.67697128  0.11381138  1
  H+  H367  1  0.93477742  0.34905073  0.91407000  1
  H+  H368  1  0.06935292  0.93812166  0.77442253  1
  H+  H369  1  0.41801550  0.07924772  0.60574041  1
  H+  H370  1  0.89411737  0.06001115  0.25573621  1
  H+  H371  1  0.45107820  0.60427794  0.93332658  1
  H+  H372  1  0.58276331  0.90465387  0.06296119  1
  H+  H373  1  1.00728659  0.33848590  0.64919299  1
  H+  H374  1  0.13083523  0.64767078  0.49890713  1
  H+  H375  1  0.92103916  0.33381821  0.26521725  1
  H+  H376  1  0.28367016  0.89889557  0.49256811  1
  H+  H377  1  0.68499888  0.59622372  0.89703194  1
  H+  H378  1  0.66922265  0.06355408  0.55119239  1
  H+  H379  1  0.63531970  0.62739369  0.97899184  1
  H+  H380  1  0.59066231  0.42439898  0.08319754  1
  H+  H381  1  0.30463348  0.38461199  0.77073662  1
  H+  H382  1  0.84577893  0.16624053  0.38877728  1
  H+  H383  1  0.80161771  0.93712428  -0.02719473  1
  O2-  O384  1  0.06662821  0.15997260  0.15280559  1
  O2-  O385  1  -0.00503994  0.15602221  0.47518313  1
  O2-  O386  1  0.07362469  0.16404025  0.82931914  1
  O2-  O387  1  0.08264387  0.40928040  0.14591571  1
  O2-  O388  1  0.10354325  0.43281644  0.47936472  1
  O2-  O389  1  0.11051264  0.44129665  0.81031529  1
  O2-  O390  1  0.09190879  0.67202414  0.15885488  1
  O2-  O391  1  0.10355545  0.67967703  0.48283242  1
  O2-  O392  1  0.08632270  0.68192213  0.82298824  1
  O2-  O393  1  0.07116024  0.91900771  0.14536945  1
  O2-  O394  1  0.08544630  0.92238152  0.47917251  1
  O2-  O395  1  0.07900557  0.93445190  0.81865766  1
  O2-  O396  1  0.32274359  0.14922850  0.13873258  1
  O2-  O397  1  0.33526039  0.16035278  0.47507552  1
  O2-  O398  1  0.31380952  0.16688300  0.81280870  1
  O2-  O399  1  0.32763026  0.40806188  0.14916843  1
  O2-  O400  1  0.33181325  0.41530857  0.46949938  1
  O2-  O401  1  0.32026978  0.39794797  0.81358202  1
  O2-  O402  1  0.31346411  0.65543546  0.13921937  1
  O2-  O403  1  0.35065709  0.65641598  0.48228340  1
  O2-  O404  1  0.34385335  0.65501648  0.81215817  1
  O2-  O405  1  0.33929786  0.91484806  0.14843277  1
  O2-  O406  1  0.34487506  0.93028498  0.47821015  1
  O2-  O407  1  0.32131894  0.92351168  0.81827144  1
  O2-  O408  1  0.58757071  0.16173537  0.13786759  1
  O2-  O409  1  0.57905508  0.14750943  0.46749950  1
  O2-  O410  1  0.56985810  0.15936504  0.81693492  1
  O2-  O411  1  0.59735777  0.42265096  0.13031245  1
  O2-  O412  1  0.53402336  0.44923010  0.44259653  1
  O2-  O413  1  0.60569535  0.42427709  0.81422544  1
  O2-  O414  1  0.58932745  0.67853725  0.14619620  1
  O2-  O415  1  0.52370023  0.63160269  0.49146321  1
  O2-  O416  1  0.59350034  0.66888709  0.81188963  1
  O2-  O417  1  0.60192146  0.92783888  0.14177996  1
  O2-  O418  1  0.57553102  0.89321766  0.46914144  1
  O2-  O419  1  0.58741001  0.90994366  0.81611627  1
  O2-  O420  1  0.83415977  0.15961395  0.15155883  1
  O2-  O421  1  0.86617506  0.18404126  0.46136735  1
  O2-  O422  1  0.82339674  0.15010695  0.82947564  1
  O2-  O423  1  0.84826252  0.42045763  0.13449276  1
  O2-  O424  1  0.86486194  0.41841552  0.48372634  1
  O2-  O425  1  0.83259477  0.40442120  0.80995441  1
  O2-  O426  1  0.83629702  0.66709187  0.14702408  1
  O2-  O427  1  0.82669811  0.66599930  0.48270074  1
  O2-  O428  1  0.84124021  0.69213255  0.80150192  1
  O2-  O429  1  0.82903806  0.91682790  0.13733173  1
  O2-  O430  1  0.83593456  0.90799253  0.48964332  1
  O2-  O431  1  0.83466343  0.94216179  0.82789189  1
  O2-  O432  1  0.14967957  0.07464274  0.18421046  1
  O2-  O433  1  0.16969538  0.08219489  0.52056720  1
  O2-  O434  1  0.15845115  0.09708341  0.85453248  1
  O2-  O435  1  0.16269232  0.32412956  0.19255167  1
  O2-  O436  1  0.14423727  0.30558717  0.51224433  1
  O2-  O437  1  0.16102413  0.32589548  0.85628444  1
  O2-  O438  1  0.15764563  0.57138709  0.19282759  1
  O2-  O439  1  0.19308288  0.59677398  0.52444304  1
  O2-  O440  1  0.15482769  0.52706335  0.84092847  1
  O2-  O441  1  0.18164513  0.83243233  0.19736100  1
  O2-  O442  1  0.18055434  0.83934464  0.51822604  1
  O2-  O443  1  0.16658500  0.85020079  0.81291856  1
  O2-  O444  1  0.42297621  0.08375439  0.18253236  1
  O2-  O445  1  0.42500725  0.09110342  0.52731484  1
  O2-  O446  1  0.40021930  0.08344957  0.85696650  1
  O2-  O447  1  0.44262388  0.35429476  0.19980023  1
  O2-  O448  1  0.39533351  0.32570600  0.50942336  1
  O2-  O449  1  0.45482002  0.39140377  0.86582043  1
  O2-  O450  1  0.40769216  0.57253868  0.16925666  1
  O2-  O451  1  0.43912585  0.57461812  0.51708387  1
  O2-  O452  1  0.42539587  0.57515611  0.85583135  1
  O2-  O453  1  0.41716041  0.81939258  0.19564063  1
  O2-  O454  1  0.41176523  0.84125125  0.52733447  1
  O2-  O455  1  0.41832880  0.81344312  0.85092834  1
  O2-  O456  1  0.67682457  0.09124822  0.17306889  1
  O2-  O457  1  0.66647360  0.06272781  0.50632237  1
  O2-  O458  1  0.64935820  0.07141860  0.85338655  1
  O2-  O459  1  0.67518476  0.33468927  0.15816059  1
  O2-  O460  1  0.69131855  0.30939493  0.51626950  1
  O2-  O461  1  0.66515288  0.32076274  0.85613355  1
  O2-  O462  1  0.65940004  0.57762717  0.17372597  1
  O2-  O463  1  0.64200896  0.59030454  0.50968397  1
  O2-  O464  1  0.68952766  0.59317868  0.85137759  1
  O2-  O465  1  0.67103266  0.84224981  0.19233804  1
  O2-  O466  1  0.66332620  0.82083391  0.53883874  1
  O2-  O467  1  0.67658815  0.83451353  0.86794400  1
  O2-  O468  1  0.90720488  0.07063397  0.19036665  1
  O2-  O469  1  0.89482461  0.04344622  0.55570035  1
  O2-  O470  1  0.92696773  0.09316204  0.88918417  1
  O2-  O471  1  0.92017069  0.33271024  0.18682616  1
  O2-  O472  1  0.94022210  0.33826891  0.52022229  1
  O2-  O473  1  0.93476660  0.34225793  0.83088614  1
  O2-  O474  1  0.92376383  0.58797064  0.18454679  1
  O2-  O475  1  0.92477768  0.59108412  0.51669051  1
  O2-  O476  1  0.88116919  0.56248270  0.85806900  1
  O2-  O477  1  0.90475157  0.83366298  0.19065349  1
  O2-  O478  1  0.92061007  0.83104265  0.51983734  1
  O2-  O479  1  0.91659503  0.85333046  0.85751969  1
  O2-  O480  1  0.16960616  0.08065633  0.30721828  1
  O2-  O481  1  0.16173370  0.08571962  0.64520097  1
  O2-  O482  1  0.15552865  0.07885471  0.98407874  1
  O2-  O483  1  0.15969834  0.31886666  0.31651403  1
  O2-  O484  1  0.17394388  0.33245217  0.69258856  1
  O2-  O485  1  0.15039911  0.32323594  0.97168332  1
  O2-  O486  1  0.16544098  0.58515601  0.32276421  1
  O2-  O487  1  0.17975667  0.59157222  0.64727190  1
  O2-  O488  1  0.18392161  0.60624625  0.98133335  1
  O2-  O489  1  0.16900198  0.84291948  0.30664275  1
  O2-  O490  1  0.18542978  0.81786167  0.63824838  1
  O2-  O491  1  0.19266033  0.86210649  0.98130326  1
  O2-  O492  1  0.40850160  0.07549157  0.30598435  1
  O2-  O493  1  0.40921836  0.07538140  0.65100697  1
  O2-  O494  1  0.41214155  0.08119313  0.97746879  1
  O2-  O495  1  0.42048893  0.33627735  0.32579472  1
  O2-  O496  1  0.43079890  0.33169135  0.65507363  1
  O2-  O497  1  0.38804671  0.31112247  0.98310169  1
  O2-  O498  1  0.40555870  0.60020601  0.31732499  1
  O2-  O499  1  0.43802798  0.60327576  0.63647416  1
  O2-  O500  1  0.46526001  0.62202822  0.97694756  1
  O2-  O501  1  0.41994097  0.83248236  0.31424915  1
  O2-  O502  1  0.43407725  0.83966447  0.65495529  1
  O2-  O503  1  0.42422420  0.83819201  0.98483243  1
  O2-  O504  1  0.66369002  0.06068088  0.31198712  1
  O2-  O505  1  0.71019703  0.05383268  0.62963872  1
  O2-  O506  1  0.65251863  0.05590897  0.97593174  1
  O2-  O507  1  0.71437785  0.38403507  0.38654609  1
  O2-  O508  1  0.64786719  0.31231712  0.64578981  1
  O2-  O509  1  0.65743421  0.32615161  0.97612699  1
  O2-  O510  1  0.67652185  0.61325472  0.33049821  1
  O2-  O511  1  0.67418648  0.59365639  0.65160075  1
  O2-  O512  1  0.66897621  0.59866277  0.97133512  1
  O2-  O513  1  0.70222339  0.85182305  0.31489458  1
  O2-  O514  1  0.70605168  0.84786003  0.66219180  1
  O2-  O515  1  0.78333659  0.84642124  1.02857392  1
  O2-  O516  1  0.88490907  0.05668755  0.30331406  1
  O2-  O517  1  0.89616464  0.04230578  0.66928098  1
  O2-  O518  1  0.94423105  0.09089643  1.02372287  1
  O2-  O519  1  0.92044062  0.32926696  0.31079440  1
  O2-  O520  1  0.96519533  0.28863686  0.62498904  1
  O2-  O521  1  0.92961296  0.34825892  0.95889686  1
  O2-  O522  1  0.91572681  0.59629732  0.31298878  1
  O2-  O523  1  0.92759831  0.59572256  0.63943677  1
  O2-  O524  1  0.89081526  0.55771833  0.97918814  1
  O2-  O525  1  0.89705552  0.84529168  0.31324869  1
  O2-  O526  1  0.89470642  0.83337654  0.64569423  1
  O2-  O527  1  0.90568410  0.82661595  0.98402071  1
  O2-  O528  1  -0.00025261  0.17972315  0.04623139  1
  O2-  O529  1  0.10790844  0.17097894  0.36810352  1
  O2-  O530  1  0.07951118  0.17189699  0.65140107  1
  O2-  O531  1  0.08901384  0.42895214  0.02011331  1
  O2-  O532  1  0.08219264  0.40038379  0.35129986  1
  O2-  O533  1  0.09515247  0.42744998  0.68460120  1
  O2-  O534  1  0.11513807  0.69411349  0.03605156  1
  O2-  O535  1  0.08015381  0.68818594  0.33404162  1
  O2-  O536  1  0.08553636  0.65832877  0.69770869  1
  O2-  O537  1  0.08411179  0.91741927  0.02053079  1
  O2-  O538  1  0.07097448  0.91805081  0.35223927  1
  O2-  O539  1  0.05382810  0.93694460  0.69608692  1
  O2-  O540  1  0.32279096  0.15484280  0.02224521  1
  O2-  O541  1  0.33314380  0.16527178  0.34961663  1
  O2-  O542  1  0.32686655  0.16708240  0.68518450  1
  O2-  O543  1  0.30880461  0.39763354  0.02807872  1
  O2-  O544  1  0.32383005  0.42181479  0.34830045  1
  O2-  O545  1  0.36491937  0.43928106  0.68398743  1
  O2-  O546  1  0.34812446  0.67404327  0.01937638  1
  O2-  O547  1  0.32704068  0.67408550  0.35813428  1
  O2-  O548  1  0.34592803  0.67252966  0.68840662  1
  O2-  O549  1  0.34691172  0.91984395  0.02212746  1
  O2-  O550  1  0.33251539  0.91519880  0.35356887  1
  O2-  O551  1  0.34512639  0.91439911  0.69698786  1
  O2-  O552  1  0.58078717  0.15781980  0.01252715  1
  O2-  O553  1  0.56996709  0.14420601  0.34218113  1
  O2-  O554  1  0.52655608  0.19079706  0.71584755  1
  O2-  O555  1  0.58965642  0.43010993  0.01573079  1
  O2-  O556  1  0.61191800  0.44397961  0.34732661  1
  O2-  O557  1  0.60199652  0.43022985  0.69293894  1
  O2-  O558  1  0.56032658  0.67292434  -0.02585413  1
  O2-  O559  1  0.57109973  0.68518190  0.35381159  1
  O2-  O560  1  0.59657777  0.66925799  0.68754221  1
  O2-  O561  1  0.57218676  0.89922825  0.01807462  1
  O2-  O562  1  0.59230522  0.89993953  0.34819361  1
  O2-  O563  1  0.60160640  0.91130025  0.69380909  1
  O2-  O564  1  0.81044008  0.11296923  0.03321793  1
  O2-  O565  1  0.83730860  0.15904375  0.34323163  1
  O2-  O566  1  0.84796181  0.15392137  0.70842392  1
  O2-  O567  1  0.82299939  0.39934968  0.01536443  1
  O2-  O568  1  0.87168067  0.42285985  0.36978260  1
  O2-  O569  1  0.80600077  0.44401454  0.69416172  1
  O2-  O570  1  0.82720364  0.66662754  0.02354299  1
  O2-  O571  1  0.84421992  0.68863000  0.36050631  1
  O2-  O572  1  0.82551979  0.67527847  0.68057928  1
  O2-  O573  1  0.74905206  0.88547155  -0.01466303  1
  O2-  O574  1  0.78789792  0.90128958  0.34407580  1
  O2-  O575  1  0.78630225  0.87734266  0.69676123  1
