# generated using pymatgen
data_H2O
_symmetry_space_group_name_H-M   'P 1'
_cell_length_a   18.00415975
_cell_length_b   18.00518814
_cell_length_c   22.01309118
_cell_angle_alpha   90.00992235
_cell_angle_beta   90.00062338
_cell_angle_gamma   119.98974406
_symmetry_Int_Tables_number   1
_chemical_formula_structural   H2O
_chemical_formula_sum   'H384 O192'
_cell_volume   6180.54894175
_cell_formula_units_Z   192
loop_
 _symmetry_equiv_pos_site_id
 _symmetry_equiv_pos_as_xyz
  1  'x, y, z'
loop_
 _atom_type_symbol
 _atom_type_oxidation_number
  H+  1.0
  O2-  -2.0
loop_
 _atom_site_type_symbol
 _atom_site_label
 _atom_site_symmetry_multiplicity
 _atom_site_fract_x
 _atom_site_fract_y
 _atom_site_fract_z
 _atom_site_occupancy
  H+  H0  1  0.97472562  0.13122385  0.64221017  1
  H+  H1  1  0.29028604  0.39035813  0.34017970  1
  H+  H2  1  0.50916130  0.39187823  0.82910920  1
  H+  H3  1  0.38902210  0.53352622  0.66793224  1
  H+  H4  1  0.52318588  0.89393860  0.15816511  1
  H+  H5  1  0.27842503  0.88921233  0.53174127  1
  H+  H6  1  0.12425557  0.75642468  0.85495803  1
  H+  H7  1  0.47581002  0.84944289  0.84221379  1
  H+  H8  1  0.59965581  0.61788318  0.84291956  1
  H+  H9  1  0.12503065  0.24849006  0.50520096  1
  H+  H10  1  0.87297882  0.59315006  0.67128949  1
  H+  H11  1  0.64092973  0.36831673  0.31565679  1
  H+  H12  1  0.50209569  0.15508724  0.69137609  1
  H+  H13  1  0.87885810  0.29829761  0.31456294  1
  H+  H14  1  0.27236549  0.13423510  0.01076015  1
  H+  H15  1  0.10925034  0.97902084  0.48148511  1
  H+  H16  1  0.27736018  0.62419095  0.01086178  1
  H+  H17  1  0.97438741  0.13257957  0.49946312  1
  H+  H18  1  0.78984981  0.16756998  0.46406932  1
  H+  H19  1  0.23650063  0.38380772  0.50153888  1
  H+  H20  1  0.35188864  0.16026331  0.67231820  1
  H+  H21  1  0.33956802  0.46914321  0.82729066  1
  H+  H22  1  0.07483287  0.88348228  0.76453847  1
  H+  H23  1  0.21613146  0.60588391  0.15316410  1
  H+  H24  1  0.08025012  0.73310863  0.35200100  1
  H+  H25  1  0.89271610  1.04005995  0.16997696  1
  H+  H26  1  0.35883159  0.64226423  0.16384152  1
  H+  H27  1  0.11354541  0.89557485  0.15209893  1
  H+  H28  1  0.41810217  0.06491409  0.18536061  1
  H+  H29  1  0.28660641  0.91783921  0.30237598  1
  H+  H30  1  0.09735458  0.60769654  0.69185407  1
  H+  H31  1  0.71224610  0.81545331  0.87564381  1
  H+  H32  1  0.85363693  0.62377608  0.84132073  1
  H+  H33  1  0.82728801  0.65215476  0.17021621  1
  H+  H34  1  0.32606088  0.65488923  0.73976970  1
  H+  H35  1  0.49523917  0.13856315  0.33132044  1
  H+  H36  1  0.73081825  0.88821447  0.16721355  1
  H+  H37  1  0.09720754  0.17152969  0.54910304  1
  H+  H38  1  0.78001217  0.13770698  0.00925220  1
  H+  H39  1  0.39089742  0.38316987  0.66202201  1
  H+  H40  1  0.89958715  0.27775997  0.01048441  1
  H+  H41  1  0.15332074  0.28455660  0.32525736  1
  H+  H42  1  0.61460837  0.39059701  0.49252044  1
  H+  H43  1  0.37350475  0.16939767  0.49025144  1
  H+  H44  1  0.12197360  1.00966362  0.68239188  1
  H+  H45  1  0.90805905  0.30462938  0.16625125  1
  H+  H46  1  0.71993968  0.60090909  0.84823832  1
  H+  H47  1  0.87719716  0.79698051  0.15944274  1
  H+  H48  1  0.18352984  0.38572824  0.31367843  1
  H+  H49  1  0.89338585  0.86428692  0.99260832  1
  H+  H50  1  0.01839996  0.64852432  0.51380287  1
  H+  H51  1  0.40799359  1.05118472  0.31150592  1
  H+  H52  1  0.24617873  0.62045671  0.47922113  1
  H+  H53  1  0.86632234  0.90805429  0.15909871  1
  H+  H54  1  0.21815271  0.84100193  0.85508120  1
  H+  H55  1  0.85730265  0.39449881  0.33751106  1
  H+  H56  1  0.66801858  0.75319065  0.61113936  1
  H+  H57  1  0.89287438  0.85995814  0.83750919  1
  H+  H58  1  0.36690006  0.63997244  0.67804738  1
  H+  H59  1  0.15325010  0.50235648  -0.00161881  1
  H+  H60  1  0.85692547  0.88183468  0.33400597  1
  H+  H61  1  0.34543432  0.93488948  0.24592562  1
  H+  H62  1  0.87159769  0.61014517  0.31326199  1
  H+  H63  1  0.91261665  0.36884640  1.02672812  1
  H+  H64  1  0.63124022  0.87028273  0.49683025  1
  H+  H65  1  0.60131991  0.71057668  0.02532412  1
  H+  H66  1  0.33961608  0.38193334  0.82477835  1
  H+  H67  1  0.64765942  0.57131926  0.60599810  1
  H+  H68  1  0.43763865  0.59032893  0.60916868  1
  H+  H69  1  0.17707255  0.34983592  0.59551958  1
  H+  H70  1  0.22742844  0.11762985  0.48800470  1
  H+  H71  1  1.03625022  0.36454082  1.01444653  1
  H+  H72  1  0.85019965  0.46122614  0.68565038  1
  H+  H73  1  0.35016967  0.11833686  1.02226356  1
  H+  H74  1  0.01125401  0.87663540  0.00204136  1
  H+  H75  1  0.86436229  0.61395508  0.48448827  1
  H+  H76  1  0.36679627  0.27649583  0.17566666  1
  H+  H77  1  0.78751118  0.90247856  0.81659950  1
  H+  H78  1  0.11524574  0.39470581  0.66348855  1
  H+  H79  1  0.13941199  0.28905402  0.65451605  1
  H+  H80  1  0.82916479  0.65531689  0.38901962  1
  H+  H81  1  0.96289771  0.38269833  0.33665423  1
  H+  H82  1  0.27546034  0.38726320  0.16182014  1
  H+  H83  1  0.64824361  0.13122879  0.16893527  1
  H+  H84  1  0.51714290  0.62491133  0.68630729  1
  H+  H85  1  0.89160125  0.51644492  0.51239915  1
  H+  H86  1  0.85248320  0.70430364  0.67979715  1
  H+  H87  1  0.36667344  0.71267559  1.00753829  1
  H+  H88  1  0.09514310  0.69247449  0.70359141  1
  H+  H89  1  0.86449828  0.39010963  0.49271308  1
  H+  H90  1  0.88233966  0.12101798  0.64721187  1
  H+  H91  1  0.89702769  0.29161524  0.50412479  1
  H+  H92  1  0.72188195  0.35907670  0.94012621  1
  H+  H93  1  0.09840399  0.73048172  0.03729497  1
  H+  H94  1  0.98451095  0.85207752  0.50629376  1
  H+  H95  1  0.22258375  0.11141084  0.17117815  1
  H+  H96  1  0.77202362  0.15555073  0.32608367  1
  H+  H97  1  0.97529114  0.60744272  1.02036039  1
  H+  H98  1  0.32412337  0.90100116  0.60399130  1
  H+  H99  1  0.13762265  0.78761814  0.51638552  1
  H+  H100  1  0.38442985  0.84302625  0.99444685  1
  H+  H101  1  0.72447543  0.30370609  0.83938936  1
  H+  H102  1  0.87932859  0.51122979  0.86250504  1
  H+  H103  1  0.67197755  0.29325124  0.99261404  1
  H+  H104  1  0.63932215  0.86488599  1.01170273  1
  H+  H105  1  0.48277666  0.37548795  0.50665193  1
  H+  H106  1  0.58485850  0.22140866  0.84936689  1
  H+  H107  1  0.63338462  0.86147436  0.31693785  1
  H+  H108  1  0.10835006  0.50486309  0.84271157  1
  H+  H109  1  0.23901259  0.17370323  0.84893348  1
  H+  H110  1  0.63572254  0.02138753  0.99579509  1
  H+  H111  1  0.63457209  0.36607497  0.66483111  1
  H+  H112  1  0.13154800  0.89373212  0.84650072  1
  H+  H113  1  0.38412267  0.85671083  0.31077088  1
  H+  H114  1  0.34762277  0.93333857  0.03701306  1
  H+  H115  1  0.24622024  0.85106413  0.66373509  1
  H+  H116  1  0.00474876  0.65936823  0.14232040  1
  H+  H117  1  0.89806012  0.13128889  0.17504271  1
  H+  H118  1  0.45905318  0.59860840  0.84312095  1
  H+  H119  1  0.63890406  0.03764902  0.16905505  1
  H+  H120  1  0.21066086  0.84687151  0.00499004  1
  H+  H121  1  0.37019911  0.40361092  0.49564829  1
  H+  H122  1  0.14106645  0.11758738  0.32625497  1
  H+  H123  1  0.10645628  0.12945513  0.15553031  1
  H+  H124  1  0.63090528  0.11040060  0.51521021  1
  H+  H125  1  0.72641962  0.88832043  0.49586980  1
  H+  H126  1  0.37975018  0.76269064  0.16439050  1
  H+  H127  1  0.97202434  0.85991832  0.32175808  1
  H+  H128  1  0.61245726  0.63468016  0.33557660  1
  H+  H129  1  0.21051662  0.22836870  0.88866097  1
  H+  H130  1  0.88580329  0.56927104  0.16174354  1
  H+  H131  1  0.13840513  0.02717679  0.32466124  1
  H+  H132  1  0.53446972  0.87972243  0.69227235  1
  H+  H133  1  0.61872116  0.87851481  0.84571552  1
  H+  H134  1  0.24310401  0.38029303  0.01411579  1
  H+  H135  1  0.36402307  0.25467468  0.67328182  1
  H+  H136  1  0.77387571  0.14046393  0.68192303  1
  H+  H137  1  0.87183252  0.15769384  0.47949335  1
  H+  H138  1  0.61384057  0.38710909  0.00477890  1
  H+  H139  1  0.38964334  0.28020255  0.32533750  1
  H+  H140  1  0.71594649  0.60435581  0.31992146  1
  H+  H141  1  0.67024159  0.08615717  0.77637999  1
  H+  H142  1  0.37756625  0.53225525  0.17350538  1
  H+  H143  1  0.78815480  0.39338131  1.03398918  1
  H+  H144  1  0.21767137  0.60918741  0.66798667  1
  H+  H145  1  0.10360512  0.27730182  0.82005409  1
  H+  H146  1  0.10876727  0.87582272  0.00674926  1
  H+  H147  1  0.69934847  0.08436399  0.53794550  1
  H+  H148  1  0.27535262  0.39799113  0.66918353  1
  H+  H149  1  0.97255408  0.10999205  0.99313467  1
  H+  H150  1  0.34398752  0.85797205  0.66825295  1
  H+  H151  1  0.66720318  0.33522782  0.56815384  1
  H+  H152  1  0.72826960  0.36531863  0.50884041  1
  H+  H153  1  0.66447579  0.66183078  0.14792069  1
  H+  H154  1  0.44676391  0.13175455  0.23752066  1
  H+  H155  1  0.61426918  0.47286940  0.33675770  1
  H+  H156  1  0.67802504  0.75392580  0.14564371  1
  H+  H157  1  0.38749312  0.28506649  0.84073756  1
  H+  H158  1  0.36552611  0.15429916  0.16348655  1
  H+  H159  1  0.73276955  0.37279783  0.32172592  1
  H+  H160  1  0.93208998  0.09070404  0.26613615  1
  H+  H161  1  0.34184077  0.14246431  0.81644838  1
  H+  H162  1  0.91049530  0.56840842  0.57554145  1
  H+  H163  1  0.77752332  0.88155635  0.00956475  1
  H+  H164  1  0.88519529  0.76777291  0.84298848  1
  H+  H165  1  0.62658868  0.24005021  0.33910582  1
  H+  H166  1  0.63239452  0.02913319  0.31934044  1
  H+  H167  1  0.00865322  0.62369573  0.85158574  1
  H+  H168  1  0.38846968  0.85295133  0.84102150  1
  H+  H169  1  0.61818132  0.96750371  0.83622338  1
  H+  H170  1  0.68394424  0.92563071  0.65314805  1
  H+  H171  1  0.91285035  0.83357234  0.26298940  1
  H+  H172  1  0.36797566  0.03822072  0.66067320  1
  H+  H173  1  0.76225172  0.61772035  0.67990574  1
  H+  H174  1  0.27488925  0.14021058  0.33783874  1
  H+  H175  1  0.88994840  1.02814078  0.83279958  1
  H+  H176  1  0.22237860  0.86154455  0.16908714  1
  H+  H177  1  0.37892029  0.83427613  0.51887583  1
  H+  H178  1  0.69658422  0.56539308  0.17253508  1
  H+  H179  1  0.61944884  0.13637942  1.00052110  1
  H+  H180  1  1.02346728  0.38978335  0.66758664  1
  H+  H181  1  0.02113387  0.13805358  0.15943885  1
  H+  H182  1  0.61146611  0.62967525  0.01623625  1
  H+  H183  1  0.37044680  0.60107547  0.84510511  1
  H+  H184  1  0.36912485  0.14836801  0.33940570  1
  H+  H185  1  0.12956608  0.62706356  0.51837819  1
  H+  H186  1  0.59604133  0.17629402  0.43714358  1
  H+  H187  1  0.15238366  0.81782165  0.94486814  1
  H+  H188  1  0.66402468  0.29776145  0.16793754  1
  H+  H189  1  0.60434296  0.48753328  0.17773557  1
  H+  H190  1  0.52820063  0.39518960  0.00315378  1
  H+  H191  1  0.64709010  0.12857572  0.82823596  1
  H+  H192  1  0.15736408  0.00130648  0.67332076  1
  H+  H193  1  0.88051552  0.35740591  0.66549303  1
  H+  H194  1  0.12934063  0.51753305  0.66143990  1
  H+  H195  1  0.59572203  -0.02759314  0.48706526  1
  H+  H196  1  0.51986179  0.39029749  0.68023480  1
  H+  H197  1  0.52766939  0.38322948  0.33590774  1
  H+  H198  1  0.10890162  0.15056425  0.00701524  1
  H+  H199  1  -0.02440843  0.87114003  0.16399011  1
  H+  H200  1  0.44900924  0.10777194  0.78967355  1
  H+  H201  1  0.86559345  -0.02807533  1.00065235  1
  H+  H202  1  0.84271695  0.91350009  0.75858745  1
  H+  H203  1  0.02832803  0.13514183  0.33593804  1
  H+  H204  1  0.56421891  0.17968743  -0.02042943  1
  H+  H205  1  0.35112936  0.96254778  0.81854769  1
  H+  H206  1  0.48131208  0.58186438  0.99139333  1
  H+  H207  1  0.48129312  0.61890571  0.32991588  1
  H+  H208  1  0.58170731  0.92032481  0.38476036  1
  H+  H209  1  0.89853757  1.02301505  0.32046810  1
  H+  H210  1  0.61907673  0.74575192  0.85604359  1
  H+  H211  1  0.38954208  0.29286206  0.50687940  1
  H+  H212  1  0.79694723  0.16224018  0.82490993  1
  H+  H213  1  0.60964806  0.48235769  0.83422841  1
  H+  H214  1  0.38223256  0.36067887  0.99289666  1
  H+  H215  1  0.57632176  0.42252119  0.76638376  1
  H+  H216  1  0.11224018  0.16301233  0.65808912  1
  H+  H217  1  0.73168246  0.60823936  0.99663192  1
  H+  H218  1  0.16237188  0.07967833  0.22999651  1
  H+  H219  1  0.78918320  0.15300969  0.16316142  1
  H+  H220  1  0.65942199  0.75029486  0.48743807  1
  H+  H221  1  0.37780923  0.37184885  0.17387911  1
  H+  H222  1  0.14420800  0.38130928  0.50552225  1
  H+  H223  1  0.15245905  0.62843869  0.30293654  1
  H+  H224  1  0.92310043  0.29485283  0.83373940  1
  H+  H225  1  0.84897832  0.47940242  0.33877186  1
  H+  H226  1  0.38169670  0.39854299  0.34348522  1
  H+  H227  1  0.38015935  0.76053483  0.68188888  1
  H+  H228  1  0.12362249  0.45209811  0.34921748  1
  H+  H229  1  0.44521532  0.44752898  0.96558442  1
  H+  H230  1  0.63537529  0.69114654  0.42897361  1
  H+  H231  1  -0.04011344  0.58854512  0.67587450  1
  H+  H232  1  0.36240130  0.63673719  0.32694664  1
  H+  H233  1  0.61600391  0.72562509  0.33333789  1
  H+  H234  1  0.72232493  0.86186072  0.31730298  1
  H+  H235  1  1.01256231  0.13825364  0.81832124  1
  H+  H236  1  0.83991184  0.93047509  0.09627695  1
  H+  H237  1  0.11072779  0.48539301  0.50301233  1
  H+  H238  1  -0.03375127  0.83355746  0.67464657  1
  H+  H239  1  0.88472786  0.81828829  0.51532066  1
  H+  H240  1  0.22025162  0.53313424  0.32765774  1
  H+  H241  1  0.60675341  0.51924867  0.51237790  1
  H+  H242  1  0.19080273  0.78999604  0.30535435  1
  H+  H243  1  0.92597926  0.81030223  0.60714835  1
  H+  H244  1  0.89053965  0.11864105  0.83712942  1
  H+  H245  1  0.98362754  0.37948604  0.51520533  1
  H+  H246  1  0.38022011  -0.03042433  0.53709652  1
  H+  H247  1  0.13370799  0.03102401  0.98607930  1
  H+  H248  1  0.36968146  0.87064190  0.17152354  1
  H+  H249  1  0.14475724  0.26691726  0.16643806  1
  H+  H250  1  0.86316969  0.22977382  0.67378332  1
  H+  H251  1  0.12219646  0.59753822  0.85306314  1
  H+  H252  1  0.85377816  0.72067635  0.33255091  1
  H+  H253  1  0.25454629  0.61822058  0.83073816  1
  H+  H254  1  0.51369282  0.57662054  0.53827806  1
  H+  H255  1  0.11889067  0.89624911  0.48589635  1
  H+  H256  1  0.33705752  0.69806983  0.46533346  1
  H+  H257  1  0.87341429  0.70385355  0.48433041  1
  H+  H258  1  0.64178305  0.51953843  0.00014485  1
  H+  H259  1  0.11187401  0.88662516  0.33334811  1
  H+  H260  1  0.06374210  0.37307713  0.82160690  1
  H+  H261  1  0.41783388  0.53686864  0.51648351  1
  H+  H262  1  0.89051484  0.51625763  1.02328122  1
  H+  H263  1  0.54492366  0.17512380  0.15943833  1
  H+  H264  1  0.61570593  0.90080427  0.15804770  1
  H+  H265  1  0.32500798  0.42089825  0.73279055  1
  H+  H266  1  0.82418820  0.64759160  0.77830186  1
  H+  H267  1  0.23602752  0.16592961  0.64061326  1
  H+  H268  1  0.63999423  0.62114291  0.51012861  1
  H+  H269  1  -0.04267272  0.61088922  0.32694777  1
  H+  H270  1  0.13380348  0.59490287  0.32787197  1
  H+  H271  1  0.32082416  0.18856013  0.76300773  1
  H+  H272  1  0.71794834  0.35630811  0.66821957  1
  H+  H273  1  0.61163398  0.47588748  0.67958921  1
  H+  H274  1  0.86024189  0.92166357  0.48796518  1
  H+  H275  1  0.47256609  0.08073263  1.03583788  1
  H+  H276  1  0.86159879  1.00883177  0.48113356  1
  H+  H277  1  0.86747495  0.62808521  0.01388823  1
  H+  H278  1  0.09746674  0.81471025  0.68665729  1
  H+  H279  1  0.39344454  0.52957985  0.33051269  1
  H+  H280  1  0.64000061  0.76995161  0.62320854  1
  H+  H281  1  0.52843520  0.89112314  0.00725983  1
  H+  H282  1  0.79531758  0.90939231  0.66442280  1
  H+  H283  1  0.40342421  0.07223797  0.48598603  1
  H+  H284  1  0.37713579  0.76271001  0.31721736  1
  H+  H285  1  0.85455559  0.86420009  0.67138033  1
  H+  H286  1  0.51414000  0.88050805  0.47474110  1
  H+  H287  1  0.63002721  0.59915030  0.67086050  1
  H+  H288  1  0.30711885  0.90824365  0.42357029  1
  H+  H289  1  0.91064806  0.10285169  0.55643914  1
  H+  H290  1  0.84479109  0.17366472  0.10318194  1
  H+  H291  1  0.86560518  0.13217559  0.00649530  1
  H+  H292  1  0.12581046  0.58712036  0.17569725  1
  H+  H293  1  0.06130202  0.92106110  0.84701309  1
  H+  H294  1  0.83004747  0.41973466  0.43423463  1
  H+  H295  1  0.08673674  0.65022642  0.35921992  1
  H+  H296  1  -0.00356861  0.79164443  0.75640616  1
  H+  H297  1  0.36723513  0.95269197  0.13764141  1
  H+  H298  1  0.90881153  0.56962473  0.92223265  1
  H+  H299  1  0.42154272  0.82466881  0.93394492  1
  H+  H300  1  0.16850088  0.55807777  0.93952026  1
  H+  H301  1  0.59486890  0.20559160  0.77899028  1
  H+  H302  1  0.41363488  0.09745108  0.60401753  1
  H+  H303  1  0.82819568  0.40684619  0.10038513  1
  H+  H304  1  0.59446880  0.23945019  0.68715486  1
  H+  H305  1  0.42382764  0.35331254  0.60316685  1
  H+  H306  1  0.66343135  0.09340541  0.26268202  1
  H+  H307  1  0.18773246  0.36761279  0.82614354  1
  H+  H308  1  0.41850912  0.55141499  0.93172698  1
  H+  H309  1  0.57309436  0.64822814  0.78253644  1
  H+  H310  1  0.17939865  0.11682705  0.58227591  1
  H+  H311  1  0.86766420  0.71769567  0.01016011  1
  H+  H312  1  0.85204296  0.18248922  0.76507016  1
  H+  H313  1  0.10236887  0.45250418  0.18511420  1
  H+  H314  1  0.33831228  0.89199051  0.42466690  1
  H+  H315  1  0.32751796  0.17032159  0.10237655  1
  H+  H316  1  0.67183375  0.08076259  0.93622276  1
  H+  H317  1  0.69241456  0.35253997  0.23432302  1
  H+  H318  1  0.34491145  0.70805576  0.83264942  1
  H+  H319  1  0.33485121  0.67039741  0.09953023  1
  H+  H320  1  0.93507000  0.58547099  0.22303221  1
  H+  H321  1  0.16169669  0.59380107  0.57444924  1
  H+  H322  1  0.30293892  0.84586916  0.07421315  1
  H+  H323  1  0.31077719  0.88529535  0.77311249  1
  H+  H324  1  0.92420444  0.83306934  0.93291779  1
  H+  H325  1  0.42795822  0.09670174  0.85853456  1
  H+  H326  1  0.15893952  0.85791274  0.56818975  1
  H+  H327  1  0.34079494  0.45292604  0.00648632  1
  H+  H328  1  0.91164926  0.33529258  0.60282377  1
  H+  H329  1  0.58434973  0.92793062  0.06896511  1
  H+  H330  1  0.63901624  1.02081525  0.68037403  1
  H+  H331  1  0.33885225  0.18424993  0.42685361  1
  H+  H332  1  0.11072922  0.16264078  0.82143831  1
  H+  H333  1  0.34578373  0.43379262  0.43462309  1
  H+  H334  1  0.07918156  0.91626379  0.06644026  1
  H+  H335  1  0.41885763  0.77517455  0.53448810  1
  H+  H336  1  0.41664654  0.82365689  0.22653050  1
  H+  H337  1  0.66345664  0.57026781  0.91018037  1
  H+  H338  1  0.49948264  0.36601886  0.16292642  1
  H+  H339  1  0.62147616  0.23250923  0.49891077  1
  H+  H340  1  0.81239434  0.62928683  0.10057482  1
  H+  H341  1  0.11914265  0.43499099  0.25070837  1
  H+  H342  1  0.60094532  0.19709409  0.09866935  1
  H+  H343  1  0.40851805  0.04240691  0.98281952  1
  H+  H344  1  0.15561866  0.82510773  0.25383032  1
  H+  H345  1  0.07296369  0.16737057  0.06802876  1
  H+  H346  1  0.09516278  0.75586522  0.63099278  1
  H+  H347  1  0.12356458  0.78659368  0.15543463  1
  H+  H348  1  0.41972546  0.35391909  0.89790485  1
  H+  H349  1  0.41630827  0.33958582  0.26593951  1
  H+  H350  1  0.65301144  0.81744942  0.95669364  1
  H+  H351  1  0.56495073  0.39364674  0.10715010  1
  H+  H352  1  0.82284438  0.40022107  0.74407799  1
  H+  H353  1  0.82843835  0.92221685  0.38841280  1
  H+  H354  1  0.40848659  0.58977054  0.23286426  1
  H+  H355  1  0.93458353  0.37466534  0.21514209  1
  H+  H356  1  0.70632663  0.90440385  0.58844812  1
  H+  H357  1  0.61086739  0.70511178  0.69276595  1
  H+  H358  1  0.66726879  0.84364578  0.22326776  1
  H+  H359  1  0.06252720  0.64123598  0.79007855  1
  H+  H360  1  0.13928787  0.11812355  0.49139041  1
  H+  H361  1  0.49917149  0.11058344  0.50778874  1
  H+  H362  1  0.06654848  0.41801544  0.44414850  1
  H+  H363  1  0.07992382  0.91348489  0.39246738  1
  H+  H364  1  0.17793381  0.32715977  0.22521287  1
  H+  H365  1  0.62029486  0.14791830  0.33969094  1
  H+  H366  1  0.58562421  0.41663211  0.43112194  1
  H+  H367  1  0.33153305  0.42021818  0.10273938  1
  H+  H368  1  0.59668085  0.90836908  0.74854470  1
  H+  H369  1  0.08585955  0.17050533  0.39621421  1
  H+  H370  1  0.07283287  0.17628375  0.72054728  1
  H+  H371  1  0.11275241  0.98432732  0.15279493  1
  H+  H372  1  0.64878191  0.08514901  0.62923492  1
  H+  H373  1  0.10161831  0.28101431  1.00628138  1
  H+  H374  1  0.84712066  0.19167491  0.37429433  1
  H+  H375  1  0.17207524  0.11054279  0.93915507  1
  H+  H376  1  0.52161234  0.88548364  0.32659610  1
  H+  H377  1  0.07167441  0.68686384  0.45319587  1
  H+  H378  1  0.88518112  0.38883719  0.83749972  1
  H+  H379  1  0.64926386  0.56500538  0.26365746  1
  H+  H380  1  0.91544707  0.08009230  0.93212691  1
  H+  H381  1  0.43371251  0.83021626  0.63008940  1
  H+  H382  1  0.03567790  0.34436566  0.37749889  1
  H+  H383  1  0.30945202  0.65147792  0.37841314  1
  O2-  O384  1  0.07961416  0.16202728  0.13956671  1
  O2-  O385  1  0.09205329  0.18295968  0.50624178  1
  O2-  O386  1  0.06993134  0.17316035  0.79804648  1
  O2-  O387  1  0.07984710  0.40714678  0.21634051  1
  O2-  O388  1  0.08200164  0.42382021  0.49224297  1
  O2-  O389  1  0.02812688  0.40209301  0.81242005  1
  O2-  O390  1  0.04378893  0.71416838  0.11562047  1
  O2-  O391  1  0.07840438  0.68978328  0.49818816  1
  O2-  O392  1  0.06848699  0.65424057  0.83449212  1
  O2-  O393  1  0.08236675  0.92381656  0.13483396  1
  O2-  O394  1  0.07998650  0.91614162  0.47061884  1
  O2-  O395  1  0.11532285  0.93390121  0.82736966  1
  O2-  O396  1  0.32400772  0.17066273  0.14817147  1
  O2-  O397  1  0.33535374  0.18759179  0.47310576  1
  O2-  O398  1  0.32382739  0.18501441  0.80878881  1
  O2-  O399  1  0.33776911  0.42535894  0.14765209  1
  O2-  O400  1  0.34201516  0.43537790  0.48025631  1
  O2-  O401  1  0.30820332  0.40985601  0.80923907  1
  O2-  O402  1  0.33280230  0.67687068  0.14573674  1
  O2-  O403  1  0.29809922  0.63836177  0.45397203  1
  O2-  O404  1  0.31563847  0.64897930  0.81581576  1
  O2-  O405  1  0.33530144  0.90700223  0.16687206  1
  O2-  O406  1  0.33794776  0.90804523  0.54948488  1
  O2-  O407  1  0.32359742  0.89911481  0.81601613  1
  O2-  O408  1  0.60457658  0.19974679  0.14326908  1
  O2-  O409  1  0.59276556  0.17143176  0.48273199  1
  O2-  O410  1  0.62072288  0.21144266  0.82122028  1
  O2-  O411  1  0.56074640  0.38764941  0.15169454  1
  O2-  O412  1  0.58263309  0.41816157  0.47657356  1
  O2-  O413  1  0.57262121  0.42217859  0.81390492  1
  O2-  O414  1  0.70578820  0.72051809  0.13493113  1
  O2-  O415  1  0.66776614  0.70552507  0.46796443  1
  O2-  O416  1  0.56980470  0.64864459  0.82805612  1
  O2-  O417  1  0.58323635  0.93032229  0.14362103  1
  O2-  O418  1  0.57526044  0.91825545  0.46384794  1
  O2-  O419  1  0.58799977  0.90552893  0.82668040  1
  O2-  O420  1  0.84880098  0.17874787  0.14827427  1
  O2-  O421  1  0.85195295  0.19657625  0.46120320  1
  O2-  O422  1  0.85685144  0.18761911  0.81116512  1
  O2-  O423  1  0.78972969  0.37709547  0.17453807  1
  O2-  O424  1  0.83154289  0.41902880  0.47990672  1
  O2-  O425  1  0.83923614  0.40592967  0.82925877  1
  O2-  O426  1  0.80229660  0.60389590  0.14223159  1
  O2-  O427  1  0.84254160  0.64809943  0.46388448  1
  O2-  O428  1  0.82500300  0.65404860  0.82346795  1
  O2-  O429  1  0.83832967  0.93822559  0.14109275  1
  O2-  O430  1  0.83064444  0.94662936  0.46671088  1
  O2-  O431  1  0.84706572  0.92305269  0.80560048  1
  O2-  O432  1  0.16096326  0.07697445  0.18462104  1
  O2-  O433  1  0.16584724  0.08213362  0.49959101  1
  O2-  O434  1  0.19076786  0.17026759  0.87393650  1
  O2-  O435  1  0.18330446  0.32620743  0.18062383  1
  O2-  O436  1  0.17625931  0.35066010  0.51752903  1
  O2-  O437  1  0.12603000  0.33674201  0.83546831  1
  O2-  O438  1  0.15381169  0.56489203  0.14972937  1
  O2-  O439  1  0.15999709  0.59590002  0.52906674  1
  O2-  O440  1  0.15156278  0.56338361  0.85698348  1
  O2-  O441  1  0.16146965  0.83974827  0.18039745  1
  O2-  O442  1  0.17559560  0.85152384  0.52691731  1
  O2-  O443  1  0.15898408  0.81738501  0.87056662  1
  O2-  O444  1  0.44415013  0.12658191  0.19158376  1
  O2-  O445  1  0.43608775  0.07234907  0.52147067  1
  O2-  O446  1  0.40144250  0.07854392  0.81853871  1
  O2-  O447  1  0.40189550  0.33563361  0.19175601  1
  O2-  O448  1  0.42386306  0.35062602  0.52505667  1
  O2-  O449  1  0.41839266  0.34710179  0.85201398  1
  O2-  O450  1  0.40280000  0.59229928  0.18830272  1
  O2-  O451  1  0.46293828  0.58431644  0.54099336  1
  O2-  O452  1  0.39841259  0.56728275  0.85710821  1
  O2-  O453  1  0.41392059  0.82846392  0.18112174  1
  O2-  O454  1  0.41100662  0.80775880  0.50222395  1
  O2-  O455  1  0.41467858  0.81916007  0.85536443  1
  O2-  O456  1  0.67274559  0.09709366  0.18563658  1
  O2-  O457  1  0.63820190  0.06477952  0.53597223  1
  O2-  O458  1  0.66994216  0.08913694  0.82093735  1
  O2-  O459  1  0.70151681  0.35748065  0.18598485  1
  O2-  O460  1  0.66686963  0.33308737  0.52281783  1
  O2-  O461  1  0.76800597  0.34498663  0.86820114  1
  O2-  O462  1  0.64008582  0.54979357  0.19023275  1
  O2-  O463  1  0.61217625  0.56798401  0.53687739  1
  O2-  O464  1  0.65916276  0.56892818  0.86350612  1
  O2-  O465  1  0.66913946  0.85328755  0.17839594  1
  O2-  O466  1  0.67012131  0.85292872  0.51617483  1
  O2-  O467  1  0.65421822  0.80635763  0.87277003  1
  O2-  O468  1  0.92716867  0.09820413  0.18831171  1
  O2-  O469  1  0.91212293  0.10359630  0.50859794  1
  O2-  O470  1  0.91784009  0.08563715  0.85263249  1
  O2-  O471  1  0.91419340  0.36138374  0.17294193  1
  O2-  O472  1  0.91992068  0.34722226  0.52587610  1
  O2-  O473  1  0.95156389  0.35479700  0.85045134  1
  O2-  O474  1  0.94257523  0.58453716  0.17830763  1
  O2-  O475  1  0.92076036  0.57555099  0.53090626  1
  O2-  O476  1  0.90557560  0.57153714  0.87686134  1
  O2-  O477  1  0.91745111  0.84764482  0.18250348  1
  O2-  O478  1  0.93118563  0.80897998  0.52823861  1
  O2-  O479  1  0.92060900  0.82903949  0.85536032  1
  O2-  O480  1  0.17150974  0.08742172  0.31013872  1
  O2-  O481  1  0.18586154  0.15593124  0.61568037  1
  O2-  O482  1  0.16769502  0.09367442  0.98281438  1
  O2-  O483  1  0.19687217  0.33836145  0.30604410  1
  O2-  O484  1  0.17629779  0.35003647  0.64105503  1
  O2-  O485  1  0.12967617  0.34033840  0.98917524  1
  O2-  O486  1  0.17800071  0.47275278  0.32132508  1
  O2-  O487  1  0.15829470  0.58322086  0.65258882  1
  O2-  O488  1  0.17724223  0.56188912  0.98389377  1
  O2-  O489  1  0.16271742  0.82403893  0.29968333  1
  O2-  O490  1  0.13431155  0.80049981  0.65906467  1
  O2-  O491  1  0.15072355  0.82502520  0.99043622  1
  O2-  O492  1  0.43690442  0.11499198  0.31171437  1
  O2-  O493  1  0.40230363  0.09799233  0.64788895  1
  O2-  O494  1  0.41050186  0.04408855  1.02714916  1
  O2-  O495  1  0.42464496  0.34042516  0.31145609  1
  O2-  O496  1  0.42242738  0.35260093  0.64878938  1
  O2-  O497  1  0.43527043  0.38672183  0.96821064  1
  O2-  O498  1  0.42096700  0.58954742  0.31463267  1
  O2-  O499  1  0.42617405  0.59463885  0.65450496  1
  O2-  O500  1  0.43262282  0.53163353  0.96981275  1
  O2-  O501  1  0.41422770  0.82470493  0.30287547  1
  O2-  O502  1  0.41073375  0.82610708  0.67090269  1
  O2-  O503  1  0.42744083  0.82894109  0.97909105  1
  O2-  O504  1  0.65954501  0.09101160  0.30819523  1
  O2-  O505  1  0.66341997  0.08299930  0.67191684  1
  O2-  O506  1  0.66632157  0.08342209  0.98014856  1
  O2-  O507  1  0.67433182  0.34082184  0.29995217  1
  O2-  O508  1  0.65971734  0.33162593  0.64911498  1
  O2-  O509  1  0.69450496  0.35305052  0.98028488  1
  O2-  O510  1  0.65379033  0.57189168  0.30957634  1
  O2-  O511  1  0.65967145  0.57120024  0.65118528  1
  O2-  O512  1  0.67119511  0.57828701  0.98144956  1
  O2-  O513  1  0.66209041  0.82992453  0.30179328  1
  O2-  O514  1  0.73215011  0.93822896  0.62599204  1
  O2-  O515  1  0.66644495  0.83022508  1.00020129  1
  O2-  O516  1  0.93767387  0.08414589  0.31061126  1
  O2-  O517  1  0.91658792  0.10185105  0.62343768  1
  O2-  O518  1  0.91210455  0.07524002  0.97735932  1
  O2-  O519  1  0.90995168  0.36243507  0.31045400  1
  O2-  O520  1  0.91248263  0.33046640  0.64824825  1
  O2-  O521  1  0.93786455  0.33995807  1.00360971  1
  O2-  O522  1  0.90543329  0.58133803  0.30170317  1
  O2-  O523  1  0.90247318  0.56197550  0.65605271  1
  O2-  O524  1  0.91800018  0.57317794  1.00118735  1
  O2-  O525  1  0.91117151  0.82939481  0.30805577  1
  O2-  O526  1  0.91216569  0.80728985  0.65119531  1
  O2-  O527  1  0.92718198  0.83590780  0.97879008  1
  O2-  O528  1  0.07148603  0.17219349  0.02193728  1
  O2-  O529  1  0.09066801  0.16949703  0.35222791  1
  O2-  O530  1  0.07484871  0.18404514  0.67547723  1
  O2-  O531  1  0.09873034  0.38647336  0.02714851  1
  O2-  O532  1  0.04340486  0.40159079  0.38276654  1
  O2-  O533  1  0.08512914  0.42496421  0.67821928  1
  O2-  O534  1  0.07052541  0.67958104  0.06452545  1
  O2-  O535  1  0.05542311  0.67825902  0.37424802  1
  O2-  O536  1  0.06174214  0.63073245  0.71182728  1
  O2-  O537  1  0.07684241  0.90898112  0.01911988  1
  O2-  O538  1  0.08053103  0.91524680  0.34697012  1
  O2-  O539  1  0.04056967  0.83820095  0.73209747  1
  O2-  O540  1  0.33138048  0.16026978  0.02785944  1
  O2-  O541  1  0.33448358  0.17373367  0.35500496  1
  O2-  O542  1  0.32572305  0.19350070  0.68769663  1
  O2-  O543  1  0.30252207  0.39607050  0.02534203  1
  O2-  O544  1  0.34899283  0.42605517  0.35885303  1
  O2-  O545  1  0.33465420  0.42788298  0.68768333  1
  O2-  O546  1  0.33618666  0.65780446  0.02913615  1
  O2-  O547  1  0.32303995  0.66050737  0.33397018  1
  O2-  O548  1  0.33299583  0.66614426  0.69460986  1
  O2-  O549  1  0.31011006  0.87003665  0.03329083  1
  O2-  O550  1  0.34714793  0.94184391  0.29084663  1
  O2-  O551  1  0.30975444  0.88855077  0.65761686  1
  O2-  O552  1  0.58874231  0.16773764  0.01526046  1
  O2-  O553  1  0.59505415  0.18190696  0.35830873  1
  O2-  O554  1  0.55555752  0.19016675  0.71417301  1
  O2-  O555  1  0.58483172  0.41580415  0.02313081  1
  O2-  O556  1  0.58823736  0.41158961  0.35130372  1
  O2-  O557  1  0.57913855  0.41632503  0.69834464  1
  O2-  O558  1  0.56962706  0.64756230  0.02741272  1
  O2-  O559  1  0.58847938  0.66895601  0.35430824  1
  O2-  O560  1  0.57591017  0.64562502  0.70608895  1
  O2-  O561  1  0.58845886  0.92670063  0.02308116  1
  O2-  O562  1  0.58277291  0.92000368  0.33952921  1
  O2-  O563  1  0.59511145  0.91413137  0.70355082  1
  O2-  O564  1  0.83935395  0.16481156  0.02437564  1
  O2-  O565  1  0.83444554  0.19413889  0.33121697  1
  O2-  O566  1  0.83634312  0.17045391  0.69182561  1
  O2-  O567  1  0.84310848  0.42001300  0.05597150  1
  O2-  O568  1  0.82079118  0.42037816  0.35597851  1
  O2-  O569  1  0.81892998  0.39975176  0.69927071  1
  O2-  O570  1  0.83444949  0.65805238  0.02458636  1
  O2-  O571  1  0.82334014  0.65887005  0.34376483  1
  O2-  O572  1  0.82139952  0.64531217  0.69770468  1
  O2-  O573  1  0.84082288  0.91221662  0.01762448  1
  O2-  O574  1  0.82695939  0.91431542  0.34372659  1
  O2-  O575  1  0.82374845  0.88823241  0.69338980  1
