# generated using pymatgen
data_H2O
_symmetry_space_group_name_H-M   'P 1'
_cell_length_a   17.97710682
_cell_length_b   17.98614791
_cell_length_c   22.00709558
_cell_angle_alpha   90.00338901
_cell_angle_beta   89.98955161
_cell_angle_gamma   119.97390322
_symmetry_Int_Tables_number   1
_chemical_formula_structural   H2O
_chemical_formula_sum   'H384 O192'
_cell_volume   6164.04015356
_cell_formula_units_Z   192
loop_
 _symmetry_equiv_pos_site_id
 _symmetry_equiv_pos_as_xyz
  1  'x, y, z'
loop_
 _atom_type_symbol
 _atom_type_oxidation_number
  H+  1.0
  O2-  -2.0
loop_
 _atom_site_type_symbol
 _atom_site_label
 _atom_site_symmetry_multiplicity
 _atom_site_fract_x
 _atom_site_fract_y
 _atom_site_fract_z
 _atom_site_occupancy
  H+  H0  1  0.15373455  0.82658268  0.23862280  1
  H+  H1  1  0.57825180  0.14926521  0.91935317  1
  H+  H2  1  0.21274716  0.09275701  0.67083948  1
  H+  H3  1  0.85984663  0.99981418  0.49301163  1
  H+  H4  1  0.23190026  0.37039710  0.84061427  1
  H+  H5  1  0.28953264  0.62766113  0.80403919  1
  H+  H6  1  0.36641212  0.09556961  0.19956611  1
  H+  H7  1  0.86366085  0.25247426  -0.00125462  1
  H+  H8  1  0.61180498  0.72261341  1.00362547  1
  H+  H9  1  0.90458759  0.47290673  0.83585288  1
  H+  H10  1  0.10263365  0.64582178  0.55968857  1
  H+  H11  1  0.90428935  0.61003029  0.66058594  1
  H+  H12  1  0.40614880  0.62338862  0.83823300  1
  H+  H13  1  0.89644482  0.78866824  0.50294851  1
  H+  H14  1  0.85487687  0.35157471  0.51472981  1
  H+  H15  1  0.86784363  0.90397964  0.66458216  1
  H+  H16  1  0.86905895  -0.02293986  1.01389413  1
  H+  H17  1  0.62457764  0.14073502  0.34109706  1
  H+  H18  1  0.89792484  0.32012108  0.27446417  1
  H+  H19  1  0.37995286  0.34708000  0.16751796  1
  H+  H20  1  0.43436738  0.29445375  0.34492304  1
  H+  H21  1  0.88241576  0.11198862  0.32557609  1
  H+  H22  1  0.61988335  0.97803960  0.16036937  1
  H+  H23  1  0.14274901  0.61055028  0.17771281  1
  H+  H24  1  0.52484357  0.63936078  0.34441150  1
  H+  H25  1  0.52806472  0.64713153  0.49337350  1
  H+  H26  1  0.39744346  0.61799720  0.49922712  1
  H+  H27  1  0.11039209  0.99243683  0.82064957  1
  H+  H28  1  1.02832968  0.37144817  0.82581004  1
  H+  H29  1  0.01331526  0.13295620  0.33780487  1
  H+  H30  1  0.88640993  0.26700581  0.67063750  1
  H+  H31  1  0.64710997  0.30057882  0.51023494  1
  H+  H32  1  0.86664554  0.13689567  0.67687192  1
  H+  H33  1  0.68355748  0.09369256  0.22580295  1
  H+  H34  1  0.61101446  0.64352279  0.67881120  1
  H+  H35  1  0.61316448  0.88605534  0.16288749  1
  H+  H36  1  0.13377178  0.85327721  0.66327264  1
  H+  H37  1  0.73216033  0.65310061  0.66201424  1
  H+  H38  1  0.11624925  0.12660471  0.68115605  1
  H+  H39  1  0.18725494  0.71955381  0.83781445  1
  H+  H40  1  0.26178023  0.87962903  0.17973791  1
  H+  H41  1  0.65197838  0.13726749  0.64067930  1
  H+  H42  1  0.27981781  0.63167672  0.18919094  1
  H+  H43  1  0.33376171  0.86822767  0.33468442  1
  H+  H44  1  0.57267299  0.40250377  0.06507125  1
  H+  H45  1  0.05720426  0.58147729  0.88792581  1
  H+  H46  1  0.19691779  0.83752003  0.33003159  1
  H+  H47  1  0.87357950  0.89046024  0.01035269  1
  H+  H48  1  1.05070896  0.33396353  0.16573672  1
  H+  H49  1  0.46332326  0.11453442  0.99772625  1
  H+  H50  1  0.57774062  0.91002359  0.06702678  1
  H+  H51  1  0.13386815  0.48455554  0.48652034  1
  H+  H52  1  0.83653945  0.33259068  0.18800393  1
  H+  H53  1  0.78032060  0.39295753  0.34447971  1
  H+  H54  1  0.86861911  0.75604711  0.32767545  1
  H+  H55  1  0.84394433  0.66985956  0.65865166  1
  H+  H56  1  0.83585112  0.24348165  0.18569764  1
  H+  H57  1  0.61828345  0.34901093  0.99956581  1
  H+  H58  1  0.64705913  0.61942848  -0.01035199  1
  H+  H59  1  0.14791662  0.36746881  0.33455355  1
  H+  H60  1  0.36474742  0.39930937  0.83045574  1
  H+  H61  1  0.72259033  0.59620957  -0.00644275  1
  H+  H62  1  0.37758935  0.01441884  0.66240524  1
  H+  H63  1  0.39530849  0.11126977  0.34859179  1
  H+  H64  1  0.87034707  0.76062719  0.81050993  1
  H+  H65  1  0.10223983  0.96891263  0.15627629  1
  H+  H66  1  0.33523325  0.71840029  -0.01184791  1
  H+  H67  1  0.36887963  0.72012204  0.18404961  1
  H+  H68  1  0.74249040  0.11577759  0.16666676  1
  H+  H69  1  1.03548429  0.38927646  0.33898226  1
  H+  H70  1  0.62143249  0.59824464  0.33114394  1
  H+  H71  1  0.34271348  0.14062723  0.83753053  1
  H+  H72  1  0.72426587  0.09895089  0.84306168  1
  H+  H73  1  0.57191377  0.45795594  0.66349218  1
  H+  H74  1  0.62307591  0.41688896  0.49114941  1
  H+  H75  1  0.64807685  0.11818196  0.49695610  1
  H+  H76  1  0.34136578  0.66560176  0.71539097  1
  H+  H77  1  0.91894123  0.61070174  0.86588547  1
  H+  H78  1  0.58790938  0.66328609  0.77270113  1
  H+  H79  1  0.27704283  0.88250892  0.00523715  1
  H+  H80  1  0.72853163  0.35460779  0.84751603  1
  H+  H81  1  0.40254375  0.86476187  0.82935572  1
  H+  H82  1  0.64781520  0.85261837  0.82903147  1
  H+  H83  1  0.77917841  0.88222807  0.33860574  1
  H+  H84  1  0.97077786  0.61628840  0.32902697  1
  H+  H85  1  0.53124787  0.40764786  0.49422224  1
  H+  H86  1  0.61295140  0.21420701  0.14402222  1
  H+  H87  1  0.62878029  0.00867780  0.99668498  1
  H+  H88  1  0.76587255  0.12570240  1.01130241  1
  H+  H89  1  0.89620614  0.87903284  0.83321999  1
  H+  H90  1  0.38248868  0.39443878  0.33765738  1
  H+  H91  1  0.88883711  0.11512497  0.83484947  1
  H+  H92  1  0.64344251  0.76784435  0.33001832  1
  H+  H93  1  0.11036113  0.97437348  0.00448071  1
  H+  H94  1  0.12858601  0.91388489  0.82457858  1
  H+  H95  1  0.46822117  0.34635825  0.16610926  1
  H+  H96  1  0.36126390  -0.02688748  1.00727781  1
  H+  H97  1  0.61071534  0.22133954  0.33736513  1
  H+  H98  1  0.86081476  0.21375164  0.83158193  1
  H+  H99  1  0.51931786  0.37968863  1.00211782  1
  H+  H100  1  0.76799279  0.48009598  0.63259927  1
  H+  H101  1  0.87899523  0.11431623  0.99430687  1
  H+  H102  1  0.31316095  0.16864724  0.36539692  1
  H+  H103  1  0.10851417  0.83808825  0.33043663  1
  H+  H104  1  0.38203035  0.76063699  0.49931563  1
  H+  H105  1  0.74084336  0.12958801  0.32816463  1
  H+  H106  1  0.72466965  0.87199681  0.67032830  1
  H+  H107  1  0.88229595  0.34346777  0.84249190  1
  H+  H108  1  0.44808569  0.98651528  0.78908813  1
  H+  H109  1  0.70373464  0.42545984  0.28552075  1
  H+  H110  1  0.85741184  0.71418669  0.15600138  1
  H+  H111  1  0.85636103  0.22067696  0.49982252  1
  H+  H112  1  0.60896413  0.88325114  0.49711375  1
  H+  H113  1  0.35162795  0.14183563  1.00288936  1
  H+  H114  1  0.19327798  0.61766012  0.95009706  1
  H+  H115  1  0.77918946  0.14214408  0.67416789  1
  H+  H116  1  0.79733932  0.48009173  1.03474165  1
  H+  H117  1  0.12113753  0.88590645  0.49189225  1
  H+  H118  1  0.09480429  0.42100352  0.39975914  1
  H+  H119  1  0.86823364  0.48220782  0.34163861  1
  H+  H120  1  0.25673629  0.14708876  0.83353803  1
  H+  H121  1  0.18666474  0.82215292  0.83436364  1
  H+  H122  1  0.14823623  0.27297958  0.18643971  1
  H+  H123  1  0.00326699  0.12919157  0.15628681  1
  H+  H124  1  0.36023128  0.21895766  0.16619696  1
  H+  H125  1  0.09252291  0.95542889  0.33621078  1
  H+  H126  1  0.35551799  0.98000280  0.18974494  1
  H+  H127  1  0.98915470  0.87281452  0.50400300  1
  H+  H128  1  0.22930894  0.85704397  0.50325301  1
  H+  H129  1  0.71655474  0.35663788  0.16850516  1
  H+  H130  1  0.76818461  0.62583611  0.16122383  1
  H+  H131  1  0.84633833  0.62442310  0.34148484  1
  H+  H132  1  0.14152107  0.86801061  0.99552354  1
  H+  H133  1  1.01728135  0.87647760  0.15819831  1
  H+  H134  1  0.77762994  0.88416000  0.82229580  1
  H+  H135  1  0.62037790  0.37029094  0.32239010  1
  H+  H136  1  0.87991447  0.85065204  0.32862968  1
  H+  H137  1  0.64093132  0.26491448  0.85734890  1
  H+  H138  1  0.38902039  0.86560329  0.98760647  1
  H+  H139  1  0.27960826  0.38774078  0.65959828  1
  H+  H140  1  0.33572123  0.66451697  0.43216301  1
  H+  H141  1  0.99309423  0.52253038  0.69196957  1
  H+  H142  1  0.43336578  0.84809840  0.35443017  1
  H+  H143  1  0.15709236  0.60505484  0.49711785  1
  H+  H144  1  0.27628996  0.21736854  0.27836397  1
  H+  H145  1  0.69000115  0.37499219  0.56243793  1
  H+  H146  1  0.96095302  0.50847849  0.66659541  1
  H+  H147  1  0.60408497  0.46853194  0.15966494  1
  H+  H148  1  0.60296332  0.21803160  0.00137021  1
  H+  H149  1  1.02397313  0.64040872  1.02018892  1
  H+  H150  1  0.90199532  0.21422615  0.13842552  1
  H+  H151  1  1.02061105  0.38269942  0.67037742  1
  H+  H152  1  0.47527277  0.09741342  0.34178011  1
  H+  H153  1  0.47898112  0.36500246  0.83116949  1
  H+  H154  1  0.47695900  0.62291753  0.00149968  1
  H+  H155  1  0.33059261  0.63013132  0.99239639  1
  H+  H156  1  0.86387264  0.97800781  0.82317397  1
  H+  H157  1  0.14347882  0.49556204  0.80648202  1
  H+  H158  1  0.65655403  0.03869210  0.32817110  1
  H+  H159  1  0.26216720  0.63262441  0.33774021  1
  H+  H160  1  0.86342213  0.34233077  -0.00317525  1
  H+  H161  1  0.13226318  0.26778914  0.51485924  1
  H+  H162  1  0.38419801  0.36122383  0.64567602  1
  H+  H163  1  0.40667436  0.23735962  0.50397863  1
  H+  H164  1  0.33787145  0.11290077  0.68230997  1
  H+  H165  1  0.47873053  0.61366941  0.65713606  1
  H+  H166  1  0.36716392  0.75686540  0.32779327  1
  H+  H167  1  -0.02781725  0.60518838  0.18089784  1
  H+  H168  1  0.55892634  0.90028076  0.33549133  1
  H+  H169  1  0.46965111  0.85341179  0.49844710  1
  H+  H170  1  0.61864272  0.89162471  0.71743180  1
  H+  H171  1  0.77514330  0.65016900  0.49614820  1
  H+  H172  1  0.82980373  0.15950097  0.07357739  1
  H+  H173  1  0.13559795  0.05944392  0.25983331  1
  H+  H174  1  0.13477892  0.86054995  0.17534916  1
  H+  H175  1  0.11027563  0.09032202  0.31960667  1
  H+  H176  1  0.89524375  0.36607587  0.33455932  1
  H+  H177  1  0.36836358  0.87744866  0.66540310  1
  H+  H178  1  0.46378985  0.34405493  0.65283665  1
  H+  H179  1  0.01034577  0.12806439  0.00247201  1
  H+  H180  1  0.98569439  0.87861944  0.83389004  1
  H+  H181  1  0.26615813  0.23433621  0.30645958  1
  H+  H182  1  0.14908044  0.77410682  0.65704915  1
  H+  H183  1  0.38162690  0.33310222  0.49710610  1
  H+  H184  1  0.13134304  0.19303803  0.73414598  1
  H+  H185  1  0.13399283  0.66935984  0.68367752  1
  H+  H186  1  0.60868680  0.73120080  0.68373839  1
  H+  H187  1  0.63654030  0.51657472  0.83745100  1
  H+  H188  1  0.00830079  0.87237051  0.66952736  1
  H+  H189  1  0.14051684  0.27412524  0.33496148  1
  H+  H190  1  0.11806784  0.36739979  0.82364373  1
  H+  H191  1  0.83273937  0.59751253  0.89471145  1
  H+  H192  1  0.49176582  0.61933220  0.84766800  1
  H+  H193  1  0.51758211  0.88144005  0.00690984  1
  H+  H194  1  -0.01636419  0.11914450  0.66714899  1
  H+  H195  1  0.38995462  0.52300017  0.32617958  1
  H+  H196  1  0.35313890  0.63280797  0.33351998  1
  H+  H197  1  0.12769117  0.11398369  0.16200174  1
  H+  H198  1  0.34544082  0.36555569  0.00605894  1
  H+  H199  1  0.25709745  0.34125375  0.48770597  1
  H+  H200  1  0.89340390  0.03104561  0.66157389  1
  H+  H201  1  0.62520218  0.13270234  0.14502012  1
  H+  H202  1  0.12018388  1.00678298  0.66151548  1
  H+  H203  1  0.89062553  0.53403379  0.50345610  1
  H+  H204  1  0.09312280  0.36626856  0.00982574  1
  H+  H205  1  0.16316203  1.02196482  0.50914245  1
  H+  H206  1  0.11896205  0.10497634  -0.00946768  1
  H+  H207  1  0.14581734  0.12844665  0.49466202  1
  H+  H208  1  1.00614068  0.86592269  0.34410352  1
  H+  H209  1  0.55083727  0.15882609  0.58432400  1
  H+  H210  1  0.14787149  0.52567735  0.64339924  1
  H+  H211  1  0.74697774  0.38276152  1.01330199  1
  H+  H212  1  0.83688235  0.66051578  0.80775105  1
  H+  H213  1  0.87032192  0.60587122  1.01175310  1
  H+  H214  1  0.14783621  0.58193419  0.78292472  1
  H+  H215  1  0.34089850  0.95937330  0.34400348  1
  H+  H216  1  0.97764833  0.86164793  0.98963975  1
  H+  H217  1  0.60959065  0.12210527  0.86169378  1
  H+  H218  1  0.63979237  0.54066124  0.51155664  1
  H+  H219  1  0.09723857  0.10734625  0.84476338  1
  H+  H220  1  0.57392190  0.45603489  0.33882878  1
  H+  H221  1  0.81841298  0.41418174  0.10656470  1
  H+  H222  1  0.61188063  0.97372375  0.48994526  1
  H+  H223  1  0.88134674  0.14613469  0.49754611  1
  H+  H224  1  0.10580134  0.71613672  0.17613314  1
  H+  H225  1  0.74337657  0.39092204  0.66307265  1
  H+  H226  1  0.38750865  0.28215557  0.97657715  1
  H+  H227  1  0.60479860  0.37930407  0.15630600  1
  H+  H228  1  0.21410007  0.10935999  0.16850682  1
  H+  H229  1  0.11913476  0.26291473  0.98642096  1
  H+  H230  1  0.87250913  0.10277644  0.16501116  1
  H+  H231  1  0.35339885  0.87044115  0.48921914  1
  H+  H232  1  0.36121046  0.88662415  0.17776328  1
  H+  H233  1  1.12100302  0.38987303  0.48758663  1
  H+  H234  1  0.20109239  0.73399511  0.80558144  1
  H+  H235  1  0.87391343  0.23469031  0.34282095  1
  H+  H236  1  0.28745265  0.38463589  0.33649715  1
  H+  H237  1  0.85716239  0.96449525  0.16334804  1
  H+  H238  1  0.63205903  0.77699407  0.51488872  1
  H+  H239  1  0.21060924  0.11098902  0.98181019  1
  H+  H240  1  0.62302267  -0.03121551  0.82094374  1
  H+  H241  1  0.83433854  0.34824331  0.69094550  1
  H+  H242  1  0.11763388  0.72537764  0.51913890  1
  H+  H243  1  0.11852678  0.65612185  0.71764239  1
  H+  H244  1  0.03489700  0.59541115  0.81858380  1
  H+  H245  1  0.26156807  0.91446942  0.84399380  1
  H+  H246  1  0.82913085  0.48735499  0.83036958  1
  H+  H247  1  0.88266894  0.02191450  0.32415325  1
  H+  H248  1  0.99807973  0.11857057  0.51068685  1
  H+  H249  1  0.57772183  0.15153202  0.05608538  1
  H+  H250  1  0.71534624  0.87023217  0.51840374  1
  H+  H251  1  0.64872147  0.31926317  0.22194722  1
  H+  H252  1  0.84355187  0.17169708  0.40101513  1
  H+  H253  1  0.00377414  0.36437549  0.01188896  1
  H+  H254  1  0.86234890  0.64705727  0.49032472  1
  H+  H255  1  0.13129730  0.61744800  0.33211151  1
  H+  H256  1  0.46791974  0.12072694  0.85963656  1
  H+  H257  1  0.63376760  0.60769396  0.17469656  1
  H+  H258  1  0.61271826  0.37650245  0.82277528  1
  H+  H259  1  0.37093343  0.72269911  0.81366468  1
  H+  H260  1  0.45583110  0.10796922  0.65078673  1
  H+  H261  1  0.62417501  0.85136971  -0.01180848  1
  H+  H262  1  0.38406616  0.77143009  0.64978724  1
  H+  H263  1  0.27778626  0.38395487  0.16848722  1
  H+  H264  1  0.00645490  0.75040376  0.70816910  1
  H+  H265  1  0.27791388  0.63411779  0.65607570  1
  H+  H266  1  0.20793283  0.34606180  0.99387920  1
  H+  H267  1  0.72708514  0.85923158  0.17146901  1
  H+  H268  1  0.89893616  0.50010963  -0.00692739  1
  H+  H269  1  0.67143102  0.55789833  0.68038576  1
  H+  H270  1  0.40773088  0.58580376  0.09201426  1
  H+  H271  1  0.39051821  0.61275720  0.64838341  1
  H+  H272  1  0.65325584  0.86182535  0.33066293  1
  H+  H273  1  0.52640179  0.63781921  0.14885114  1
  H+  H274  1  0.78150143  0.40518114  0.49050533  1
  H+  H275  1  0.36663914  0.48745309  0.83908997  1
  H+  H276  1  0.62516757  0.63112469  0.82826085  1
  H+  H277  1  0.59075603  0.23023739  0.63524007  1
  H+  H278  1  0.13380152  0.52731413  0.33406267  1
  H+  H279  1  0.63281985  0.41630855  0.66219588  1
  H+  H280  1  0.13569708  0.27321702  0.66019784  1
  H+  H281  1  0.38734751  0.03643365  0.83788132  1
  H+  H282  1  0.13130304  0.36067128  0.65909513  1
  H+  H283  1  0.88224490  0.60484085  0.17629934  1
  H+  H284  1  0.62102129  0.65327407  0.49752362  1
  H+  H285  1  0.88374181  0.80159350  0.65017216  1
  H+  H286  1  0.62912302  0.09828947  0.99135181  1
  H+  H287  1  0.36918203  0.47499018  0.65589935  1
  H+  H288  1  0.41622890  0.59070560  0.94559038  1
  H+  H289  1  0.06698798  0.89847244  0.73247634  1
  H+  H290  1  0.47949454  0.87264966  0.17714039  1
  H+  H291  1  0.83178206  0.70948979  0.72348771  1
  H+  H292  1  0.90529332  0.31572878  0.90472678  1
  H+  H293  1  0.06898966  0.62115879  0.77117402  1
  H+  H294  1  0.18010805  0.21512360  0.46109071  1
  H+  H295  1  0.65854178  0.82343236  0.93020467  1
  H+  H296  1  0.67084150  0.83101981  0.23217603  1
  H+  H297  1  0.90890949  0.57888572  0.27073501  1
  H+  H298  1  0.89755667  0.32419218  0.61233421  1
  H+  H299  1  0.67208215  0.59961488  0.57169882  1
  H+  H300  1  0.92638877  0.85798956  0.58978996  1
  H+  H301  1  0.65905293  0.32849471  0.93961542  1
  H+  H302  1  0.91966944  0.84044593  0.93123567  1
  H+  H303  1  0.03564600  0.33364613  0.09336835  1
  H+  H304  1  0.88028104  0.59105513  0.58984433  1
  H+  H305  1  0.48450785  0.85447391  0.82994719  1
  H+  H306  1  0.31170604  0.37955112  0.07008627  1
  H+  H307  1  0.36249496  0.93051762  0.75274502  1
  H+  H308  1  0.97757080  0.62157075  0.51818000  1
  H+  H309  1  0.07028414  0.15900639  0.06138238  1
  H+  H310  1  0.08295612  0.91365776  0.06411919  1
  H+  H311  1  0.33145145  0.13788199  0.50816107  1
  H+  H312  1  0.41608360  0.58445365  0.26851550  1
  H+  H313  1  0.38398208  0.28220690  0.83562046  1
  H+  H314  1  0.66582363  0.06170533  0.90314963  1
  H+  H315  1  0.42455304  0.34962226  0.92318229  1
  H+  H316  1  0.90364833  0.07681215  0.22738605  1
  H+  H317  1  0.14071765  0.08250077  0.89795190  1
  H+  H318  1  0.42247019  0.84209374  0.23809560  1
  H+  H319  1  0.47452372  0.15619178  0.49930152  1
  H+  H320  1  0.37715449  0.18318600  0.42059548  1
  H+  H321  1  0.36422632  0.47114162  0.14860349  1
  H+  H322  1  0.10261018  0.73647082  0.02098224  1
  H+  H323  1  0.91018643  0.81875850  0.23036111  1
  H+  H324  1  0.68495827  0.09570570  0.59327795  1
  H+  H325  1  0.08161154  0.40547360  0.72773660  1
  H+  H326  1  0.65311412  0.84082216  0.61973556  1
  H+  H327  1  0.55894409  0.10358091  0.74975243  1
  H+  H328  1  0.04985275  0.22298707  0.13238962  1
  H+  H329  1  0.17451699  0.84204038  0.93699351  1
  H+  H330  1  0.38542930  0.61344168  0.15573176  1
  H+  H331  1  0.16672943  0.33272213  0.57022505  1
  H+  H332  1  0.18395988  0.57896424  0.57980337  1
  H+  H333  1  0.18357586  0.07625206  0.57021685  1
  H+  H334  1  0.58628251  0.67014925  0.40363687  1
  H+  H335  1  0.00065617  0.12257718  0.78159363  1
  H+  H336  1  0.27265308  0.62642410  0.49245362  1
  H+  H337  1  0.81730284  0.65809188  0.39942908  1
  H+  H338  1  0.31568792  0.19111184  0.04529206  1
  H+  H339  1  0.70461997  0.58940442  0.33160457  1
  H+  H340  1  0.81070131  0.38937846  0.74643067  1
  H+  H341  1  0.31533704  0.89567981  0.43226046  1
  H+  H342  1  0.16325064  0.33041626  0.89497458  1
  H+  H343  1  0.58553202  0.40879541  0.76288328  1
  H+  H344  1  0.16620420  0.58301395  0.23894089  1
  H+  H345  1  0.85423874  0.47048489  0.16751090  1
  H+  H346  1  0.59419924  0.66824764  0.06528875  1
  H+  H347  1  0.01819625  0.67457431  0.73503584  1
  H+  H348  1  0.27947610  0.88178120  0.67501320  1
  H+  H349  1  0.73292171  0.11006113  0.49648475  1
  H+  H350  1  0.83561697  0.92413882  0.39761078  1
  H+  H351  1  0.17474627  0.84096046  0.56484581  1
  H+  H352  1  0.88183559  0.85207064  0.17234825  1
  H+  H353  1  0.56048146  0.06309509  0.74420524  1
  H+  H354  1  0.93930513  0.09634140  0.57043567  1
  H+  H355  1  0.83091526  0.15673208  0.77024395  1
  H+  H356  1  0.16737429  0.58251380  0.88333638  1
  H+  H357  1  0.83849458  0.92643562  0.72829164  1
  H+  H358  1  0.39794272  0.08336602  0.94196774  1
  H+  H359  1  0.34342450  0.13988895  0.12105268  1
  H+  H360  1  0.42841899  0.58763014  0.55703064  1
  H+  H361  1  0.17837075  0.33189802  0.24548354  1
  H+  H362  1  0.42286484  0.83461796  0.93010929  1
  H+  H363  1  0.31104256  0.36233133  0.42605836  1
  H+  H364  1  0.82434126  0.61480142  0.07103303  1
  H+  H365  1  0.58617055  0.17731534  0.43507178  1
  H+  H366  1  0.65029889  0.76491145  0.83558314  1
  H+  H367  1  0.40907284  0.83135894  0.59148194  1
  H+  H368  1  0.40042797  0.06602830  0.25804481  1
  H+  H369  1  0.84556232  0.42560291  0.43464345  1
  H+  H370  1  0.30924862  0.14881271  0.74062761  1
  H+  H371  1  0.77936611  0.98401025  0.45661329  1
  H+  H372  1  0.07257230  0.66755477  0.11430934  1
  H+  H373  1  0.65604739  0.57106711  0.23394417  1
  H+  H374  1  0.60105115  0.92132793  0.40211621  1
  H+  H375  1  0.95829933  0.55125042  0.93647683  1
  H+  H376  1  0.67198238  0.58199625  0.89394930  1
  H+  H377  1  0.83544856  0.90847021  0.10301605  1
  H+  H378  1  0.08870228  0.91640436  0.43411726  1
  H+  H379  1  0.91149796  0.08636210  0.93436374  1
  H+  H380  1  0.42333394  0.33131126  0.56269411  1
  H+  H381  1  0.78969379  0.27083394  0.55234296  1
  H+  H382  1  0.61540749  0.72555828  0.16305612  1
  H+  H383  1  0.07742255  0.15181316  0.39501825  1
  O2-  O384  1  0.06067368  0.17325158  0.13871915  1
  O2-  O385  1  0.12484065  0.16512668  0.47406371  1
  O2-  O386  1  0.00813766  0.13267562  0.82568030  1
  O2-  O387  1  0.01915140  0.29583446  0.13212180  1
  O2-  O388  1  0.09627489  0.42309904  0.46985990  1
  O2-  O389  1  0.08401512  0.39572390  0.80481947  1
  O2-  O390  1  0.07489888  0.65714547  0.15945673  1
  O2-  O391  1  0.08367721  0.66066677  0.52237098  1
  O2-  O392  1  0.00668535  0.57117933  0.86141996  1
  O2-  O393  1  0.07817370  0.90815187  0.14325872  1
  O2-  O394  1  0.09598468  0.92228804  0.47927601  1
  O2-  O395  1  0.09009394  0.93223182  0.80626815  1
  O2-  O396  1  0.32499776  0.15165948  0.15966473  1
  O2-  O397  1  0.38909625  0.17507061  0.49078478  1
  O2-  O398  1  0.31700572  0.17310338  0.81949555  1
  O2-  O399  1  0.33468514  0.40731586  0.14739551  1
  O2-  O400  1  0.29053759  0.32294461  0.46147850  1
  O2-  O401  1  0.33106605  0.42818476  0.82305103  1
  O2-  O402  1  0.34456976  0.65846566  0.19201718  1
  O2-  O403  1  0.33889515  0.66525104  0.47703949  1
  O2-  O404  1  0.35165220  0.66564255  0.79492072  1
  O2-  O405  1  0.32664089  0.91643341  0.16918032  1
  O2-  O406  1  0.32087396  0.89979536  0.47709479  1
  O2-  O407  1  0.38654734  0.95009276  0.79690002  1
  O2-  O408  1  0.59107438  0.15634747  0.12633066  1
  O2-  O409  1  0.59730681  0.18846315  0.48015465  1
  O2-  O410  1  0.58048490  0.15483960  0.87482379  1
  O2-  O411  1  0.57273987  0.40874835  0.14334047  1
  O2-  O412  1  0.59211954  0.44812930  0.48278112  1
  O2-  O413  1  0.58277940  0.40671350  0.80791777  1
  O2-  O414  1  0.59031316  0.66544272  0.14757187  1
  O2-  O415  1  0.59161980  0.68301231  0.47976943  1
  O2-  O416  1  0.59585338  0.66595210  0.81765824  1
  O2-  O417  1  0.58255079  0.91643665  0.14848372  1
  O2-  O418  1  0.58372849  0.91388563  0.47378341  1
  O2-  O419  1  0.59487611  0.90926683  0.80237223  1
  O2-  O420  1  0.84262412  0.16504977  0.13775879  1
  O2-  O421  1  0.84235899  0.16513639  0.48009621  1
  O2-  O422  1  0.83139722  0.15310357  0.81611134  1
  O2-  O423  1  0.81904627  0.41019400  0.15184434  1
  O2-  O424  1  0.84336109  0.42685189  0.48029124  1
  O2-  O425  1  0.84310894  0.44083496  0.82383071  1
  O2-  O426  1  0.82772733  0.65204142  0.14458078  1
  O2-  O427  1  0.83243915  0.67756740  0.47533098  1
  O2-  O428  1  0.83127480  0.70644016  0.78775534  1
  O2-  O429  1  0.82920980  0.90335897  0.14943584  1
  O2-  O430  1  0.80842666  0.95402682  0.47137180  1
  O2-  O431  1  0.83774667  0.91988255  0.80471576  1
  O2-  O432  1  0.15110841  0.07833612  0.17696947  1
  O2-  O433  1  0.19761113  0.08159200  0.52612069  1
  O2-  O434  1  0.13980685  0.08894603  0.85225132  1
  O2-  O435  1  0.17971225  0.33298595  0.20002388  1
  O2-  O436  1  0.16633034  0.32919224  0.52434937  1
  O2-  O437  1  0.16838739  0.33178198  0.84983984  1
  O2-  O438  1  0.17555629  0.58433272  0.19437418  1
  O2-  O439  1  0.18791185  0.57675959  0.51205530  1
  O2-  O440  1  0.17971736  0.56101808  0.80671561  1
  O2-  O441  1  0.16599505  0.83289620  0.19344754  1
  O2-  O442  1  0.16787562  0.83080101  0.52050661  1
  O2-  O443  1  0.20031129  0.87734304  0.85238385  1
  O2-  O444  1  0.39347706  0.06160658  0.21267212  1
  O2-  O445  1  0.51414231  0.13332896  0.51024935  1
  O2-  O446  1  0.40411164  0.08965636  0.86145174  1
  O2-  O447  1  0.40657032  0.31148555  0.17817556  1
  O2-  O448  1  0.42996119  0.32892840  0.51597046  1
  O2-  O449  1  0.42028233  0.34299033  0.84847070  1
  O2-  O450  1  0.41525472  0.58336780  0.13597428  1
  O2-  O451  1  0.43351334  0.59265918  0.51190452  1
  O2-  O452  1  0.43121741  0.59432124  0.86211509  1
  O2-  O453  1  0.41911247  0.84397281  0.19327404  1
  O2-  O454  1  0.40976111  0.82346413  0.51322904  1
  O2-  O455  1  0.42474485  0.82817556  0.84549968  1
  O2-  O456  1  0.68120066  0.08544888  0.18128431  1
  O2-  O457  1  0.67179451  0.08168561  0.51023823  1
  O2-  O458  1  0.66356579  0.06468905  0.85733618  1
  O2-  O459  1  0.65285369  0.32129918  0.17731472  1
  O2-  O460  1  0.68105133  0.36299688  0.51780142  1
  O2-  O461  1  0.66788635  0.32862467  0.85937456  1
  O2-  O462  1  0.66135207  0.57396773  0.18886327  1
  O2-  O463  1  0.67388347  0.60246285  0.52683372  1
  O2-  O464  1  0.66855820  0.57787526  0.84834416  1
  O2-  O465  1  0.66603155  0.83158559  0.18719228  1
  O2-  O466  1  0.65605751  0.83609604  0.53388051  1
  O2-  O467  1  0.68093221  0.82824999  0.84760300  1
  O2-  O468  1  0.90230530  0.07073884  0.18247452  1
  O2-  O469  1  0.93893562  0.09695858  0.52466964  1
  O2-  O470  1  0.92008514  0.08288848  0.84972354  1
  O2-  O471  1  0.83760381  0.28784241  0.21361508  1
  O2-  O472  1  0.84933937  0.30077685  0.53872995  1
  O2-  O473  1  0.91213288  0.31523562  0.85914211  1
  O2-  O474  1  0.90979640  0.57325953  0.19403846  1
  O2-  O475  1  0.91309259  0.59340525  0.51943217  1
  O2-  O476  1  0.85860008  0.59296932  0.85693203  1
  O2-  O477  1  0.91222365  0.82018169  0.18505275  1
  O2-  O478  1  0.92894885  0.84816918  0.51881383  1
  O2-  O479  1  0.92568153  0.84822376  0.84928370  1
  O2-  O480  1  0.13334437  0.05382886  0.30456389  1
  O2-  O481  1  0.15199977  0.06770998  0.65053067  1
  O2-  O482  1  0.14867046  0.07516423  0.97155588  1
  O2-  O483  1  0.17804013  0.33496915  0.32236470  1
  O2-  O484  1  0.16376200  0.33185219  0.64364498  1
  O2-  O485  1  0.14968581  0.32456269  0.97461282  1
  O2-  O486  1  0.16407392  0.58817618  0.31939404  1
  O2-  O487  1  0.18049451  0.58433428  0.62708875  1
  O2-  O488  1  0.14455402  0.59437165  0.92076788  1
  O2-  O489  1  0.13890324  0.81003235  0.31090198  1
  O2-  O490  1  0.17448614  0.83499928  0.64711839  1
  O2-  O491  1  0.17120857  0.83611662  0.98139114  1
  O2-  O492  1  0.41307153  0.07034980  0.33251195  1
  O2-  O493  1  0.39278820  0.07348504  0.65019020  1
  O2-  O494  1  0.40067765  0.08776463  0.98710029  1
  O2-  O495  1  0.46065650  0.35224679  0.32488511  1
  O2-  O496  1  0.41083485  0.32620296  0.63006288  1
  O2-  O497  1  0.42207975  0.34448114  0.96885736  1
  O2-  O498  1  0.41717054  0.58460159  0.31285608  1
  O2-  O499  1  0.42235197  0.58254574  0.63592416  1
  O2-  O500  1  0.41497102  0.59614895  0.99038260  1
  O2-  O501  1  0.39893314  0.82233498  0.31825571  1
  O2-  O502  1  0.40954275  0.83278346  0.63685392  1
  O2-  O503  1  0.41997660  0.83395429  0.97495596  1
  O2-  O504  1  0.67962106  0.09816952  0.31319116  1
  O2-  O505  1  0.69156543  0.11452972  0.63605588  1
  O2-  O506  1  0.66094409  0.06890292  0.97859062  1
  O2-  O507  1  0.67073775  0.36846447  0.30370332  1
  O2-  O508  1  0.71997715  0.41914410  0.63451938  1
  O2-  O509  1  0.65315554  0.31989179  0.98433195  1
  O2-  O510  1  0.64394195  0.56062269  0.31620632  1
  O2-  O511  1  0.67117346  0.60158142  0.65415899  1
  O2-  O512  1  0.67921391  0.59663268  0.96685960  1
  O2-  O513  1  0.67802391  0.82786873  0.31342325  1
  O2-  O514  1  0.66094299  0.84091851  0.66439458  1
  O2-  O515  1  0.64877963  0.81592174  0.97443010  1
  O2-  O516  1  0.91217249  0.08214374  0.30854732  1
  O2-  O517  1  0.92699493  0.09307586  0.64719151  1
  O2-  O518  1  0.91120531  0.08534858  0.97910234  1
  O2-  O519  1  0.92159901  0.33352864  0.31736050  1
  O2-  O520  1  0.91032716  0.32805148  0.65648034  1
  O2-  O521  1  0.89211454  0.31322099  0.97977962  1
  O2-  O522  1  0.90824526  0.58008261  0.31646820  1
  O2-  O523  1  0.85513914  0.58497875  0.63184148  1
  O2-  O524  1  0.94139369  0.55773352  0.97760983  1
  O2-  O525  1  0.90497764  0.81621404  0.31241911  1
  O2-  O526  1  0.92454444  0.86260267  0.63618200  1
  O2-  O527  1  0.91729942  0.83620392  0.97610527  1
  O2-  O528  1  0.07217331  0.15573800  0.01612520  1
  O2-  O529  1  0.07505824  0.16101845  0.35099071  1
  O2-  O530  1  0.09391945  0.16392089  0.69961320  1
  O2-  O531  1  0.05790688  0.38433840  0.03434386  1
  O2-  O532  1  0.09611519  0.42093294  0.35268113  1
  O2-  O533  1  0.08224888  0.41087883  0.68247271  1
  O2-  O534  1  0.05917336  0.69004668  0.04666140  1
  O2-  O535  1  0.07633320  0.67186627  0.34561484  1
  O2-  O536  1  -0.02084887  0.68756118  0.71235841  1
  O2-  O537  1  0.08661655  0.91410712  0.01879148  1
  O2-  O538  1  0.06783871  0.89804021  0.35686989  1
  O2-  O539  1  0.06031539  0.87515997  0.69038071  1
  O2-  O540  1  0.31815002  0.17346932  0.00384267  1
  O2-  O541  1  0.37327762  0.18813544  0.37442698  1
  O2-  O542  1  0.29925176  0.13468189  0.69693515  1
  O2-  O543  1  0.29421787  0.35834697  0.02795952  1
  O2-  O544  1  0.34751918  0.41912547  0.35247992  1
  O2-  O545  1  0.34147199  0.41350078  0.66802140  1
  O2-  O546  1  0.29369016  0.65648568  -0.00763415  1
  O2-  O547  1  0.32557758  0.66475082  0.34948221  1
  O2-  O548  1  0.34002695  0.66650939  0.67016579  1
  O2-  O549  1  0.33919053  0.91184452  0.01579034  1
  O2-  O550  1  0.30342185  0.89688952  0.35179196  1
  O2-  O551  1  0.34072714  0.90981967  0.68730060  1
  O2-  O552  1  0.57074139  0.15404781  0.00968805  1
  O2-  O553  1  0.58924863  0.16611563  0.35780355  1
  O2-  O554  1  0.57057392  0.16984889  0.62762198  1
  O2-  O555  1  0.57637491  0.39626023  0.02041636  1
  O2-  O556  1  0.54731027  0.39386359  0.35154023  1
  O2-  O557  1  0.58259214  0.41579127  0.68345558  1
  O2-  O558  1  0.58578443  0.66223573  0.02068040  1
  O2-  O559  1  0.58573215  0.66637166  0.35771805  1
  O2-  O560  1  0.57713099  0.66921698  0.69512417  1
  O2-  O561  1  0.57877891  0.91232978  0.02178903  1
  O2-  O562  1  0.61400180  0.92876901  0.35645216  1
  O2-  O563  1  0.59799972  0.92820699  0.73706905  1
  O2-  O564  1  0.82679864  0.16044913  0.02422582  1
  O2-  O565  1  0.84090564  0.17220258  0.35581985  1
  O2-  O566  1  0.83661687  0.16539978  0.69533012  1
  O2-  O567  1  0.80368416  0.42780393  0.03157000  1
  O2-  O568  1  0.84023773  0.42147693  0.35856637  1
  O2-  O569  1  0.78711514  0.35471711  0.70933944  1
  O2-  O570  1  0.81404823  0.58439986  0.03121113  1
  O2-  O571  1  0.81099582  0.65059115  0.35402747  1
  O2-  O572  1  0.82608658  0.71000527  0.67550257  1
  O2-  O573  1  0.84815562  0.92064027  0.03310262  1
  O2-  O574  1  0.84014066  0.91758495  0.35327292  1
  O2-  O575  1  0.83560056  0.93119970  0.68292118  1
