# generated using pymatgen
data_H2O
_symmetry_space_group_name_H-M   'P 1'
_cell_length_a   17.97243542
_cell_length_b   17.98625489
_cell_length_c   21.98828026
_cell_angle_alpha   90.02877240
_cell_angle_beta   89.98590492
_cell_angle_gamma   119.97194076
_symmetry_Int_Tables_number   1
_chemical_formula_structural   H2O
_chemical_formula_sum   'H384 O192'
_cell_volume   6157.32731539
_cell_formula_units_Z   192
loop_
 _symmetry_equiv_pos_site_id
 _symmetry_equiv_pos_as_xyz
  1  'x, y, z'
loop_
 _atom_type_symbol
 _atom_type_oxidation_number
  H+  1.0
  O2-  -2.0
loop_
 _atom_site_type_symbol
 _atom_site_label
 _atom_site_symmetry_multiplicity
 _atom_site_fract_x
 _atom_site_fract_y
 _atom_site_fract_z
 _atom_site_occupancy
  H+  H0  1  0.13105807  0.61921678  0.32836916  1
  H+  H1  1  0.16714710  0.03869962  1.01133670  1
  H+  H2  1  0.90145329  0.09871297  0.99113532  1
  H+  H3  1  0.66336367  0.16409782  0.81215438  1
  H+  H4  1  0.89636233  0.29859715  0.16130097  1
  H+  H5  1  0.12401600  0.24705519  0.15551412  1
  H+  H6  1  0.72218873  0.08121963  0.98880126  1
  H+  H7  1  0.29038985  0.88727402  0.65194866  1
  H+  H8  1  0.88091229  0.64089496  0.32499169  1
  H+  H9  1  0.88184566  0.75262460  0.83503395  1
  H+  H10  1  0.13687424  0.65851063  0.69373262  1
  H+  H11  1  0.80121383  0.92933566  0.84099292  1
  H+  H12  1  0.89453805  0.27899686  0.50321118  1
  H+  H13  1  0.13186295  0.11344403  0.66966277  1
  H+  H14  1  0.49402191  0.83961172  0.66722308  1
  H+  H15  1  0.01995905  0.63092177  0.00403448  1
  H+  H16  1  0.89576257  0.64357339  0.84169898  1
  H+  H17  1  0.70817802  0.08328255  0.15989965  1
  H+  H18  1  0.14263312  0.39905183  0.66230821  1
  H+  H19  1  0.36370640  0.98101568  0.49829415  1
  H+  H20  1  0.87665561  0.26856455  0.82109994  1
  H+  H21  1  0.35503466  0.48299853  0.82678058  1
  H+  H22  1  0.92134696  0.02604140  0.15825254  1
  H+  H23  1  0.13371132  0.78063522  0.50401987  1
  H+  H24  1  0.25422754  0.86191960  0.01256413  1
  H+  H25  1  0.63457835  0.78699429  0.33955693  1
  H+  H26  1  0.26007077  0.63685318  0.33764171  1
  H+  H27  1  0.64482999  0.65699150  0.49891942  1
  H+  H28  1  0.37785583  0.25943505  0.32538754  1
  H+  H29  1  0.59319150  0.27408668  0.99378038  1
  H+  H30  1  0.37047428  0.13399025  0.67780075  1
  H+  H31  1  0.56449858  0.37991973  0.00380316  1
  H+  H32  1  0.86237304  0.62666564  0.16721156  1
  H+  H33  1  0.03390164  0.63343521  0.49715584  1
  H+  H34  1  0.55371284  0.13210151  0.00035688  1
  H+  H35  1  0.13940413  0.20081074  0.65141757  1
  H+  H36  1  0.12954424  0.36559693  0.83479545  1
  H+  H37  1  0.89714854  0.59503819  0.50903392  1
  H+  H38  1  0.62047616  0.14359596  0.33646737  1
  H+  H39  1  0.62149391  0.62881109  0.66715263  1
  H+  H40  1  0.71482081  0.60252256  0.01029802  1
  H+  H41  1  0.60298900  0.68035222  0.81939424  1
  H+  H42  1  0.12112623  0.48632662  0.49136613  1
  H+  H43  1  0.38478894  0.50710457  0.16552797  1
  H+  H44  1  0.39232646  0.53322680  0.66280990  1
  H+  H45  1  0.35438313  0.61722451  0.15908598  1
  H+  H46  1  0.10730743  0.47641210  0.16446658  1
  H+  H47  1  0.58604521  0.87452691  0.81974732  1
  H+  H48  1  0.11601622  0.73882160  0.83576466  1
  H+  H49  1  0.88626222  0.35872810  0.35392636  1
  H+  H50  1  0.88757479  0.61975932  -0.00624987  1
  H+  H51  1  0.51767314  0.88818606  0.33965763  1
  H+  H52  1  0.98507115  0.61740850  0.32476168  1
  H+  H53  1  0.11273403  0.47568288  0.33720328  1
  H+  H54  1  0.88549481  0.85941834  0.66785215  1
  H+  H55  1  0.90438248  0.21823015  0.23102464  1
  H+  H56  1  0.37982402  0.36089101  0.66718641  1
  H+  H57  1  0.69385409  0.49247700  0.81390522  1
  H+  H58  1  0.92379629  0.60396610  0.90183546  1
  H+  H59  1  0.62388392  0.23299669  0.49166162  1
  H+  H60  1  0.22038085  0.60545880  0.17515840  1
  H+  H61  1  0.36579831  0.74561953  -0.00056734  1
  H+  H62  1  0.40590643  0.33049280  0.60723403  1
  H+  H63  1  0.90659387  0.01544264  0.97992008  1
  H+  H64  1  0.61128258  0.63224665  0.16965233  1
  H+  H65  1  0.88030831  0.30147540  -0.02814624  1
  H+  H66  1  0.70616619  0.15688497  0.98224941  1
  H+  H67  1  0.46361988  0.84687821  0.17539027  1
  H+  H68  1  0.12900834  0.36596501  0.50441781  1
  H+  H69  1  0.12810604  0.30654387  0.66941744  1
  H+  H70  1  0.83102081  0.42110107  0.40573124  1
  H+  H71  1  0.61973696  0.71867837  0.66849988  1
  H+  H72  1  0.61033344  0.89619813  0.34252714  1
  H+  H73  1  0.92871617  0.78951037  0.93803624  1
  H+  H74  1  0.36646638  0.74349831  0.48723354  1
  H+  H75  1  0.35938666  -0.04225426  0.16576610  1
  H+  H76  1  0.46801671  0.87177309  0.51072467  1
  H+  H77  1  0.14005871  0.14641406  0.01357141  1
  H+  H78  1  0.61143070  0.37348694  0.33707560  1
  H+  H79  1  0.45187286  0.83851683  0.00209222  1
  H+  H80  1  0.10710917  0.38338125  0.98201595  1
  H+  H81  1  0.39271586  0.10980124  0.86460959  1
  H+  H82  1  0.85688912  0.19919687  0.22588736  1
  H+  H83  1  0.53123985  0.14447895  0.34473111  1
  H+  H84  1  0.62149666  0.86392319  1.00201955  1
  H+  H85  1  0.61233577  0.18467692  0.72388429  1
  H+  H86  1  0.27546741  0.40389740  0.67479267  1
  H+  H87  1  0.53256731  0.58486739  0.39351629  1
  H+  H88  1  0.37777399  0.87047040  0.51032315  1
  H+  H89  1  0.88219425  0.51683965  0.16544701  1
  H+  H90  1  0.84588805  0.67475996  0.73808258  1
  H+  H91  1  0.97451597  0.35721591  0.35191633  1
  H+  H92  1  0.36865524  0.35025204  0.49827681  1
  H+  H93  1  0.36054441  0.88408313  0.32789630  1
  H+  H94  1  0.88019655  0.76213700  0.32142034  1
  H+  H95  1  0.47689254  0.35678131  0.16868858  1
  H+  H96  1  0.46763893  0.34690003  0.32282402  1
  H+  H97  1  0.47428950  0.08891194  0.18350086  1
  H+  H98  1  0.13902059  0.28019085  0.82821002  1
  H+  H99  1  0.98056553  0.96562577  0.09966767  1
  H+  H100  1  0.37679856  -0.02811503  0.65673064  1
  H+  H101  1  0.13334861  0.76207096  0.99788782  1
  H+  H102  1  0.61791508  0.90635833  0.49390770  1
  H+  H103  1  0.58308566  0.96297458  0.02049924  1
  H+  H104  1  0.59769364  0.87520723  0.16985773  1
  H+  H105  1  0.36573280  0.36259652  0.84233189  1
  H+  H106  1  0.68179793  0.55553848  0.57320327  1
  H+  H107  1  0.11957410  0.61073331  0.84395190  1
  H+  H108  1  0.35319791  0.61681623  0.00583018  1
  H+  H109  1  0.02833907  0.39881020  0.49172466  1
  H+  H110  1  0.35760610  0.21812022  0.83720533  1
  H+  H111  1  0.91378571  0.27707887  0.65722648  1
  H+  H112  1  0.24088737  0.09911436  0.85080321  1
  H+  H113  1  0.12825401  0.64715668  0.49077938  1
  H+  H114  1  0.21488355  0.59920726  0.99365776  1
  H+  H115  1  0.35590859  0.70738955  0.16047238  1
  H+  H116  1  0.45792945  0.70798615  0.47524148  1
  H+  H117  1  0.76995630  0.38641930  0.14514962  1
  H+  H118  1  0.33929381  0.39553996  0.09820172  1
  H+  H119  1  0.55688603  0.15952260  0.10337827  1
  H+  H120  1  0.13817515  0.86630724  0.66373819  1
  H+  H121  1  0.60263939  0.37804181  0.66756546  1
  H+  H122  1  0.61825581  0.80632930  0.94645985  1
  H+  H123  1  -0.00742347  0.37594361  0.65612723  1
  H+  H124  1  0.26506749  0.39392749  0.82505297  1
  H+  H125  1  0.77488037  0.88546506  0.33953492  1
  H+  H126  1  0.39466716  0.03238350  0.33605455  1
  H+  H127  1  0.34112623  0.62411212  0.33187572  1
  H+  H128  1  1.00560859  0.91480966  0.50779299  1
  H+  H129  1  0.13921577  0.51169237  0.69111882  1
  H+  H130  1  0.34760557  0.93412591  0.27606295  1
  H+  H131  1  0.32259265  0.64345000  0.06719006  1
  H+  H132  1  0.35132680  0.49529861  0.31720519  1
  H+  H133  1  0.92861301  0.54462071  0.67732887  1
  H+  H134  1  0.86091083  0.37895571  0.49642688  1
  H+  H135  1  0.35993487  0.97559100  0.85925398  1
  H+  H136  1  0.39801179  0.51616466  0.97811484  1
  H+  H137  1  0.56485558  0.90255692  0.07829617  1
  H+  H138  1  0.62896167  0.27022211  0.65422603  1
  H+  H139  1  0.02369043  0.88362002  0.68689988  1
  H+  H140  1  0.85960280  0.39084038  0.12800451  1
  H+  H141  1  0.90968189  0.03984488  0.83164807  1
  H+  H142  1  0.48265717  0.12222468  0.66300987  1
  H+  H143  1  0.59794982  0.96541758  0.16488627  1
  H+  H144  1  0.65729648  0.81412623  0.82851058  1
  H+  H145  1  0.38099988  0.76653657  0.32954282  1
  H+  H146  1  0.12899701  0.99998309  0.18437735  1
  H+  H147  1  0.15211841  0.03309660  0.50561167  1
  H+  H148  1  0.72504428  0.35959532  0.50371347  1
  H+  H149  1  0.88789177  0.92507960  0.07310861  1
  H+  H150  1  0.60347340  0.12874520  0.66566116  1
  H+  H151  1  0.88497271  0.37278504  0.69257005  1
  H+  H152  1  0.61021697  0.47201488  0.15655869  1
  H+  H153  1  0.87543349  0.52724033  -0.01787066  1
  H+  H154  1  0.64106683  0.49730007  0.32846622  1
  H+  H155  1  0.40691570  0.51960598  0.50573293  1
  H+  H156  1  0.10707062  0.62578553  0.00555603  1
  H+  H157  1  0.24043245  0.63523279  0.73798644  1
  H+  H158  1  0.98313691  0.85011353  0.17706024  1
  H+  H159  1  0.59493163  0.99317244  0.65007729  1
  H+  H160  1  1.02867554  0.14740887  0.15415767  1
  H+  H161  1  0.23181901  0.35920522  0.16649081  1
  H+  H162  1  0.78604364  0.62850733  0.32520521  1
  H+  H163  1  0.12789140  0.35285282  0.32119596  1
  H+  H164  1  0.37213053  0.22305265  0.13218343  1
  H+  H165  1  0.86550127  0.90112087  0.49666617  1
  H+  H166  1  0.97663253  0.10420122  0.31876181  1
  H+  H167  1  0.68413670  0.36139540  -0.01043388  1
  H+  H168  1  -0.00735234  0.64213399  0.83895047  1
  H+  H169  1  0.11162893  0.87252276  0.15828196  1
  H+  H170  1  0.76447682  0.87802465  0.49192030  1
  H+  H171  1  0.48156433  0.33947580  0.81911557  1
  H+  H172  1  0.61624477  0.00691937  0.83579984  1
  H+  H173  1  0.90425001  0.61857342  0.66537548  1
  H+  H174  1  0.24889131  0.62626812  0.49827212  1
  H+  H175  1  0.08014206  0.66139802  0.09916441  1
  H+  H176  1  0.86364083  0.71750337  0.16789869  1
  H+  H177  1  0.35080237  0.36787442  0.32540103  1
  H+  H178  1  0.63310409  0.02838408  0.32165525  1
  H+  H179  1  0.87649237  0.85734919  0.32666841  1
  H+  H180  1  0.71869359  0.50703695  0.78476779  1
  H+  H181  1  0.22279475  0.87220626  0.31915243  1
  H+  H182  1  0.39202707  0.11949081  0.34508410  1
  H+  H183  1  0.86168521  0.13264939  0.33314605  1
  H+  H184  1  0.63886872  0.32215938  0.89348363  1
  H+  H185  1  0.77670123  0.12830410  0.81751788  1
  H+  H186  1  0.79065286  0.66564728  0.84036158  1
  H+  H187  1  0.04117536  0.15250366  0.81554490  1
  H+  H188  1  0.47580636  0.60959435  -0.00634979  1
  H+  H189  1  0.39516093  0.12474146  0.50644988  1
  H+  H190  1  1.02054691  0.38803504  0.97090803  1
  H+  H191  1  0.33782531  0.62937602  0.81734610  1
  H+  H192  1  0.13382818  0.61128448  0.17335746  1
  H+  H193  1  0.39730240  0.15417881  0.03579127  1
  H+  H194  1  0.78917522  0.87684412  -0.00959134  1
  H+  H195  1  0.10375513  0.11282261  0.34485079  1
  H+  H196  1  0.36294609  0.37214674  0.16074335  1
  H+  H197  1  0.72442309  0.60730789  0.17660142  1
  H+  H198  1  0.70817148  0.85279960  0.17914028  1
  H+  H199  1  0.25588208  0.12816725  1.01699608  1
  H+  H200  1  0.12081787  0.88424994  1.00569584  1
  H+  H201  1  0.27354633  0.89478032  0.49655805  1
  H+  H202  1  0.59847466  0.32309528  0.83025320  1
  H+  H203  1  0.88804770  0.01755795  0.31754693  1
  H+  H204  1  0.89465709  0.52727623  0.32866120  1
  H+  H205  1  0.72125392  1.00075645  0.87344481  1
  H+  H206  1  0.64749646  0.59975263  0.84788407  1
  H+  H207  1  0.24848689  0.62595793  0.83142048  1
  H+  H208  1  0.51602034  0.38403714  0.66842999  1
  H+  H209  1  0.24523867  0.34749171  0.47943913  1
  H+  H210  1  0.84496427  1.00259778  0.51399608  1
  H+  H211  1  0.08937660  0.43345033  0.73637675  1
  H+  H212  1  0.00614500  0.88605843  0.84955129  1
  H+  H213  1  0.88278426  0.35603303  0.79987302  1
  H+  H214  1  0.90483188  0.86233617  0.16662465  1
  H+  H215  1  0.61374171  0.73148233  0.02023851  1
  H+  H216  1  0.56975663  0.41335522  0.09705274  1
  H+  H217  1  0.14275323  0.88810286  0.32271097  1
  H+  H218  1  0.11654058  0.96811505  0.68452757  1
  H+  H219  1  0.62967209  0.35023320  0.50097556  1
  H+  H220  1  0.43321498  0.58556842  0.32675040  1
  H+  H221  1  0.86204755  0.22114987  0.34893317  1
  H+  H222  1  0.72906314  0.12351610  0.49460647  1
  H+  H223  1  0.84019543  0.08824525  0.14178302  1
  H+  H224  1  0.35946586  0.21722157  0.68200860  1
  H+  H225  1  0.37204558  0.84050352  0.17330869  1
  H+  H226  1  0.83736104  0.39715727  -0.01878307  1
  H+  H227  1  0.65868279  0.59089091  0.34074413  1
  H+  H228  1  0.80290262  0.03433963  0.56307109  1
  H+  H229  1  0.87946271  0.74777052  0.50816075  1
  H+  H230  1  0.63480210  0.78739602  0.85640930  1
  H+  H231  1  0.86664133  0.46883803  0.50346687  1
  H+  H232  1  0.84698106  0.71733696  0.02576150  1
  H+  H233  1  0.62307441  0.84724913  0.66076039  1
  H+  H234  1  0.61857338  0.65000174  0.52702421  1
  H+  H235  1  0.25779768  0.36248621  0.32435851  1
  H+  H236  1  0.28232705  0.14863050  0.50378049  1
  H+  H237  1  0.79966050  0.53646862  0.43593383  1
  H+  H238  1  0.02032751  0.63115151  0.15837521  1
  H+  H239  1  0.21068048  0.09088950  0.19136319  1
  H+  H240  1  0.38420419  0.65604218  0.63313060  1
  H+  H241  1  0.35467965  0.88460085  0.84555927  1
  H+  H242  1  0.10952823  0.38879107  0.15822123  1
  H+  H243  1  0.87661788  0.87865961  -0.02820453  1
  H+  H244  1  0.87118398  0.13939721  0.82187268  1
  H+  H245  1  0.87392521  0.90149843  0.83818568  1
  H+  H246  1  0.51835220  0.62647082  0.16788607  1
  H+  H247  1  0.13245515  0.76448924  0.17385693  1
  H+  H248  1  0.64524779  0.27605971  0.32298420  1
  H+  H249  1  0.93600316  0.23428654  0.02499357  1
  H+  H250  1  0.12292148  0.26034049  0.31888514  1
  H+  H251  1  0.09400641  0.17884715  0.09106505  1
  H+  H252  1  0.89582495  0.14364077  0.67310500  1
  H+  H253  1  0.14049510  0.86463239  0.85412405  1
  H+  H254  1  0.60417215  0.13057840  0.15233242  1
  H+  H255  1  0.12736859  0.98024432  0.84390682  1
  H+  H256  1  0.83517124  0.91315160  0.39808348  1
  H+  H257  1  0.48129154  0.11960741  0.50398776  1
  H+  H258  1  0.61241022  0.79482636  0.50355567  1
  H+  H259  1  0.09775862  0.47225036  0.83000707  1
  H+  H260  1  0.49469591  0.86756776  0.82660620  1
  H+  H261  1  0.43916367  0.54771523  0.57280912  1
  H+  H262  1  0.99639214  0.09860629  0.65748655  1
  H+  H263  1  0.73487165  0.57035277  0.51014285  1
  H+  H264  1  0.98399887  0.37173799  0.13285804  1
  H+  H265  1  0.26704164  0.11973459  0.35372337  1
  H+  H266  1  0.87152164  0.72688155  0.67647953  1
  H+  H267  1  0.46414877  0.60654187  0.82820656  1
  H+  H268  1  0.91701103  0.75920635  0.48747610  1
  H+  H269  1  0.51630762  0.37790742  0.49125126  1
  H+  H270  1  0.24053285  0.09861287  0.66738839  1
  H+  H271  1  0.77659000  0.39386752  0.34270916  1
  H+  H272  1  0.11978552  0.90125763  0.48654803  1
  H+  H273  1  0.36348499  0.75622429  0.83927826  1
  H+  H274  1  0.10800181  0.22793631  0.49602988  1
  H+  H275  1  0.15334345  0.04080906  0.28637939  1
  H+  H276  1  0.37080299  0.23767713  0.50205378  1
  H+  H277  1  0.61343800  0.45408437  0.49615137  1
  H+  H278  1  0.63948099  0.51419157  0.66602617  1
  H+  H279  1  1.04585182  0.13624975  1.00378378  1
  H+  H280  1  0.63388617  0.61698323  0.00720983  1
  H+  H281  1  0.11103827  0.73929173  0.34096797  1
  H+  H282  1  0.63670176  0.36129073  0.16645804  1
  H+  H283  1  0.43936874  0.42314578  0.53531574  1
  H+  H284  1  0.01144384  0.38179761  0.81909029  1
  H+  H285  1  0.66463658  0.25314187  0.81241236  1
  H+  H286  1  0.57058649  0.63951804  0.33445220  1
  H+  H287  1  0.23450866  0.86899539  0.85601053  1
  H+  H288  1  0.53847208  0.36195803  0.75856900  1
  H+  H289  1  0.92507080  0.33538988  0.56466557  1
  H+  H290  1  0.08433725  0.68203055  0.77271456  1
  H+  H291  1  0.15881743  0.83938561  0.56349358  1
  H+  H292  1  0.57805866  0.40009983  0.39767354  1
  H+  H293  1  0.83257710  0.63142103  0.41799966  1
  H+  H294  1  0.65659314  0.07172946  0.89371144  1
  H+  H295  1  0.08156275  0.90471925  0.09944667  1
  H+  H296  1  0.39026869  0.79592819  0.59521661  1
  H+  H297  1  0.18185311  0.06943780  0.60566643  1
  H+  H298  1  0.58251065  0.92825422  0.43262784  1
  H+  H299  1  0.66144111  0.83893162  0.56568284  1
  H+  H300  1  0.42236925  0.09109202  0.92820067  1
  H+  H301  1  0.15850747  0.58570434  0.26904260  1
  H+  H302  1  0.28908593  0.37536902  -0.02564310  1
  H+  H303  1  0.41561783  0.07221603  0.24111351  1
  H+  H304  1  0.67384507  0.33530024  0.26288098  1
  H+  H305  1  0.08620251  0.67793720  0.40005081  1
  H+  H306  1  0.68297851  0.60967646  0.91539634  1
  H+  H307  1  0.14418091  0.78225630  0.66038693  1
  H+  H308  1  0.32028686  0.89446898  0.07727520  1
  H+  H309  1  0.16673270  0.32876356  0.22527432  1
  H+  H310  1  0.66381933  0.57012892  0.23444807  1
  H+  H311  1  0.63438129  1.02930656  0.49246255  1
  H+  H312  1  0.42589552  0.09729688  0.60198871  1
  H+  H313  1  0.09327652  0.42114428  0.39783915  1
  H+  H314  1  0.34572236  0.85475752  1.01427003  1
  H+  H315  1  0.33088625  0.17019963  0.40883313  1
  H+  H316  1  0.25605350  0.64194054  0.66792228  1
  H+  H317  1  0.41135610  0.82109541  0.26884467  1
  H+  H318  1  0.07911668  0.15688058  0.39698531  1
  H+  H319  1  0.34040665  0.15904960  0.77908387  1
  H+  H320  1  0.04446974  0.65024092  0.67777028  1
  H+  H321  1  0.39885295  0.80898801  0.90220060  1
  H+  H322  1  0.63167441  0.13092219  0.49167190  1
  H+  H323  1  0.15932725  0.82931080  0.23239814  1
  H+  H324  1  0.89603456  0.34565211  0.90610729  1
  H+  H325  1  0.82998089  0.16117896  0.42933778  1
  H+  H326  1  0.30127592  0.36838041  0.41750983  1
  H+  H327  1  0.14878723  0.57795111  0.90273284  1
  H+  H328  1  0.14845151  0.11948187  0.51418051  1
  H+  H329  1  0.63238501  0.05418465  0.59299960  1
  H+  H330  1  0.57132918  0.63729981  0.75553347  1
  H+  H331  1  0.12393357  0.51108715  0.98758951  1
  H+  H332  1  0.81397000  0.42348118  0.04506930  1
  H+  H333  1  0.04497379  0.90085884  -0.01168332  1
  H+  H334  1  0.10399360  0.17674762  0.75883027  1
  H+  H335  1  0.72600509  0.11245592  0.32032308  1
  H+  H336  1  0.33191825  0.42698254  0.73531459  1
  H+  H337  1  0.93003604  0.57864191  0.57369161  1
  H+  H338  1  0.70939423  0.92704037  0.91959211  1
  H+  H339  1  0.59467544  0.17324584  0.42857833  1
  H+  H340  1  0.91227960  0.83120164  0.26119643  1
  H+  H341  1  0.66294606  0.33481193  0.59877183  1
  H+  H342  1  0.08687276  0.91778828  0.78166110  1
  H+  H343  1  0.92134753  0.07090995  0.60684076  1
  H+  H344  1  0.41431985  0.59181262  0.89117295  1
  H+  H345  1  0.38412575  0.33982273  0.90695107  1
  H+  H346  1  0.89377160  0.27156296  0.06803880  1
  H+  H347  1  0.19427022  0.60066274  0.55858115  1
  H+  H348  1  0.02580581  0.13519693  0.49553318  1
  H+  H349  1  0.71849591  0.85861663  0.66241078  1
  H+  H350  1  0.84827973  0.13147328  0.49434263  1
  H+  H351  1  0.86466281  0.96731154  0.67826686  1
  H+  H352  1  0.58127376  0.66936040  0.07810932  1
  H+  H353  1  0.63550638  0.27227155  0.16892636  1
  H+  H354  1  0.85207974  0.17192584  0.72320474  1
  H+  H355  1  0.94020227  0.09900461  0.88994685  1
  H+  H356  1  0.93661693  0.38829341  0.24779738  1
  H+  H357  1  0.40029779  0.56082330  0.22700412  1
  H+  H358  1  0.43208685  0.38298201  1.02400885  1
  H+  H359  1  0.10459927  0.94778054  0.42666593  1
  H+  H360  1  0.15869148  0.33982527  0.56543730  1
  H+  H361  1  0.26444946  0.87272052  0.16321356  1
  H+  H362  1  0.82091388  0.13590402  0.08939998  1
  H+  H363  1  0.18859003  0.07524478  0.91342745  1
  H+  H364  1  0.41280227  0.31618968  0.22540415  1
  H+  H365  1  0.91635230  0.57089991  0.22908878  1
  H+  H366  1  0.92605028  0.07568903  0.22137707  1
  H+  H367  1  0.58022876  0.47425418  1.00947280  1
  H+  H368  1  0.66058668  0.07728374  0.22396310  1
  H+  H369  1  0.15029962  0.27959918  0.98412523  1
  H+  H370  1  0.33994946  0.68216319  0.42694952  1
  H+  H371  1  0.48662690  0.61543576  0.65681646  1
  H+  H372  1  0.62441089  0.75993408  0.18310979  1
  H+  H373  1  0.52204187  0.69794522  0.43163470  1
  H+  H374  1  0.16883260  0.82698270  0.93907101  1
  H+  H375  1  0.83035454  0.91047698  0.73762848  1
  H+  H376  1  0.82886869  0.65426303  0.08018325  1
  H+  H377  1  0.17036540  0.33298994  0.92141614  1
  H+  H378  1  0.73177500  0.60342586  0.66819253  1
  H+  H379  1  0.66027352  0.83104564  0.27417214  1
  H+  H380  1  0.92959256  0.84835521  0.60861622  1
  H+  H381  1  0.98390045  0.96819568  0.55273323  1
  H+  H382  1  0.88909629  0.37183744  0.24588153  1
  H+  H383  1  0.54863237  0.88725580  0.72594690  1
  O2-  O384  1  0.09010654  0.18272463  0.13813501  1
  O2-  O385  1  0.08489875  0.16718202  0.48108336  1
  O2-  O386  1  0.10212378  0.18680527  0.80261817  1
  O2-  O387  1  0.07802877  0.41802092  0.14582432  1
  O2-  O388  1  0.08883632  0.42604019  0.47630083  1
  O2-  O389  1  0.07489120  0.41447850  0.81085227  1
  O2-  O390  1  0.08156291  0.66332395  0.14474436  1
  O2-  O391  1  0.09117815  0.67085917  0.47791011  1
  O2-  O392  1  0.07844370  0.67871210  0.81883428  1
  O2-  O393  1  0.07796280  0.90084550  0.14461391  1
  O2-  O394  1  0.09758192  0.94004501  0.47315199  1
  O2-  O395  1  0.08656939  0.91701095  0.82744423  1
  O2-  O396  1  0.34272679  0.16402702  0.11499226  1
  O2-  O397  1  0.34197205  0.17895972  0.48600503  1
  O2-  O398  1  0.33742426  0.15830646  0.82426058  1
  O2-  O399  1  0.33267545  0.40193053  0.14261083  1
  O2-  O400  1  0.29237037  0.34374710  0.45903034  1
  O2-  O401  1  0.32668201  0.42281050  0.81094855  1
  O2-  O402  1  0.32348456  0.64722048  0.14459543  1
  O2-  O403  1  0.34763809  0.68368977  0.47190899  1
  O2-  O404  1  0.30408362  0.65818134  0.80851474  1
  O2-  O405  1  0.32474740  0.89893240  0.14659014  1
  O2-  O406  1  0.33456497  0.92059816  0.48416470  1
  O2-  O407  1  0.32445719  0.91727483  0.84009597  1
  O2-  O408  1  0.57251773  0.16234140  0.14699111  1
  O2-  O409  1  0.59413958  0.17028090  0.47499511  1
  O2-  O410  1  0.67280729  0.21182152  0.78609064  1
  O2-  O411  1  0.58061314  0.41170643  0.14190086  1
  O2-  O412  1  0.57487352  0.39716969  0.47457685  1
  O2-  O413  1  0.51680164  0.32335116  0.79430763  1
  O2-  O414  1  0.58081479  0.66367914  0.15659429  1
  O2-  O415  1  0.51962461  0.72743710  0.46817201  1
  O2-  O416  1  0.56188997  0.62588256  0.80067053  1
  O2-  O417  1  0.56704984  0.90287705  0.15157223  1
  O2-  O418  1  0.58725088  0.93606576  0.47800456  1
  O2-  O419  1  0.55402725  0.90280062  0.80754284  1
  O2-  O420  1  0.79287910  0.08863357  0.11901926  1
  O2-  O421  1  0.82698739  0.16716648  0.47480166  1
  O2-  O422  1  0.83680430  0.16406762  0.80430304  1
  O2-  O423  1  0.82718553  0.42238673  0.12503781  1
  O2-  O424  1  0.83083892  0.41109554  0.48401364  1
  O2-  O425  1  0.93688555  0.48404722  0.72889697  1
  O2-  O426  1  0.83038680  0.65691765  0.15360320  1
  O2-  O427  1  0.82006757  0.59311029  0.45365095  1
  O2-  O428  1  0.85017012  0.69132183  0.82165427  1
  O2-  O429  1  0.92095199  0.94372923  0.11202798  1
  O2-  O430  1  0.82445034  0.91479216  0.47564622  1
  O2-  O431  1  0.84858309  0.93153730  0.81603484  1
  O2-  O432  1  0.15388934  0.05367100  0.20869954  1
  O2-  O433  1  0.18009584  0.09046408  0.52776865  1
  O2-  O434  1  0.18179881  0.06433854  0.86926151  1
  O2-  O435  1  0.16949722  0.33100440  0.17962711  1
  O2-  O436  1  0.15251155  0.32967144  0.52084010  1
  O2-  O437  1  0.16444749  0.33923186  0.84818608  1
  O2-  O438  1  0.16094124  0.57993826  0.19206043  1
  O2-  O439  1  0.18770662  0.59561372  0.51449076  1
  O2-  O440  1  0.14637225  0.57652994  0.85700485  1
  O2-  O441  1  0.16326546  0.82634355  0.18678138  1
  O2-  O442  1  0.15953656  0.84117238  0.51776385  1
  O2-  O443  1  0.16869211  0.83216242  0.86859473  1
  O2-  O444  1  0.42191056  0.04423343  0.20456593  1
  O2-  O445  1  0.42290565  0.09201292  0.52128036  1
  O2-  O446  1  0.41605847  0.07628783  0.88424957  1
  O2-  O447  1  0.41474692  0.32243600  0.18032108  1
  O2-  O448  1  0.41936412  0.36116598  0.52545333  1
  O2-  O449  1  0.38758229  0.32819964  0.86382432  1
  O2-  O450  1  0.41208821  0.56709475  0.18222083  1
  O2-  O451  1  0.44866430  0.52220584  0.53511707  1
  O2-  O452  1  0.40667019  0.58937387  0.84640239  1
  O2-  O453  1  0.40278389  0.81130494  0.18952649  1
  O2-  O454  1  0.40730578  0.83629321  0.52258355  1
  O2-  O455  1  0.40105748  0.81505387  0.85739461  1
  O2-  O456  1  0.65167278  0.06794078  0.17907701  1
  O2-  O457  1  0.66558388  0.09312230  0.50715221  1
  O2-  O458  1  0.66727413  0.06013935  0.85167055  1
  O2-  O459  1  0.66968671  0.33370411  0.18170158  1
  O2-  O460  1  0.66328273  0.32270807  0.51556068  1
  O2-  O461  1  0.64956431  0.32409817  0.84962741  1
  O2-  O462  1  0.66287771  0.57783752  0.18978408  1
  O2-  O463  1  0.67828386  0.53874433  0.52962286  1
  O2-  O464  1  0.69880556  0.63221719  0.87307511  1
  O2-  O465  1  0.65174175  0.82190327  0.19826297  1
  O2-  O466  1  0.66394171  0.84711645  0.52039259  1
  O2-  O467  1  0.74439792  0.96329440  0.88584145  1
  O2-  O468  1  0.93224238  0.08150638  0.17579840  1
  O2-  O469  1  0.85563169  0.05387356  0.53957451  1
  O2-  O470  1  0.93701462  0.10105103  0.84516704  1
  O2-  O471  1  0.91762401  0.33568072  0.12552473  1
  O2-  O472  1  0.92394458  0.33860491  0.51895661  1
  O2-  O473  1  0.90368879  0.33119094  0.83127733  1
  O2-  O474  1  0.91419400  0.57578804  0.18389590  1
  O2-  O475  1  0.93085246  0.57165200  0.52816619  1
  O2-  O476  1  0.92766769  0.61185765  0.85550805  1
  O2-  O477  1  0.92144213  0.82644822  0.19112356  1
  O2-  O478  1  0.95727413  0.91177953  0.53365484  1
  O2-  O479  1  0.93831053  0.85652649  0.86665162  1
  O2-  O480  1  0.15632792  0.04694160  0.33200286  1
  O2-  O481  1  0.17913363  0.06481544  0.65092806  1
  O2-  O482  1  0.19661389  0.09941902  0.99853601  1
  O2-  O483  1  0.15326681  0.31956861  0.30227646  1
  O2-  O484  1  0.16431754  0.35908476  0.64680750  1
  O2-  O485  1  0.17971746  0.33830038  0.96709849  1
  O2-  O486  1  0.15856482  0.58559503  0.31471432  1
  O2-  O487  1  0.20871339  0.62015996  0.69876471  1
  O2-  O488  1  0.15503976  0.57535248  0.97842234  1
  O2-  O489  1  0.16053479  0.84523171  0.30883121  1
  O2-  O490  1  0.16563083  0.83909018  0.64043891  1
  O2-  O491  1  0.16765601  0.82456802  0.98601231  1
  O2-  O492  1  0.42800101  0.09547613  0.32956501  1
  O2-  O493  1  0.42199348  0.09338780  0.64709960  1
  O2-  O494  1  0.43939626  0.11415637  1.00901655  1
  O2-  O495  1  0.40842891  0.31766828  0.30607696  1
  O2-  O496  1  0.40502391  0.32596247  0.65217458  1
  O2-  O497  1  0.37008825  0.36715451  1.02909061  1
  O2-  O498  1  0.37901649  0.55727789  0.30366451  1
  O2-  O499  1  0.42649096  0.58897456  0.64067580  1
  O2-  O500  1  0.41852145  0.57872446  0.97405251  1
  O2-  O501  1  0.41455417  0.82727555  0.31413806  1
  O2-  O502  1  0.38985470  0.76977456  0.63603122  1
  O2-  O503  1  0.39229815  0.80794730  0.98616093  1
  O2-  O504  1  0.66601413  0.08726869  0.30405420  1
  O2-  O505  1  0.62845066  0.05379910  0.63730885  1
  O2-  O506  1  0.67794635  0.09470722  0.97701044  1
  O2-  O507  1  0.67402764  0.33692938  0.30839422  1
  O2-  O508  1  0.65333740  0.33192827  0.64293461  1
  O2-  O509  1  0.62269662  0.33386099  0.97845295  1
  O2-  O510  1  0.67655371  0.55996636  0.31361147  1
  O2-  O511  1  0.67334794  0.57518074  0.65005358  1
  O2-  O512  1  0.65778684  0.58123001  0.99108101  1
  O2-  O513  1  0.66789121  0.84224932  0.31929127  1
  O2-  O514  1  0.66050742  0.82530361  0.64379952  1
  O2-  O515  1  0.65436090  0.83933090  0.98075410  1
  O2-  O516  1  0.91817031  0.07604693  0.29974961  1
  O2-  O517  1  0.93302472  0.06968993  0.65066415  1
  O2-  O518  1  0.93834234  0.07890406  0.97363548  1
  O2-  O519  1  0.91186116  0.32180375  0.35957814  1
  O2-  O520  1  0.93302589  0.33756180  0.64199945  1
  O2-  O521  1  0.90044153  0.35677098  0.95115723  1
  O2-  O522  1  0.92493234  0.58468193  0.30781375  1
  O2-  O523  1  0.93957575  0.59438307  0.64941679  1
  O2-  O524  1  0.91530364  0.59058280  0.97304137  1
  O2-  O525  1  0.90559468  0.82564853  0.30781624  1
  O2-  O526  1  0.92125722  0.83469401  0.65248303  1
  O2-  O527  1  0.94478128  0.85024624  0.93381253  1
  O2-  O528  1  0.10273648  0.17279020  0.02317547  1
  O2-  O529  1  0.07808165  0.14990594  0.35217945  1
  O2-  O530  1  0.10362844  0.15044860  0.67616840  1
  O2-  O531  1  0.07300434  0.40980446  -0.00434957  1
  O2-  O532  1  0.08920129  0.41584150  0.35249505  1
  O2-  O533  1  0.10114908  0.44781659  0.69181075  1
  O2-  O534  1  0.07939392  0.65946214  0.02080768  1
  O2-  O535  1  0.08377290  0.67820667  0.35444344  1
  O2-  O536  1  0.10027588  0.68530398  0.69959361  1
  O2-  O537  1  0.09178868  0.91730458  0.01798720  1
  O2-  O538  1  0.11470180  0.95679583  0.35383899  1
  O2-  O539  1  0.08270125  0.91074991  0.70448387  1
  O2-  O540  1  0.35747136  0.18147632  0.04922345  1
  O2-  O541  1  0.32784666  0.16214087  0.36367311  1
  O2-  O542  1  0.33361075  0.15687725  0.69617170  1
  O2-  O543  1  0.35398311  0.40219387  -0.02648466  1
  O2-  O544  1  0.31803412  0.39605945  0.34007117  1
  O2-  O545  1  0.33534214  0.42824756  0.68945294  1
  O2-  O546  1  0.32172106  0.64556054  0.02152057  1
  O2-  O547  1  0.32251417  0.66328805  0.34932962  1
  O2-  O548  1  0.34384263  0.67769307  0.62224061  1
  O2-  O549  1  0.31672056  0.88771384  0.03026212  1
  O2-  O550  1  0.33467313  0.92100996  0.31921293  1
  O2-  O551  1  0.35233675  0.90921803  0.65596021  1
  O2-  O552  1  0.53272822  0.16431557  0.02365231  1
  O2-  O553  1  0.59436879  0.17573165  0.35584649  1
  O2-  O554  1  0.58549171  0.16904967  0.68205807  1
  O2-  O555  1  0.54165764  0.41453151  0.02396550  1
  O2-  O556  1  0.58022307  0.40355886  0.35184011  1
  O2-  O557  1  0.57573363  0.41214475  0.68429150  1
  O2-  O558  1  0.58251319  0.67064003  0.03254761  1
  O2-  O559  1  0.53369547  0.63099257  0.36934625  1
  O2-  O560  1  0.58883673  0.65746382  0.68193725  1
  O2-  O561  1  0.56244182  0.90318093  0.03194480  1
  O2-  O562  1  0.57802705  0.92488589  0.35527497  1
  O2-  O563  1  0.55294645  0.88064635  0.68148770  1
  O2-  O564  1  0.87976492  0.22713676  0.03459679  1
  O2-  O565  1  0.82770997  0.15587197  0.35249241  1
  O2-  O566  1  0.86852897  0.17886897  0.67965234  1
  O2-  O567  1  0.80802173  0.42639507  0.00011256  1
  O2-  O568  1  0.83535065  0.42800381  0.36045442  1
  O2-  O569  1  0.86888799  0.39893301  0.72732147  1
  O2-  O570  1  0.82659152  0.65697483  0.03402829  1
  O2-  O571  1  0.84607979  0.66862483  0.33888867  1
  O2-  O572  1  0.84398661  0.66755641  0.69337109  1
  O2-  O573  1  0.85140583  0.90614960  -0.00223199  1
  O2-  O574  1  0.83609805  0.91048532  0.35241369  1
  O2-  O575  1  0.82796558  0.90677558  0.69233058  1
