# generated using pymatgen
data_H2O
_symmetry_space_group_name_H-M   'P 1'
_cell_length_a   17.99694686
_cell_length_b   18.00147422
_cell_length_c   22.00395962
_cell_angle_alpha   89.99522257
_cell_angle_beta   90.01301009
_cell_angle_gamma   119.99805610
_symmetry_Int_Tables_number   1
_chemical_formula_structural   H2O
_chemical_formula_sum   'H384 O192'
_cell_volume   6173.71921035
_cell_formula_units_Z   192
loop_
 _symmetry_equiv_pos_site_id
 _symmetry_equiv_pos_as_xyz
  1  'x, y, z'
loop_
 _atom_type_symbol
 _atom_type_oxidation_number
  H+  1.0
  O2-  -2.0
loop_
 _atom_site_type_symbol
 _atom_site_label
 _atom_site_symmetry_multiplicity
 _atom_site_fract_x
 _atom_site_fract_y
 _atom_site_fract_z
 _atom_site_occupancy
  H+  H0  1  0.88213448  0.10848135  0.17457285  1
  H+  H1  1  0.73699531  0.36692460  0.15099024  1
  H+  H2  1  0.10525739  0.37071920  0.49370697  1
  H+  H3  1  1.02715776  0.63077451  0.82715851  1
  H+  H4  1  0.73323621  0.85770769  0.50258928  1
  H+  H5  1  0.24907727  0.33420007  0.15132625  1
  H+  H6  1  0.39489061  0.52908962  0.85343085  1
  H+  H7  1  0.01707115  0.37676695  0.34451659  1
  H+  H8  1  0.46852569  0.86147977  0.16014213  1
  H+  H9  1  0.13895587  0.26773891  0.49454283  1
  H+  H10  1  0.89455274  0.35838568  0.84215446  1
  H+  H11  1  0.18813839  0.10166060  0.56890897  1
  H+  H12  1  0.38693918  0.26460306  0.34675832  1
  H+  H13  1  0.41740504  0.33701808  0.60459776  1
  H+  H14  1  0.77035597  0.88867954  0.82997136  1
  H+  H15  1  0.77249186  0.39426089  0.33360127  1
  H+  H16  1  0.48607579  0.10264979  0.32827512  1
  H+  H17  1  0.90455098  0.52534298  0.84311489  1
  H+  H18  1  0.38472365  0.51843841  0.33222789  1
  H+  H19  1  0.61467189  0.64188334  0.82829912  1
  H+  H20  1  0.37299958  0.73578009  1.00761229  1
  H+  H21  1  0.28921623  0.89924042  0.51057581  1
  H+  H22  1  0.09448938  0.34255518  0.67178566  1
  H+  H23  1  0.60828414  0.14192804  0.66963521  1
  H+  H24  1  0.73312384  0.63186196  0.66477964  1
  H+  H25  1  0.61410687  0.96889920  0.15748429  1
  H+  H26  1  0.23025354  0.61004270  0.83290367  1
  H+  H27  1  0.06626534  0.92044379  0.48992056  1
  H+  H28  1  0.62944107  0.26458416  0.82624049  1
  H+  H29  1  0.52439898  0.13708464  0.50553789  1
  H+  H30  1  0.52705069  0.88863376  0.82931973  1
  H+  H31  1  0.63278066  0.00922874  0.32638623  1
  H+  H32  1  0.24940593  0.08906152  0.99048350  1
  H+  H33  1  -0.03420612  0.61372542  0.67680419  1
  H+  H34  1  0.61695227  0.38832728  0.49897679  1
  H+  H35  1  0.11125483  0.38122618  0.01607221  1
  H+  H36  1  0.13330421  0.61103358  0.17445095  1
  H+  H37  1  0.27143738  0.88624779  0.15091387  1
  H+  H38  1  0.61871546  0.13753241  0.82126125  1
  H+  H39  1  0.98797252  0.88030709  0.98799728  1
  H+  H40  1  0.02719412  0.13080730  0.49637018  1
  H+  H41  1  0.62905426  0.60558876  0.49986574  1
  H+  H42  1  0.89767689  0.37676794  0.32836471  1
  H+  H43  1  0.18320403  0.13682661  0.30537724  1
  H+  H44  1  0.52616373  0.87887186  0.34503568  1
  H+  H45  1  0.26578800  0.71164979  0.46491830  1
  H+  H46  1  0.14571759  0.27557893  0.99545138  1
  H+  H47  1  0.38487187  0.33470363  0.16376199  1
  H+  H48  1  0.61841094  0.88401527  0.49683532  1
  H+  H49  1  0.62992650  0.36463918  0.66402824  1
  H+  H50  1  0.63694760  0.86622839  0.83975886  1
  H+  H51  1  0.38774539  0.27826639  0.85281425  1
  H+  H52  1  0.38985213  0.36853068  0.50944727  1
  H+  H53  1  0.87007434  0.73578005  0.68623434  1
  H+  H54  1  1.04100963  0.13903419  1.00287190  1
  H+  H55  1  0.52312358  0.88673752  0.67712557  1
  H+  H56  1  0.90051565  0.87446918  0.66977643  1
  H+  H57  1  0.21530661  0.84709281  0.65745795  1
  H+  H58  1  0.27590061  0.63384278  0.68581045  1
  H+  H59  1  0.36987018  0.63781353  0.83302243  1
  H+  H60  1  0.12625356  0.34825420  0.17543328  1
  H+  H61  1  0.77282055  0.13016309  0.15935668  1
  H+  H62  1  0.89236622  1.05910442  0.55219864  1
  H+  H63  1  0.21456731  0.60370812  0.52618766  1
  H+  H64  1  0.91204396  0.35427156  0.59451923  1
  H+  H65  1  0.44411241  0.33131121  0.00032668  1
  H+  H66  1  0.62905378  0.60669328  0.32499300  1
  H+  H67  1  0.39932501  0.86153301  0.34577148  1
  H+  H68  1  0.90726730  0.64077577  0.98346381  1
  H+  H69  1  0.33157696  0.92068833  0.05977447  1
  H+  H70  1  0.73236372  0.86798838  0.99295343  1
  H+  H71  1  0.40121552  0.87272988  0.51763448  1
  H+  H72  1  0.12440864  0.75969862  0.32024555  1
  H+  H73  1  0.38879290  0.60894343  0.34130629  1
  H+  H74  1  0.86005434  0.25041565  0.66441327  1
  H+  H75  1  0.61376421  0.22517219  0.50079249  1
  H+  H76  1  0.48712536  0.65426073  0.18665979  1
  H+  H77  1  0.36848783  0.15713842  0.88513712  1
  H+  H78  1  0.97683272  0.11448746  0.84873744  1
  H+  H79  1  0.84972596  0.98159036  0.33199939  1
  H+  H80  1  0.61457496  0.12361910  0.34654297  1
  H+  H81  1  0.39707468  0.62517978  -0.00012475  1
  H+  H82  1  0.12425074  0.90783625  0.32797409  1
  H+  H83  1  0.37638779  0.51684156  0.64915350  1
  H+  H84  1  0.10659652  0.20443176  0.17198900  1
  H+  H85  1  0.77122334  0.13181446  1.00454195  1
  H+  H86  1  0.87770923  1.01725949  0.17703029  1
  H+  H87  1  0.39421248  0.77166339  0.33640814  1
  H+  H88  1  0.41773193  0.58710095  0.56618952  1
  H+  H89  1  0.26769430  0.63403633  0.15786926  1
  H+  H90  1  0.75919311  0.13807330  0.50825859  1
  H+  H91  1  0.86092870  0.39276953  0.48848213  1
  H+  H92  1  0.85188578  0.39665289  0.67647307  1
  H+  H93  1  0.51875669  0.63507852  0.67433890  1
  H+  H94  1  0.14821522  0.12452526  0.84900086  1
  H+  H95  1  0.30268921  0.15008038  0.34263410  1
  H+  H96  1  0.88030748  0.28402057  0.33951654  1
  H+  H97  1  0.14019985  0.61297087  0.67864592  1
  H+  H98  1  0.61638340  0.21864373  0.14773481  1
  H+  H99  1  0.11461527  0.22874877  0.83479455  1
  H+  H100  1  0.28995981  0.15108351  0.49739403  1
  H+  H101  1  0.35026906  0.74049074  0.50087029  1
  H+  H102  1  0.76407420  0.64380404  0.83148736  1
  H+  H103  1  0.98420012  0.35941607  0.84176041  1
  H+  H104  1  1.01904051  0.11621522  0.17659830  1
  H+  H105  1  0.35075309  0.37322202  0.66030062  1
  H+  H106  1  1.03332530  0.15002574  0.68126411  1
  H+  H107  1  0.52214729  0.63095708  0.34437238  1
  H+  H108  1  0.28485288  0.13674704  0.84838274  1
  H+  H109  1  0.13862900  1.09821774  0.17098925  1
  H+  H110  1  0.28899892  0.12634744  0.14915490  1
  H+  H111  1  -0.02782690  0.36351175  0.50573887  1
  H+  H112  1  0.62217556  0.73857053  0.16080366  1
  H+  H113  1  0.48267965  0.85880803  0.50972846  1
  H+  H114  1  0.51084930  0.37092117  0.15319437  1
  H+  H115  1  0.39426881  0.61781636  0.50478461  1
  H+  H116  1  0.87961900  0.52407671  0.49180135  1
  H+  H117  1  0.60878384  0.38601955  0.34991579  1
  H+  H118  1  1.02514168  0.63399179  0.15601220  1
  H+  H119  1  0.37891336  0.23826850  0.49840101  1
  H+  H120  1  0.37598906  0.12497101  0.15882251  1
  H+  H121  1  0.61285442  0.64618462  0.67394605  1
  H+  H122  1  0.09583705  0.64786511  0.46882231  1
  H+  H123  1  0.61361496  0.97090749  0.49908574  1
  H+  H124  1  0.99072881  0.63237374  0.98925407  1
  H+  H125  1  0.16923447  0.83506179  0.93452795  1
  H+  H126  1  0.12368336  0.67141029  0.32363182  1
  H+  H127  1  0.57194727  0.41053937  0.74469863  1
  H+  H128  1  0.12935325  0.25871822  0.33047969  1
  H+  H129  1  0.13155395  0.14255847  1.00680614  1
  H+  H130  1  0.88184234  0.27403691  0.16523535  1
  H+  H131  1  0.85779394  0.72042804  0.33665299  1
  H+  H132  1  0.59959431  0.38872480  0.84144185  1
  H+  H133  1  0.57347849  0.43448881  -0.00227137  1
  H+  H134  1  0.36705082  0.38612205  0.84789603  1
  H+  H135  1  0.86514255  0.03650100  0.48474961  1
  H+  H136  1  0.22967902  0.86905119  0.99301225  1
  H+  H137  1  0.10321511  0.71824561  0.67427411  1
  H+  H138  1  0.63673243  0.10470784  0.16751072  1
  H+  H139  1  0.52828840  0.63496104  0.49370625  1
  H+  H140  1  0.64168066  0.63412642  1.00137415  1
  H+  H141  1  0.26678430  0.37650738  0.34349439  1
  H+  H142  1  0.38932544  0.75760776  0.66536486  1
  H+  H143  1  0.62122957  0.34354109  0.99124726  1
  H+  H144  1  0.86574573  0.83183758  0.50181957  1
  H+  H145  1  0.16244344  0.04188013  0.32273543  1
  H+  H146  1  0.96092669  0.62010339  0.48507799  1
  H+  H147  1  0.71703764  0.85440360  0.31934299  1
  H+  H148  1  0.11903430  0.73754448  1.01232799  1
  H+  H149  1  0.66855967  0.35304281  0.79239649  1
  H+  H150  1  0.18002478  0.60595789  0.92653580  1
  H+  H151  1  0.88601657  0.26681586  0.99593316  1
  H+  H152  1  0.36019942  0.88344125  0.14884212  1
  H+  H153  1  0.60684725  0.62813552  0.16023377  1
  H+  H154  1  0.46254736  0.13505479  0.97758715  1
  H+  H155  1  0.62565008  0.50685558  0.50347173  1
  H+  H156  1  0.72258654  0.60063324  0.49369420  1
  H+  H157  1  0.66184575  0.83432278  0.60290413  1
  H+  H158  1  0.72460286  0.36686314  0.50629163  1
  H+  H159  1  0.51332054  0.39302887  0.84561109  1
  H+  H160  1  0.95555555  0.13744841  0.72312453  1
  H+  H161  1  0.74531735  0.21428428  0.37920434  1
  H+  H162  1  0.78422930  0.38239737  0.83696652  1
  H+  H163  1  0.16471700  0.57534562  0.23106056  1
  H+  H164  1  0.86211999  0.88421158  0.15992379  1
  H+  H165  1  0.66110594  0.07294038  0.22880812  1
  H+  H166  1  0.88825335  0.11533641  0.84080419  1
  H+  H167  1  0.39712618  0.12095503  0.51748825  1
  H+  H168  1  0.36285065  0.95809800  0.81263265  1
  H+  H169  1  0.82852168  0.67758459  0.76481473  1
  H+  H170  1  0.37769766  0.77552652  0.15952322  1
  H+  H171  1  0.36592293  0.65596486  0.16705621  1
  H+  H172  1  0.48001231  0.87193691  -0.00623648  1
  H+  H173  1  0.63510322  0.52810198  0.84905825  1
  H+  H174  1  0.48032136  0.37058471  0.51143671  1
  H+  H175  1  0.90412097  0.95477443  0.46868315  1
  H+  H176  1  0.63378785  0.26444082  0.34418183  1
  H+  H177  1  0.83779940  0.17413851  0.76475805  1
  H+  H178  1  0.64034626  0.02552600  0.83609640  1
  H+  H179  1  0.98864527  0.87460017  0.34280051  1
  H+  H180  1  0.87761457  0.86439256  0.84399119  1
  H+  H181  1  0.22782049  0.36378593  0.84547395  1
  H+  H182  1  0.36234440  0.47723792  0.49534162  1
  H+  H183  1  0.13879366  0.36444035  0.84101163  1
  H+  H184  1  0.61619485  -0.02056436  1.00272030  1
  H+  H185  1  0.37823207  0.99042028  0.51360843  1
  H+  H186  1  0.14046388  0.60937980  0.83155632  1
  H+  H187  1  0.16675452  0.04361554  0.50822682  1
  H+  H188  1  0.28311733  0.86680377  0.37289293  1
  H+  H189  1  0.80102345  0.18548425  0.41627701  1
  H+  H190  1  0.27613777  0.61933703  0.34321044  1
  H+  H191  1  0.85286169  0.14802748  0.49923651  1
  H+  H192  1  0.61722966  0.30316224  0.28658673  1
  H+  H193  1  0.24190052  0.63898998  -0.01509596  1
  H+  H194  1  0.40144881  1.01337627  0.33101931  1
  H+  H195  1  0.62937623  0.10682230  0.51368712  1
  H+  H196  1  0.52864410  0.12822981  0.15554013  1
  H+  H197  1  0.11623064  0.88980152  1.00219281  1
  H+  H198  1  0.27237260  0.39409404  0.00262572  1
  H+  H199  1  0.79246663  0.66651416  0.00068532  1
  H+  H200  1  0.64468683  0.76998194  0.50351254  1
  H+  H201  1  0.37141879  0.35823032  0.99639419  1
  H+  H202  1  0.86521238  0.64159130  0.68954146  1
  H+  H203  1  0.23422383  0.89928195  0.29682841  1
  H+  H204  1  0.13961784  0.03433629  0.84122833  1
  H+  H205  1  0.93590070  0.80659805  0.51860048  1
  H+  H206  1  0.91053473  0.84276811  0.38677624  1
  H+  H207  1  0.71314702  0.10517741  0.32812963  1
  H+  H208  1  0.06680781  0.15673801  0.78253698  1
  H+  H209  1  0.62659832  0.77624755  0.66195663  1
  H+  H210  1  0.42895124  0.59529806  0.94162717  1
  H+  H211  1  0.85902213  0.16277789  0.65381634  1
  H+  H212  1  0.61177778  0.47732250  0.34261020  1
  H+  H213  1  0.14357375  0.78719940  0.50287075  1
  H+  H214  1  0.47765088  0.09596270  0.81710440  1
  H+  H215  1  0.52370832  0.15364414  0.67143314  1
  H+  H216  1  0.87720791  0.28118179  0.51107258  1
  H+  H217  1  0.60136682  0.21256979  -0.00126914  1
  H+  H218  1  0.38238914  0.51302190  0.18041986  1
  H+  H219  1  0.40436640  0.06313007  0.67712342  1
  H+  H220  1  0.61074421  0.38937469  0.14845749  1
  H+  H221  1  0.91968114  0.99974019  0.69844240  1
  H+  H222  1  0.98131888  0.86532959  0.16544051  1
  H+  H223  1  0.88821088  0.51816408  0.15940471  1
  H+  H224  1  0.87038093  0.72444539  0.15191620  1
  H+  H225  1  0.62839744  0.85257810  0.32451489  1
  H+  H226  1  0.62899343  0.10770196  0.98858840  1
  H+  H227  1  0.71706023  0.11509907  0.66398744  1
  H+  H228  1  0.38519461  0.27707472  0.66481693  1
  H+  H229  1  0.83077060  0.69720392  0.48642250  1
  H+  H230  1  0.12742661  0.85759305  0.15997198  1
  H+  H231  1  0.13509180  0.86401472  0.65831128  1
  H+  H232  1  0.38908522  0.85506093  0.83870506  1
  H+  H233  1  0.88473568  0.61523918  0.31543256  1
  H+  H234  1  0.76066629  0.39066338  0.68013772  1
  H+  H235  1  0.58581223  0.66208854  0.43244177  1
  H+  H236  1  0.43372377  0.62542085  0.24781178  1
  H+  H237  1  0.05684804  0.09357059  0.34253643  1
  H+  H238  1  0.47885891  0.37137748  0.34149548  1
  H+  H239  1  0.24587355  0.13056671  0.66409993  1
  H+  H240  1  0.22050222  0.51538907  0.28174266  1
  H+  H241  1  0.39094616  0.87313159  0.99116265  1
  H+  H242  1  0.34323177  0.98114789  0.00279958  1
  H+  H243  1  -0.02277069  0.62396225  0.31414187  1
  H+  H244  1  0.71645017  0.60567046  0.31563243  1
  H+  H245  1  0.11349685  0.96972957  0.15277260  1
  H+  H246  1  0.58489373  0.91842400  0.76860476  1
  H+  H247  1  0.63600534  0.27943276  0.65879533  1
  H+  H248  1  0.00283777  0.90246906  0.81923099  1
  H+  H249  1  1.03163327  0.89655421  0.66295113  1
  H+  H250  1  0.11920067  0.13449492  0.49620194  1
  H+  H251  1  0.87116043  0.63674717  0.14577958  1
  H+  H252  1  0.76619950  0.36986369  0.00458484  1
  H+  H253  1  0.73000881  0.11466123  0.83580466  1
  H+  H254  1  0.94564077  0.10854524  0.33103712  1
  H+  H255  1  0.61702672  0.89059459  0.00245925  1
  H+  H256  1  0.61300472  0.88948037  0.67309790  1
  H+  H257  1  0.11944211  0.47761937  0.82492514  1
  H+  H258  1  0.38342129  0.15228655  0.67271583  1
  H+  H259  1  0.40035325  0.25641449  0.16520711  1
  H+  H260  1  0.86146624  0.48389235  0.33212486  1
  H+  H261  1  0.97018752  0.38155603  0.65426161  1
  H+  H262  1  0.89937949  0.79079604  -0.00883694  1
  H+  H263  1  0.36614538  0.46562012  0.17608939  1
  H+  H264  1  0.15200581  1.04550582  0.65886284  1
  H+  H265  1  0.85727170  0.73935017  0.83218858  1
  H+  H266  1  0.10867941  0.45995292  0.50192903  1
  H+  H267  1  0.39452904  0.01432779  0.16867042  1
  H+  H268  1  0.51700631  0.38355416  0.68397593  1
  H+  H269  1  0.61764763  0.73974317  0.00817642  1
  H+  H270  1  0.61052476  0.72098164  0.33913339  1
  H+  H271  1  0.87316051  0.52975608  0.68015172  1
  H+  H272  1  0.02226290  0.37954403  0.01668931  1
  H+  H273  1  0.38775890  0.09297163  0.82088538  1
  H+  H274  1  0.27357672  0.38629539  0.49449994  1
  H+  H275  1  0.12091922  0.57697214  0.54833313  1
  H+  H276  1  0.87046908  0.22913209  0.82625213  1
  H+  H277  1  0.86055406  -0.02212800  0.83383502  1
  H+  H278  1  0.89438027  0.07701395  0.26866576  1
  H+  H279  1  0.14790211  0.86293570  0.83627120  1
  H+  H280  1  0.63146169  0.85770557  0.16707296  1
  H+  H281  1  0.66676816  0.56362388  1.01762570  1
  H+  H282  1  0.86987975  0.89442931  0.00471637  1
  H+  H283  1  0.35162573  0.93836825  0.66146498  1
  H+  H284  1  0.14552168  0.90504804  0.49319769  1
  H+  H285  1  0.85699591  0.37402046  0.00414782  1
  H+  H286  1  0.48311010  0.61883613  0.84456253  1
  H+  H287  1  0.85175783  0.92559785  0.73953437  1
  H+  H288  1  0.65720170  0.07548757  0.57339289  1
  H+  H289  1  0.83376933  0.41142501  0.77450138  1
  H+  H290  1  0.42185949  0.83437281  0.90099954  1
  H+  H291  1  0.07913702  0.40497586  0.40372965  1
  H+  H292  1  0.85748487  0.89474345  0.32736548  1
  H+  H293  1  0.31127733  0.37324296  0.09395307  1
  H+  H294  1  0.34826506  0.17937643  0.73446289  1
  H+  H295  1  0.16594308  0.83565733  0.56825768  1
  H+  H296  1  0.21004822  0.31686937  0.64373362  1
  H+  H297  1  0.90114530  0.82356653  0.60994901  1
  H+  H298  1  0.23356519  0.85743680  0.83625530  1
  H+  H299  1  0.63093284  0.02177172  0.66640629  1
  H+  H300  1  0.66603744  0.08394792  0.93031313  1
  H+  H301  1  0.33699097  0.67123619  0.06479632  1
  H+  H302  1  0.52614914  0.64817263  0.01009031  1
  H+  H303  1  0.68280106  0.33976904  0.21031519  1
  H+  H304  1  0.35377103  0.85236424  0.66733405  1
  H+  H305  1  0.82806348  0.41893058  0.42814100  1
  H+  H306  1  0.15812654  0.31917414  0.23402932  1
  H+  H307  1  0.63653001  0.77666170  0.83906604  1
  H+  H308  1  0.66690589  0.34067072  0.56768033  1
  H+  H309  1  0.16490106  0.84841418  0.24462096  1
  H+  H310  1  0.00748567  0.30729848  0.70464251  1
  H+  H311  1  0.07015192  0.14770118  0.40287613  1
  H+  H312  1  0.09196842  0.66981540  0.10054820  1
  H+  H313  1  0.32413444  0.88534931  0.76201601  1
  H+  H314  1  0.13044537  0.76827261  0.16746035  1
  H+  H315  1  0.56886611  0.15143200  0.05637629  1
  H+  H316  1  0.92541801  0.83352518  0.22614527  1
  H+  H317  1  0.59127651  0.91137512  0.40134778  1
  H+  H318  1  0.36481404  0.48182833  0.00888868  1
  H+  H319  1  0.58153869  0.66865763  0.76826829  1
  H+  H320  1  0.14966220  0.17888880  0.63820116  1
  H+  H321  1  0.86171925  0.13260315  0.00657885  1
  H+  H322  1  0.42464289  0.09765828  0.58230946  1
  H+  H323  1  0.14424438  0.48899497  0.32698087  1
  H+  H324  1  0.92123918  0.32666572  0.93723890  1
  H+  H325  1  0.91835644  0.08566523  0.93841021  1
  H+  H326  1  0.08415077  0.93107919  0.72284663  1
  H+  H327  1  0.63444647  0.56913015  0.22595930  1
  H+  H328  1  0.56554238  0.39586919  0.06533779  1
  H+  H329  1  0.08296354  0.69697216  0.41529206  1
  H+  H330  1  0.12479590  0.98273852  0.00569175  1
  H+  H331  1  0.42018708  0.81900046  0.60511736  1
  H+  H332  1  0.08182121  0.66432994  0.73675211  1
  H+  H333  1  0.67677407  0.59717637  0.60468787  1
  H+  H334  1  0.12778910  0.34622738  0.33398855  1
  H+  H335  1  0.40495458  0.33095039  0.91597012  1
  H+  H336  1  0.16581042  0.33580086  0.93753260  1
  H+  H337  1  0.91533538  0.57811629  0.21880381  1
  H+  H338  1  0.38317773  0.36519091  0.33957782  1
  H+  H339  1  0.35633769  0.42971704  0.78904978  1
  H+  H340  1  0.81727873  0.65032541  0.38858570  1
  H+  H341  1  0.83600023  0.90951560  0.41433789  1
  H+  H342  1  0.11779252  0.72074614  0.82708963  1
  H+  H343  1  0.12584750  0.65393963  0.00538883  1
  H+  H344  1  0.97001343  0.36151572  0.16880458  1
  H+  H345  1  0.42987885  0.06888175  0.23084785  1
  H+  H346  1  0.93532849  0.59629070  0.89555125  1
  H+  H347  1  0.91868541  0.83972301  0.90088107  1
  H+  H348  1  0.77110382  0.88077506  0.15943510  1
  H+  H349  1  0.83372541  0.41413828  0.08983399  1
  H+  H350  1  0.16667698  0.56195301  0.63289152  1
  H+  H351  1  0.89236852  0.02764563  0.99770241  1
  H+  H352  1  0.32765391  0.41288142  0.40286150  1
  H+  H353  1  0.11192625  0.93896004  0.39410444  1
  H+  H354  1  0.34953259  0.92328412  0.42307742  1
  H+  H355  1  0.18539567  0.08450453  0.93955559  1
  H+  H356  1  0.38078744  0.60724930  0.66031220  1
  H+  H357  1  0.58712520  0.91335836  0.09631896  1
  H+  H358  1  0.65708738  0.82521711  0.22889060  1
  H+  H359  1  0.15980800  0.31787864  0.55614819  1
  H+  H360  1  0.58794419  0.16805946  0.76105619  1
  H+  H361  1  0.34573196  0.66465673  0.73881888  1
  H+  H362  1  0.65755820  0.32488725  0.93097923  1
  H+  H363  1  0.08066487  0.40568940  0.10586019  1
  H+  H364  1  0.29642822  0.39802444  0.70647863  1
  H+  H365  1  0.58521475  0.41889032  0.43866106  1
  H+  H366  1  0.83183069  0.15988199  0.10005526  1
  H+  H367  1  0.67134201  0.83693261  0.93339463  1
  H+  H368  1  0.86308273  0.38498774  0.15145647  1
  H+  H369  1  0.18719762  0.07203284  0.21908202  1
  H+  H370  1  0.66976152  0.59330925  0.90536995  1
  H+  H371  1  0.58760238  0.67757446  0.09620127  1
  H+  H372  1  0.59075845  0.15596954  0.41042509  1
  H+  H373  1  0.08669067  0.40891540  0.76939562  1
  H+  H374  1  0.84994796  0.68430719  0.06059616  1
  H+  H375  1  0.84349653  0.61383116  0.48121937  1
  H+  H376  1  0.83531087  0.91739177  0.06549298  1
  H+  H377  1  0.60440389  0.51165597  0.16382579  1
  H+  H378  1  0.37037625  0.72673145  0.83075392  1
  H+  H379  1  0.02738085  0.98514612  0.78198441  1
  H+  H380  1  0.35199417  0.18158832  0.40884797  1
  H+  H381  1  0.07885142  0.91175617  0.09217264  1
  H+  H382  1  0.32326936  0.66179757  0.40608410  1
  H+  H383  1  0.11035271  0.46675748  0.16417788  1
  O2-  O384  1  0.08106970  0.14128074  0.16859090  1
  O2-  O385  1  0.08438452  0.15828058  0.47728803  1
  O2-  O386  1  0.08407269  0.16523802  0.82583521  1
  O2-  O387  1  0.08035620  0.40542365  0.15250817  1
  O2-  O388  1  0.07482326  0.40281847  0.48247445  1
  O2-  O389  1  0.08813710  0.41410899  0.81411067  1
  O2-  O390  1  0.08828189  0.66770548  0.14675445  1
  O2-  O391  1  0.07799088  0.68988051  0.46062421  1
  O2-  O392  1  0.08939489  0.66212838  0.80977105  1
  O2-  O393  1  0.07727060  0.90817032  0.13809332  1
  O2-  O394  1  0.12387044  0.94237637  0.47368936  1
  O2-  O395  1  0.05168043  0.95008384  0.79556042  1
  O2-  O396  1  0.35116083  0.15856070  0.14121837  1
  O2-  O397  1  0.35054184  0.17780214  0.48262692  1
  O2-  O398  1  0.34890756  0.16608678  0.84516297  1
  O2-  O399  1  0.30374844  0.34419376  0.13335454  1
  O2-  O400  1  0.33487846  0.41691914  0.48067320  1
  O2-  O401  1  0.33993851  0.42123986  0.83165798  1
  O2-  O402  1  0.32703174  0.66756818  0.14119764  1
  O2-  O403  1  0.29848653  0.68728611  0.48291607  1
  O2-  O404  1  0.34039918  0.66670320  0.81413604  1
  O2-  O405  1  0.33096981  0.91728633  0.13538818  1
  O2-  O406  1  0.35063950  0.92891741  0.49811632  1
  O2-  O407  1  0.32829461  0.89312262  0.80670066  1
  O2-  O408  1  0.58733611  0.15717910  0.13607417  1
  O2-  O409  1  0.58422399  0.16373990  0.48823797  1
  O2-  O410  1  0.58664566  0.16653090  0.80698150  1
  O2-  O411  1  0.57409971  0.41297020  0.13495166  1
  O2-  O412  1  0.58586975  0.41972098  0.48458260  1
  O2-  O413  1  0.57426608  0.42434754  0.82980117  1
  O2-  O414  1  0.58852059  0.67525589  0.14308143  1
  O2-  O415  1  0.58857919  0.66066001  0.47852648  1
  O2-  O416  1  0.58331412  0.67111015  0.81404678  1
  O2-  O417  1  0.58574952  0.90850687  0.14176764  1
  O2-  O418  1  0.58465243  0.91099643  0.48282041  1
  O2-  O419  1  0.58786338  0.92034797  0.81415119  1
  O2-  O420  1  0.83376144  0.16036247  0.14551186  1
  O2-  O421  1  0.81913189  0.17631370  0.49115552  1
  O2-  O422  1  0.83867544  0.16853222  0.80931193  1
  O2-  O423  1  0.83368165  0.41785213  0.13633969  1
  O2-  O424  1  0.82734145  0.41974362  0.47369961  1
  O2-  O425  1  0.84233723  0.40938914  0.81948498  1
  O2-  O426  1  0.84257918  0.66854558  0.13093278  1
  O2-  O427  1  0.80381483  0.63931130  0.46699466  1
  O2-  O428  1  0.82456957  0.67845551  0.81444719  1
  O2-  O429  1  0.83140902  0.91392934  0.14486519  1
  O2-  O430  1  0.84867521  0.90418191  0.45977944  1
  O2-  O431  1  0.83251121  0.91779310  0.81768032  1
  O2-  O432  1  0.17313969  0.06748693  0.17559813  1
  O2-  O433  1  0.18659514  0.10274702  0.52308306  1
  O2-  O434  1  0.17686649  0.09098334  0.86009054  1
  O2-  O435  1  0.15289407  0.31355742  0.18940101  1
  O2-  O436  1  0.16624047  0.32722200  0.51117459  1
  O2-  O437  1  0.16600160  0.33091735  0.85631306  1
  O2-  O438  1  0.16383539  0.57935787  0.18643101  1
  O2-  O439  1  0.16128513  0.55602696  0.54444123  1
  O2-  O440  1  0.16929364  0.57719786  0.84644730  1
  O2-  O441  1  0.15984606  0.83119647  0.17931793  1
  O2-  O442  1  0.17672410  0.84425503  0.52259252  1
  O2-  O443  1  0.17336134  0.83111448  0.85364422  1
  O2-  O444  1  0.43083479  0.07356115  0.18556495  1
  O2-  O445  1  0.42471434  0.08993869  0.53550704  1
  O2-  O446  1  0.41444555  0.05730087  0.81504297  1
  O2-  O447  1  0.42789567  0.31876495  0.17814327  1
  O2-  O448  1  0.41997081  0.33888545  0.52623176  1
  O2-  O449  1  0.41273653  0.33823162  0.86797978  1
  O2-  O450  1  0.44532826  0.66102653  0.21094481  1
  O2-  O451  1  0.42184875  0.58666515  0.52001234  1
  O2-  O452  1  0.42470677  0.59119954  0.86386836  1
  O2-  O453  1  0.40762459  0.83714971  0.17139903  1
  O2-  O454  1  0.42263658  0.83203671  0.52665892  1
  O2-  O455  1  0.42400461  0.83049125  0.85545783  1
  O2-  O456  1  0.66516784  0.07298307  0.18367131  1
  O2-  O457  1  0.66007991  0.07601136  0.52760561  1
  O2-  O458  1  0.66953263  0.08679728  0.85024622  1
  O2-  O459  1  0.67411083  0.33497417  0.16656584  1
  O2-  O460  1  0.66428338  0.33748746  0.52184200  1
  O2-  O461  1  0.65912910  0.32949543  0.83352473  1
  O2-  O462  1  0.62680610  0.57099143  0.18131768  1
  O2-  O463  1  0.66000038  0.57366744  0.51481747  1
  O2-  O464  1  0.66869462  0.59078494  0.86026277  1
  O2-  O465  1  0.66133842  0.82590243  0.18326741  1
  O2-  O466  1  0.67403739  0.83078991  0.51754346  1
  O2-  O467  1  0.66805334  0.83663722  0.85520640  1
  O2-  O468  1  0.90704580  0.07581265  0.19511389  1
  O2-  O469  1  0.90692102  0.08227530  0.51100319  1
  O2-  O470  1  0.91423264  0.08246241  0.85857089  1
  O2-  O471  1  0.90734037  0.33520545  0.17654065  1
  O2-  O472  1  0.91247841  0.34371218  0.52098104  1
  O2-  O473  1  0.92317333  0.32548929  0.85559642  1
  O2-  O474  1  0.91983822  0.57992992  0.17395294  1
  O2-  O475  1  0.90209179  0.58647234  0.50089636  1
  O2-  O476  1  0.93618741  0.58773384  0.85000029  1
  O2-  O477  1  0.92033453  0.83539879  0.18221976  1
  O2-  O478  1  0.87638298  0.79100739  0.52585855  1
  O2-  O479  1  0.91092657  0.83457532  0.85477092  1
  O2-  O480  1  0.20596207  0.09773380  0.30424714  1
  O2-  O481  1  0.18690124  0.10600195  0.64499960  1
  O2-  O482  1  0.19109524  0.08200005  0.98429237  1
  O2-  O483  1  0.16226583  0.31991220  0.31905460  1
  O2-  O484  1  0.14736762  0.29132480  0.63118644  1
  O2-  O485  1  0.17067447  0.33761556  0.98244011  1
  O2-  O486  1  0.19141059  0.54062251  0.30376511  1
  O2-  O487  1  0.17460141  0.58344100  0.67467941  1
  O2-  O488  1  0.18720504  0.63007171  0.96787196  1
  O2-  O489  1  0.17261812  0.86038568  0.29206877  1
  O2-  O490  1  0.15617245  0.82623742  0.64137527  1
  O2-  O491  1  0.16767387  0.83915384  0.97945370  1
  O2-  O492  1  0.42972716  0.06800270  0.30882267  1
  O2-  O493  1  0.42874088  0.11397636  0.65152333  1
  O2-  O494  1  0.41262082  0.13511428  0.95748847  1
  O2-  O495  1  0.41704421  0.33565616  0.32891705  1
  O2-  O496  1  0.41105007  0.33837378  0.64967788  1
  O2-  O497  1  0.38986590  0.31772916  0.98006707  1
  O2-  O498  1  0.41935542  0.58090750  0.32286154  1
  O2-  O499  1  0.41051911  0.57872822  0.63974519  1
  O2-  O500  1  0.42975571  0.59532182  0.98712454  1
  O2-  O501  1  0.42893166  0.83348154  0.32741230  1
  O2-  O502  1  0.41670937  0.81911394  0.65034283  1
  O2-  O503  1  0.41984758  0.84061251  0.97801346  1
  O2-  O504  1  0.65570741  0.06886639  0.30971103  1
  O2-  O505  1  0.65766166  0.08174267  0.64878343  1
  O2-  O506  1  0.66461587  0.08182518  0.97565722  1
  O2-  O507  1  0.64991098  0.32141358  0.32437621  1
  O2-  O508  1  0.66445316  0.34077484  0.64466854  1
  O2-  O509  1  0.65531989  0.31766112  0.97506734  1
  O2-  O510  1  0.65383399  0.57266734  0.30667633  1
  O2-  O511  1  0.67519991  0.61094399  0.64740885  1
  O2-  O512  1  0.67456174  0.60540227  0.98650203  1
  O2-  O513  1  0.65604046  0.82060002  0.30623682  1
  O2-  O514  1  0.65516840  0.83648103  0.64711582  1
  O2-  O515  1  0.67090841  0.83688371  0.97899505  1
  O2-  O516  1  0.88745052  0.07316296  0.31448787  1
  O2-  O517  1  0.99619471  0.11734166  0.71699431  1
  O2-  O518  1  0.92276178  0.08849423  0.98352457  1
  O2-  O519  1  0.92414393  0.34054810  0.32364304  1
  O2-  O520  1  0.91006747  0.35394585  0.64055070  1
  O2-  O521  1  0.91764753  0.32788921  0.98219764  1
  O2-  O522  1  0.91702401  0.58636091  0.30188425  1
  O2-  O523  1  0.90403897  0.59076725  0.66701998  1
  O2-  O524  1  0.93547171  0.61000867  0.96720521  1
  O2-  O525  1  0.92416814  0.83929275  0.34425509  1
  O2-  O526  1  0.92156341  0.83547902  0.65219875  1
  O2-  O527  1  0.92661236  0.85095111  0.97344915  1
  O2-  O528  1  0.10207606  0.17534245  0.01366938  1
  O2-  O529  1  0.06164948  0.14671991  0.35747324  1
  O2-  O530  1  0.10601470  0.19661384  0.62716045  1
  O2-  O531  1  0.08041291  0.40816334  0.03492839  1
  O2-  O532  1  0.07989559  0.40166507  0.35851265  1
  O2-  O533  1  0.05728026  0.36107877  0.69203941  1
  O2-  O534  1  0.09195921  0.67713865  0.02708963  1
  O2-  O535  1  0.09330376  0.70020015  0.33821657  1
  O2-  O536  1  0.07697418  0.65924053  0.69069535  1
  O2-  O537  1  0.08603169  0.92057776  0.01737897  1
  O2-  O538  1  0.09794563  0.93800141  0.35011250  1
  O2-  O539  1  0.09222809  0.92901473  0.67827625  1
  O2-  O540  1  0.33958159  0.07098132  -0.01080797  1
  O2-  O541  1  0.35828313  0.18930718  0.36309538  1
  O2-  O542  1  0.34480809  0.17973124  0.69017309  1
  O2-  O543  1  0.33288879  0.41971403  0.01842554  1
  O2-  O544  1  0.32813128  0.41079869  0.35733220  1
  O2-  O545  1  0.30817688  0.39630491  0.66349998  1
  O2-  O546  1  0.34485971  0.67408882  0.01955214  1
  O2-  O547  1  0.33315094  0.65897104  0.36225886  1
  O2-  O548  1  0.34028914  0.66135347  0.69308574  1
  O2-  O549  1  0.33170618  0.92170165  0.01400350  1
  O2-  O550  1  0.34227950  0.91244976  0.37775302  1
  O2-  O551  1  0.31908327  0.88124664  0.67914145  1
  O2-  O552  1  0.56541269  0.15117942  0.01098210  1
  O2-  O553  1  0.59913666  0.16505547  0.36550476  1
  O2-  O554  1  0.58638115  0.17866574  0.68632062  1
  O2-  O555  1  0.55915980  0.38192511  0.01940569  1
  O2-  O556  1  0.58157442  0.41972130  0.36369429  1
  O2-  O557  1  0.57440770  0.40108126  0.70078008  1
  O2-  O558  1  0.58820222  0.67968073  0.02588974  1
  O2-  O559  1  0.58419916  0.66194475  0.35748242  1
  O2-  O560  1  0.57713689  0.66976236  0.69155387  1
  O2-  O561  1  0.58564447  0.91901162  0.01860282  1
  O2-  O562  1  0.58995994  0.90967658  0.35615349  1
  O2-  O563  1  0.58393550  0.92123484  0.69053739  1
  O2-  O564  1  0.83043844  0.16203365  0.02165284  1
  O2-  O565  1  0.78708290  0.19514483  0.37398709  1
  O2-  O566  1  0.83577640  0.18981545  0.68008046  1
  O2-  O567  1  0.82546222  0.40233429  0.01986041  1
  O2-  O568  1  0.83122377  0.42499731  0.35019030  1
  O2-  O569  1  0.81942074  0.41887441  0.69920431  1
  O2-  O570  1  0.85247707  0.69392493  0.01449299  1
  O2-  O571  1  0.82402479  0.65779448  0.34349183  1
  O2-  O572  1  0.83535811  0.67635050  0.70300052  1
  O2-  O573  1  0.83513972  0.92009958  0.02013617  1
  O2-  O574  1  0.82301291  0.91729697  0.34608032  1
  O2-  O575  1  0.87445035  0.93902472  0.69719289  1
