# generated using pymatgen
data_H2O
_symmetry_space_group_name_H-M   'P 1'
_cell_length_a   17.99653661
_cell_length_b   17.99417756
_cell_length_c   22.01708927
_cell_angle_alpha   90.02239529
_cell_angle_beta   89.99812443
_cell_angle_gamma   119.98958124
_symmetry_Int_Tables_number   1
_chemical_formula_structural   H2O
_chemical_formula_sum   'H384 O192'
_cell_volume   6175.28513416
_cell_formula_units_Z   192
loop_
 _symmetry_equiv_pos_site_id
 _symmetry_equiv_pos_as_xyz
  1  'x, y, z'
loop_
 _atom_type_symbol
 _atom_type_oxidation_number
  H+  1.0
  O2-  -2.0
loop_
 _atom_site_type_symbol
 _atom_site_label
 _atom_site_symmetry_multiplicity
 _atom_site_fract_x
 _atom_site_fract_y
 _atom_site_fract_z
 _atom_site_occupancy
  H+  H0  1  1.02457024  0.88743737  0.16800091  1
  H+  H1  1  0.38925184  0.01264218  0.84996506  1
  H+  H2  1  0.88890007  0.86879300  -0.00168551  1
  H+  H3  1  0.63363003  0.01242705  0.32570112  1
  H+  H4  1  0.63048818  0.77909576  0.33714802  1
  H+  H5  1  0.88524060  0.77809781  0.99612330  1
  H+  H6  1  0.39146687  0.53283593  0.16574876  1
  H+  H7  1  0.02085840  0.88228571  0.01288002  1
  H+  H8  1  0.58439322  0.68724989  0.52032247  1
  H+  H9  1  0.79680154  0.39336317  0.34181745  1
  H+  H10  1  0.96030990  0.70787600  0.70512828  1
  H+  H11  1  0.21161754  0.33102717  -0.00776159  1
  H+  H12  1  0.72352900  0.35556563  0.83683468  1
  H+  H13  1  0.61385395  0.22239176  0.16881852  1
  H+  H14  1  0.33860832  0.42974024  0.00021622  1
  H+  H15  1  0.52943081  0.22349290  0.71886069  1
  H+  H16  1  0.12268724  0.24695393  -0.01465460  1
  H+  H17  1  0.36643056  1.00494091  0.31495547  1
  H+  H18  1  0.13536881  0.52012327  0.98428883  1
  H+  H19  1  0.13334328  0.84181680  0.36355387  1
  H+  H20  1  0.26757058  0.84660460  0.32079451  1
  H+  H21  1  0.11718667  0.39329142  0.81505722  1
  H+  H22  1  0.86136400  0.88982175  0.16481589  1
  H+  H23  1  0.36850347  0.13995274  0.15714505  1
  H+  H24  1  0.57897933  0.59985364  0.32457045  1
  H+  H25  1  0.90361973  0.27338359  0.64154628  1
  H+  H26  1  0.12047493  0.12449199  0.51471727  1
  H+  H27  1  0.46200123  0.34319403  0.30906218  1
  H+  H28  1  0.62103634  0.22397462  0.83304245  1
  H+  H29  1  0.87186117  0.44806591  0.50055142  1
  H+  H30  1  1.04138103  0.38945736  0.62577681  1
  H+  H31  1  0.86790606  0.20130286  0.49967122  1
  H+  H32  1  0.21598978  0.85532072  0.65474178  1
  H+  H33  1  0.38996839  0.27812245  0.66299455  1
  H+  H34  1  1.03873311  0.64696411  0.82218644  1
  H+  H35  1  0.61874921  0.97796684  0.01298688  1
  H+  H36  1  0.96873065  0.88384666  0.32774884  1
  H+  H37  1  0.88324353  0.87811692  0.50687200  1
  H+  H38  1  0.67806989  0.47958329  0.37511094  1
  H+  H39  1  0.36122854  -0.02329041  0.15778395  1
  H+  H40  1  0.92623158  0.34699369  0.26463334  1
  H+  H41  1  0.35814709  0.47120368  0.33969223  1
  H+  H42  1  0.85006701  0.46719399  0.80052325  1
  H+  H43  1  0.76791555  0.88536348  0.81950890  1
  H+  H44  1  0.88603997  0.36210672  0.17630562  1
  H+  H45  1  0.48203631  0.86706244  0.00291171  1
  H+  H46  1  0.63874030  0.77560590  0.17552673  1
  H+  H47  1  0.59073220  0.67693822  0.09531681  1
  H+  H48  1  0.11254457  0.89271534  0.82925813  1
  H+  H49  1  0.10134644  0.22608464  0.17037041  1
  H+  H50  1  0.63018777  0.38366529  0.67687361  1
  H+  H51  1  0.11268137  0.11160081  0.99256045  1
  H+  H52  1  0.37618190  0.48360332  0.68019089  1
  H+  H53  1  0.11691534  0.39458002  0.33436845  1
  H+  H54  1  0.54012426  0.12771567  0.83504361  1
  H+  H55  1  0.48482800  0.35640945  0.67069101  1
  H+  H56  1  0.85659446  0.12271335  0.82063947  1
  H+  H57  1  0.86257486  0.64323880  1.00586999  1
  H+  H58  1  0.23356517  0.61953655  0.82548519  1
  H+  H59  1  0.54779732  0.14986336  0.01293615  1
  H+  H60  1  0.31327959  0.16235267  0.71848822  1
  H+  H61  1  0.85306834  0.35159657  0.48772063  1
  H+  H62  1  0.61629686  0.88783538  0.00830304  1
  H+  H63  1  0.78055998  0.62365452  0.83038779  1
  H+  H64  1  0.42097579  0.11543320  0.83859630  1
  H+  H65  1  0.86485165  0.17932101  0.72288198  1
  H+  H66  1  0.41782884  0.58780651  0.22636440  1
  H+  H67  1  0.27362338  0.88540088  0.16129674  1
  H+  H68  1  0.72726815  0.11743632  0.32618133  1
  H+  H69  1  0.09751157  0.23022694  0.67542209  1
  H+  H70  1  0.86598346  0.22759885  0.01654702  1
  H+  H71  1  0.85524795  0.99386745  0.49990364  1
  H+  H72  1  0.75712879  0.58486503  0.33976119  1
  H+  H73  1  0.87258218  0.27045122  0.44371511  1
  H+  H74  1  0.35270034  0.08793579  0.31073535  1
  H+  H75  1  0.33125432  0.16806484  0.57987770  1
  H+  H76  1  0.16455446  0.32328147  0.89074588  1
  H+  H77  1  0.63434066  0.61234839  0.99340063  1
  H+  H78  1  0.59515319  0.46037011  0.34326744  1
  H+  H79  1  0.46079423  0.10977788  0.66351076  1
  H+  H80  1  0.97275628  0.10309026  0.99076344  1
  H+  H81  1  0.20953039  0.12263342  0.51867634  1
  H+  H82  1  0.89102560  0.59717873  0.84126499  1
  H+  H83  1  -0.00667738  0.34417254  0.47860689  1
  H+  H84  1  0.40417487  0.55863208  0.97196999  1
  H+  H85  1  0.89958727  0.40731486  0.85597232  1
  H+  H86  1  0.67747584  0.82636929  0.93770664  1
  H+  H87  1  0.43901758  0.98374935  0.36907861  1
  H+  H88  1  0.38034155  0.39706355  0.68076710  1
  H+  H89  1  0.72596827  0.35004550  0.50730824  1
  H+  H90  1  0.51675056  0.37169717  0.82974575  1
  H+  H91  1  0.36857093  0.26356879  0.30885002  1
  H+  H92  1  0.25223896  0.14174491  0.32860784  1
  H+  H93  1  0.10658901  0.37098930  -0.00083272  1
  H+  H94  1  0.00331158  0.38515279  0.32500546  1
  H+  H95  1  0.90125995  0.74841063  0.34663682  1
  H+  H96  1  0.72215404  0.86613318  0.33477259  1
  H+  H97  1  0.36187480  0.38432472  0.33342196  1
  H+  H98  1  0.74289713  0.59736326  0.36867761  1
  H+  H99  1  0.73753727  0.35336518  0.65561012  1
  H+  H100  1  0.36396761  0.89506208  0.84216532  1
  H+  H101  1  0.57421488  0.67104718  0.41680563  1
  H+  H102  1  0.14673103  0.62058163  0.34785267  1
  H+  H103  1  0.09577589  -0.01145742  0.49286971  1
  H+  H104  1  0.63207977  0.14079795  1.01882827  1
  H+  H105  1  0.62775526  0.23199160  0.34351279  1
  H+  H106  1  0.37033615  0.10387891  0.65490742  1
  H+  H107  1  0.10980602  0.72300824  0.00205852  1
  H+  H108  1  0.14040257  0.77231955  0.18060768  1
  H+  H109  1  -0.02696370  0.36021392  -0.00066212  1
  H+  H110  1  0.86205990  0.46947549  0.17108212  1
  H+  H111  1  0.23569324  0.60783072  0.16033959  1
  H+  H112  1  0.90232967  0.14969847  0.66859156  1
  H+  H113  1  0.90972092  0.53271575  0.34543600  1
  H+  H114  1  0.83214413  0.92021729  0.07042042  1
  H+  H115  1  0.13557204  1.00959176  -0.00420886  1
  H+  H116  1  0.85461725  0.64158813  0.14524187  1
  H+  H117  1  0.10253790  0.22788381  0.81810809  1
  H+  H118  1  0.94614998  0.13503924  0.51783150  1
  H+  H119  1  0.47993871  0.36268505  0.50307453  1
  H+  H120  1  0.64006914  0.36217076  0.17313597  1
  H+  H121  1  0.88929839  0.11380734  0.99945783  1
  H+  H122  1  0.08785212  0.95322934  0.67222639  1
  H+  H123  1  0.16617184  0.37554551  0.56396964  1
  H+  H124  1  0.84434877  0.98173937  0.81583679  1
  H+  H125  1  0.36342984  0.47801749  0.82861428  1
  H+  H126  1  0.27336719  0.89627848  0.84081090  1
  H+  H127  1  0.53122152  0.64435020  0.15516410  1
  H+  H128  1  0.61688406  0.89410707  0.33611720  1
  H+  H129  1  0.86663465  0.96378907  0.65994028  1
  H+  H130  1  0.60821442  0.37232983  0.50441910  1
  H+  H131  1  0.62299088  0.22129171  0.50901738  1
  H+  H132  1  0.66444174  0.36791310  0.32831336  1
  H+  H133  1  0.85095163  -0.01931425  0.34747692  1
  H+  H134  1  0.63879036  0.02028557  0.50998438  1
  H+  H135  1  0.36186066  0.73298381  0.00362635  1
  H+  H136  1  0.50916697  0.65078433  0.81191040  1
  H+  H137  1  0.36924513  0.61296036  0.32142601  1
  H+  H138  1  0.09941305  0.23683164  0.50552434  1
  H+  H139  1  0.88485745  0.27163534  0.18239300  1
  H+  H140  1  0.48384774  0.36023751  0.15897807  1
  H+  H141  1  0.82479111  0.67295404  0.06090159  1
  H+  H142  1  0.13933613  0.80099434  0.50205726  1
  H+  H143  1  0.63319694  0.35126218  0.84572450  1
  H+  H144  1  0.64866602  0.78726387  0.48902787  1
  H+  H145  1  0.37278635  0.64589751  0.15452309  1
  H+  H146  1  0.77044601  0.88696320  0.16578939  1
  H+  H147  1  0.77145367  0.13749533  0.16937101  1
  H+  H148  1  0.52797007  0.12730532  0.50831934  1
  H+  H149  1  0.38557775  0.26896082  0.52173530  1
  H+  H150  1  0.66228385  0.59636341  0.31962338  1
  H+  H151  1  0.22145333  0.61036754  0.98747877  1
  H+  H152  1  0.12611646  0.02708384  0.82483602  1
  H+  H153  1  0.47055233  0.88102823  0.50487060  1
  H+  H154  1  0.73417199  0.11110731  1.01230290  1
  H+  H155  1  0.24139991  0.13753268  0.80857896  1
  H+  H156  1  0.99729903  0.52808865  0.54500586  1
  H+  H157  1  0.47500395  0.86236800  0.17281298  1
  H+  H158  1  0.09240704  0.73981991  0.66798706  1
  H+  H159  1  0.47857855  0.59155459  0.50288605  1
  H+  H160  1  0.76374553  0.63557128  0.15884870  1
  H+  H161  1  0.75586511  0.11121195  0.66212750  1
  H+  H162  1  0.36131469  0.63226463  0.66990479  1
  H+  H163  1  1.02217983  0.62929241  0.17899985  1
  H+  H164  1  0.32185119  0.12404673  0.80767040  1
  H+  H165  1  0.11379825  0.97528645  0.16514630  1
  H+  H166  1  0.38172521  0.74246335  0.34039926  1
  H+  H167  1  0.39478525  0.63945053  0.98706148  1
  H+  H168  1  0.11189261  0.37160686  0.65244124  1
  H+  H169  1  0.13199938  0.88596211  0.49926553  1
  H+  H170  1  0.12520181  0.36410332  0.50041584  1
  H+  H171  1  0.90220462  0.38122210  0.33144281  1
  H+  H172  1  0.11885975  0.11389547  0.82214407  1
  H+  H173  1  0.63224168  0.61407368  0.50177280  1
  H+  H174  1  0.73364254  0.10193329  0.51738153  1
  H+  H175  1  0.33230794  0.91518733  0.07213432  1
  H+  H176  1  0.27264917  0.91355636  0.48249346  1
  H+  H177  1  0.86111375  0.65124913  0.50644305  1
  H+  H178  1  0.72243979  0.61141700  0.99281569  1
  H+  H179  1  0.31019595  0.53033764  0.28387048  1
  H+  H180  1  0.13410603  0.86046077  0.99783674  1
  H+  H181  1  0.36931073  0.76919977  0.65311237  1
  H+  H182  1  0.10566231  0.07899981  0.66427450  1
  H+  H183  1  0.14275804  0.78377920  0.83795248  1
  H+  H184  1  0.21402539  0.35833727  0.17632452  1
  H+  H185  1  0.61113740  0.89203870  0.48898269  1
  H+  H186  1  0.10807105  0.62565724  0.17187074  1
  H+  H187  1  0.92281176  0.63024400  0.34278731  1
  H+  H188  1  0.60801440  0.47447323  0.15461573  1
  H+  H189  1  0.53371864  0.65487892  1.00255140  1
  H+  H190  1  0.86904484  0.37380822  0.65464008  1
  H+  H191  1  0.22934727  0.35836609  0.83449481  1
  H+  H192  1  0.10040785  -0.08330502  0.34516658  1
  H+  H193  1  0.01807653  0.37819555  0.15826901  1
  H+  H194  1  0.06815833  0.94243224  0.40457137  1
  H+  H195  1  0.87397294  0.86748705  0.32979039  1
  H+  H196  1  0.72880007  0.36131794  0.17146149  1
  H+  H197  1  0.04580593  0.64478892  0.35004787  1
  H+  H198  1  0.97215475  0.61074386  0.66379002  1
  H+  H199  1  0.93753431  0.81025746  0.68859264  1
  H+  H200  1  0.12985769  0.65334107  0.81845239  1
  H+  H201  1  0.22437828  0.36404670  0.33215044  1
  H+  H202  1  0.36060373  0.35669274  1.00790637  1
  H+  H203  1  0.36167947  -0.02555540  1.01311690  1
  H+  H204  1  0.61360345  0.88715192  0.16603115  1
  H+  H205  1  0.65321188  0.27943333  1.00073224  1
  H+  H206  1  0.66921164  0.57466636  0.89768807  1
  H+  H207  1  0.40291614  0.88059838  0.33179989  1
  H+  H208  1  0.23165580  0.62111617  0.51282523  1
  H+  H209  1  0.37428734  0.61507189  0.82200318  1
  H+  H210  1  0.63247388  0.61501737  0.16153489  1
  H+  H211  1  0.32697525  0.65634666  0.73673881  1
  H+  H212  1  0.50749452  0.66688980  0.36742281  1
  H+  H213  1  0.14441883  0.72525071  0.34374878  1
  H+  H214  1  0.42111779  0.08098738  0.56523271  1
  H+  H215  1  0.61535842  0.64376894  0.66747037  1
  H+  H216  1  0.47182191  0.11352520  0.17179687  1
  H+  H217  1  0.49510080  0.92757945  0.86270780  1
  H+  H218  1  0.60017040  0.00311189  0.79612367  1
  H+  H219  1  0.15314833  0.51715045  0.64723224  1
  H+  H220  1  0.84930741  0.14249817  0.34601302  1
  H+  H221  1  0.48250650  0.62358050  0.65646707  1
  H+  H222  1  0.86085877  0.97787558  0.00962936  1
  H+  H223  1  0.88728066  0.36518251  1.01103404  1
  H+  H224  1  0.35849922  0.71659034  0.80974824  1
  H+  H225  1  0.38669842  0.50448603  0.50745867  1
  H+  H226  1  1.00729912  0.89686726  0.49040802  1
  H+  H227  1  1.03991111  0.64961387  0.50282501  1
  H+  H228  1  0.48020707  0.35834838  -0.01150759  1
  H+  H229  1  0.78078489  0.39748195  0.01239182  1
  H+  H230  1  0.87407821  1.01597272  0.18503020  1
  H+  H231  1  0.13441759  0.11572311  0.16624222  1
  H+  H232  1  0.26483636  0.37617261  0.49526421  1
  H+  H233  1  0.09643779  0.14620070  0.34559052  1
  H+  H234  1  0.38555481  0.25540350  0.15728712  1
  H+  H235  1  0.77394660  0.08934078  0.78069207  1
  H+  H236  1  0.36013046  0.22370042  1.00494031  1
  H+  H237  1  0.64103429  1.00134113  0.79580949  1
  H+  H238  1  0.55119279  0.78348168  0.79017953  1
  H+  H239  1  0.63192078  0.10944932  0.17827373  1
  H+  H240  1  0.88455715  0.77991063  0.17595881  1
  H+  H241  1  0.50311445  0.83423301  0.80968153  1
  H+  H242  1  0.86933888  0.48688808  1.01283820  1
  H+  H243  1  0.29084911  0.65627443  0.34883588  1
  H+  H244  1  0.61783463  0.38771798  0.00442368  1
  H+  H245  1  0.64205254  0.86061947  0.64256472  1
  H+  H246  1  0.22343215  0.86155837  -0.00416860  1
  H+  H247  1  0.39257207  0.86816915  1.00111226  1
  H+  H248  1  0.36124864  0.61559863  0.49562643  1
  H+  H249  1  0.64211079  0.51240916  0.84170759  1
  H+  H250  1  0.88150575  0.78846310  0.50415073  1
  H+  H251  1  0.85806399  0.13399763  0.17485847  1
  H+  H252  1  0.38379972  0.36313453  0.84001255  1
  H+  H253  1  0.75815550  0.14931524  0.85927365  1
  H+  H254  1  0.39851958  0.83329168  0.59650469  1
  H+  H255  1  0.37819089  0.35879606  0.49882933  1
  H+  H256  1  0.63576848  0.96910252  0.67234355  1
  H+  H257  1  0.27582084  0.46464808  0.11447343  1
  H+  H258  1  0.62734316  0.12513098  0.51315562  1
  H+  H259  1  0.22248668  0.09998734  -0.00769757  1
  H+  H260  1  0.37221135  0.26897852  0.83476056  1
  H+  H261  1  0.58979635  0.16576982  0.10887576  1
  H+  H262  1  0.13537760  0.84094855  0.39773267  1
  H+  H263  1  0.88081566  0.59743376  0.65371665  1
  H+  H264  1  0.95940284  0.11946819  0.34043696  1
  H+  H265  1  0.96789039  0.11509070  0.84143971  1
  H+  H266  1  0.52605096  0.89485077  0.33302149  1
  H+  H267  1  0.63982814  0.52559429  0.50402224  1
  H+  H268  1  0.62556248  0.73777707  0.00677175  1
  H+  H269  1  0.25292512  0.61677112  0.66654873  1
  H+  H270  1  0.34128184  0.87412832  0.66648376  1
  H+  H271  1  0.56524219  0.52061184  0.62791037  1
  H+  H272  1  0.62278735  0.73634260  0.65793911  1
  H+  H273  1  0.12207362  0.04218039  0.32631691  1
  H+  H274  1  0.15910377  0.64770304  0.51796733  1
  H+  H275  1  0.98190341  0.62236985  0.99809246  1
  H+  H276  1  0.48756419  0.20159588  0.96006528  1
  H+  H277  1  0.36793411  0.14135486  0.00657742  1
  H+  H278  1  0.85090089  0.23031681  0.33448278  1
  H+  H279  1  0.10558504  0.63254433  -0.00205550  1
  H+  H280  1  0.64860098  0.75331028  0.84300265  1
  H+  H281  1  0.63345267  1.01954629  0.17624614  1
  H+  H282  1  0.96963539  0.85121101  0.84257967  1
  H+  H283  1  0.68169523  0.07888797  0.61454014  1
  H+  H284  1  0.73087624  0.86859722  0.99795433  1
  H+  H285  1  0.34222091  0.93763124  0.42593490  1
  H+  H286  1  0.11844021  0.48732589  0.33596171  1
  H+  H287  1  0.24892483  0.12056600  0.66374124  1
  H+  H288  1  0.15965074  0.83799531  0.59416834  1
  H+  H289  1  0.96256004  0.10439775  0.19040457  1
  H+  H290  1  0.06445213  0.17556596  0.44792271  1
  H+  H291  1  0.41532910  0.32886185  0.21725729  1
  H+  H292  1  0.11589029  0.47898057  0.81220077  1
  H+  H293  1  0.22551522  0.12074896  0.16985046  1
  H+  H294  1  0.09756061  0.68558312  0.44334965  1
  H+  H295  1  0.07062248  0.90945592  0.77041761  1
  H+  H296  1  0.18026225  0.59688776  0.60238364  1
  H+  H297  1  0.57348762  0.17395839  0.74377687  1
  H+  H298  1  0.58669720  0.91694703  0.10511665  1
  H+  H299  1  0.63989991  0.27241752  0.66307861  1
  H+  H300  1  0.09749974  0.23389687  0.34990144  1
  H+  H301  1  0.83883186  0.42161046  0.10565514  1
  H+  H302  1  0.84245062  0.16996279  0.07700928  1
  H+  H303  1  0.77101010  0.90231002  0.49492681  1
  H+  H304  1  0.85560473  0.57922550  0.21558195  1
  H+  H305  1  0.32279539  0.39996541  0.43359397  1
  H+  H306  1  0.39129473  0.03395010  0.49938300  1
  H+  H307  1  0.90632836  0.31421645  0.57737667  1
  H+  H308  1  0.73221146  0.86040429  0.64001445  1
  H+  H309  1  0.17246247  0.59168409  0.88527835  1
  H+  H310  1  0.91224135  0.83902765  0.23596472  1
  H+  H311  1  0.57680762  0.68605004  0.75533049  1
  H+  H312  1  0.68923320  0.34093420  0.26613510  1
  H+  H313  1  0.86943256  0.71289070  0.83809032  1
  H+  H314  1  0.36879367  0.14214798  0.52411504  1
  H+  H315  1  0.42097760  0.83837299  0.26971622  1
  H+  H316  1  0.36428326  0.73063254  0.15733616  1
  H+  H317  1  0.59774857  0.13550654  0.34691509  1
  H+  H318  1  0.33332489  0.67045339  0.06085921  1
  H+  H319  1  0.20477234  0.81696938  0.26423589  1
  H+  H320  1  0.58445753  0.41447551  0.09508585  1
  H+  H321  1  0.44533928  0.11059922  0.93024070  1
  H+  H322  1  0.90020233  0.08402621  0.28091953  1
  H+  H323  1  0.92168333  0.39818350  0.92347669  1
  H+  H324  1  0.91670083  0.82591853  0.90344748  1
  H+  H325  1  0.91929509  0.59513054  0.94111272  1
  H+  H326  1  0.68594314  0.10092317  0.95054596  1
  H+  H327  1  0.34216642  -0.03742328  0.66614015  1
  H+  H328  1  0.18053677  0.61771039  0.28400853  1
  H+  H329  1  0.41894637  0.60489693  0.88310314  1
  H+  H330  1  0.90632383  0.08142752  0.90040633  1
  H+  H331  1  0.33647972  0.16957490  0.09628521  1
  H+  H332  1  0.81536223  0.91482030  0.71790713  1
  H+  H333  1  0.08685107  0.13932640  0.05316412  1
  H+  H334  1  0.16366387  0.33422387  0.27289294  1
  H+  H335  1  0.61261088  0.47500104  0.00416968  1
  H+  H336  1  0.32169858  0.16898407  0.38185229  1
  H+  H337  1  0.62180499  0.46784628  0.67913434  1
  H+  H338  1  0.65149628  0.57168046  0.59330289  1
  H+  H339  1  0.87668183  0.69331268  0.40780016  1
  H+  H340  1  0.12074290  0.26638718  0.61111860  1
  H+  H341  1  0.07273035  0.68562532  0.73198866  1
  H+  H342  1  0.38612389  0.86288631  0.17214454  1
  H+  H343  1  0.66434054  0.83142566  0.23754745  1
  H+  H344  1  0.34188786  0.41955705  0.76962168  1
  H+  H345  1  0.64240517  0.57711178  0.22344225  1
  H+  H346  1  0.16449327  0.83732660  0.90031086  1
  H+  H347  1  0.41972574  0.58022257  0.59972990  1
  H+  H348  1  0.84633558  0.40993567  0.40652924  1
  H+  H349  1  0.73497842  0.76677299  0.87259935  1
  H+  H350  1  0.66697061  0.83395525  0.55610895  1
  H+  H351  1  0.66899954  0.14564951  0.85926449  1
  H+  H352  1  0.05103769  0.15665491  0.76529196  1
  H+  H353  1  0.58555298  0.92914768  0.43210290  1
  H+  H354  1  0.66458832  0.07945578  0.26162399  1
  H+  H355  1  0.10976874  0.46378380  0.15058550  1
  H+  H356  1  0.31805881  0.41064795  0.09785288  1
  H+  H357  1  0.14112715  0.86194784  0.18036743  1
  H+  H358  1  0.92320033  0.57379893  0.25490853  1
  H+  H359  1  0.58681388  0.40576943  0.44377778  1
  H+  H360  1  0.13911644  0.06421967  0.60197602  1
  H+  H361  1  0.92220360  0.52931864  0.87063038  1
  H+  H362  1  0.39506561  0.07270023  0.22366651  1
  H+  H363  1  0.76919274  0.63992736  0.49400113  1
  H+  H364  1  0.41600132  0.32614081  0.92946273  1
  H+  H365  1  0.93526719  0.55542022  0.57491341  1
  H+  H366  1  0.82247675  0.39525922  0.75098806  1
  H+  H367  1  0.67659743  0.33301260  0.93819396  1
  H+  H368  1  0.06764769  0.40278410  0.43093411  1
  H+  H369  1  0.86645856  0.46196009  0.66398111  1
  H+  H370  1  0.38525834  0.88619490  0.50314524  1
  H+  H371  1  0.08269879  0.40361818  0.05927226  1
  H+  H372  1  0.58317944  0.40158356  0.77369456  1
  H+  H373  1  0.82758933  0.92401566  0.40684247  1
  H+  H374  1  0.18509464  0.55135818  0.21644432  1
  H+  H375  1  0.08111342  0.90963645  0.07256341  1
  H+  H376  1  0.12427379  0.35403693  0.17780209  1
  H+  H377  1  0.15403892  0.09702322  0.26421956  1
  H+  H378  1  0.03873059  0.17634262  0.11691293  1
  H+  H379  1  0.43684861  0.85612942  0.90974057  1
  H+  H380  1  0.67087611  0.32500369  0.56922732  1
  H+  H381  1  0.87817404  0.68581954  0.74427635  1
  H+  H382  1  0.34452193  0.66259882  0.44082844  1
  H+  H383  1  0.57912495  0.88408707  0.71262386  1
  O2-  O384  1  0.06599783  0.16683713  0.15206991  1
  O2-  O385  1  0.06448741  0.17562598  0.49309127  1
  O2-  O386  1  0.06330790  0.16503979  0.80924406  1
  O2-  O387  1  0.07741024  0.40092628  0.14183350  1
  O2-  O388  1  0.05780301  0.38324552  0.47307489  1
  O2-  O389  1  0.08673015  0.41988245  0.79619363  1
  O2-  O390  1  0.08461268  0.66429869  0.17632499  1
  O2-  O391  1  0.09659023  0.69437014  0.48805996  1
  O2-  O392  1  0.09844698  0.68514597  0.80760948  1
  O2-  O393  1  0.08493414  0.91409274  0.15296188  1
  O2-  O394  1  0.06873796  0.93121976  0.47300281  1
  O2-  O395  1  0.07748716  0.91841864  0.81537281  1
  O2-  O396  1  0.34040337  0.17505500  0.14242626  1
  O2-  O397  1  0.33592345  0.17246525  0.53531867  1
  O2-  O398  1  0.30836833  0.16776065  0.79498329  1
  O2-  O399  1  0.30399595  0.43611897  0.13353281  1
  O2-  O400  1  0.32410787  0.39560772  0.47869061  1
  O2-  O401  1  0.33756329  0.41652956  0.81609779  1
  O2-  O402  1  0.33680759  0.67033136  0.14032246  1
  O2-  O403  1  0.32500179  0.63922408  0.48163072  1
  O2-  O404  1  0.32763129  0.65675791  0.79719318  1
  O2-  O405  1  0.33402483  0.91536754  0.14456590  1
  O2-  O406  1  0.33478693  0.94371861  0.47108092  1
  O2-  O407  1  0.33695731  0.92980848  0.83209608  1
  O2-  O408  1  0.58308848  0.16171756  0.15435870  1
  O2-  O409  1  0.59296181  0.15682115  0.50028425  1
  O2-  O410  1  0.59693364  0.16447481  0.81543912  1
  O2-  O411  1  0.58080123  0.41316761  0.14098574  1
  O2-  O412  1  0.57791805  0.40252226  0.48843847  1
  O2-  O413  1  0.57866419  0.39781592  0.81893728  1
  O2-  O414  1  0.59207445  0.67479917  0.14127634  1
  O2-  O415  1  0.58280712  0.65424239  0.48469904  1
  O2-  O416  1  0.56732918  0.69724784  0.79826601  1
  O2-  O417  1  0.58413022  0.91823181  0.15065247  1
  O2-  O418  1  0.58469839  0.92737638  0.47696505  1
  O2-  O419  1  0.54739772  0.83602764  0.78297751  1
  O2-  O420  1  0.83362573  0.16928398  0.15838281  1
  O2-  O421  1  0.83761076  0.13150323  0.49664369  1
  O2-  O422  1  0.82091772  0.14250523  0.79714342  1
  O2-  O423  1  0.83485320  0.41208531  0.15117648  1
  O2-  O424  1  0.83051785  0.39314231  0.48006024  1
  O2-  O425  1  0.81616719  0.40441827  0.79498560  1
  O2-  O426  1  0.82342471  0.67281283  0.14239318  1
  O2-  O427  1  0.83190566  0.67395089  0.48201137  1
  O2-  O428  1  0.84336704  0.65303277  0.82049262  1
  O2-  O429  1  0.83105558  0.92066517  0.15070799  1
  O2-  O430  1  0.83310689  0.93571133  0.48247764  1
  O2-  O431  1  0.80235769  0.93272946  0.79127125  1
  O2-  O432  1  0.16580481  0.08996003  0.18540555  1
  O2-  O433  1  0.14750442  0.08937463  0.52647395  1
  O2-  O434  1  0.15785388  0.09077471  0.83075187  1
  O2-  O435  1  0.15628969  0.32606628  0.19545161  1
  O2-  O436  1  0.16604517  0.34992374  0.52429418  1
  O2-  O437  1  0.16721177  0.32559471  0.84595258  1
  O2-  O438  1  0.17562626  0.56789117  0.17630998  1
  O2-  O439  1  0.17578181  0.60621393  0.53245502  1
  O2-  O440  1  0.17221819  0.59582873  0.84061212  1
  O2-  O441  1  0.17576476  0.83465319  0.19100639  1
  O2-  O442  1  0.17004009  0.86348238  0.51205468  1
  O2-  O443  1  0.16973925  0.84370589  0.85524777  1
  O2-  O444  1  0.40852991  0.08529896  0.17785614  1
  O2-  O445  1  0.42847469  0.09260433  0.52026690  1
  O2-  O446  1  0.43592948  0.07920287  0.86234269  1
  O2-  O447  1  0.41999525  0.32578457  0.17170926  1
  O2-  O448  1  0.41635779  0.33451341  0.51522742  1
  O2-  O449  1  0.40861964  0.32607728  0.85412467  1
  O2-  O450  1  0.42652504  0.59220366  0.18151771  1
  O2-  O451  1  0.41916911  0.56478836  0.52117200  1
  O2-  O452  1  0.41004252  0.58817583  0.84006518  1
  O2-  O453  1  0.41409332  0.83009805  0.18692546  1
  O2-  O454  1  0.41078275  0.85258051  0.51909662  1
  O2-  O455  1  0.44429261  0.87071725  0.86522763  1
  O2-  O456  1  0.66380600  0.07990271  0.19329595  1
  O2-  O457  1  0.67175979  0.07997618  0.52824072  1
  O2-  O458  1  0.71305051  0.14640514  0.88663013  1
  O2-  O459  1  0.66965180  0.33236568  0.18948671  1
  O2-  O460  1  0.66561094  0.32110560  0.52325713  1
  O2-  O461  1  0.66776454  0.32443541  0.85955551  1
  O2-  O462  1  0.65730727  0.58022794  0.17989081  1
  O2-  O463  1  0.66926803  0.58588875  0.51742254  1
  O2-  O464  1  0.67588705  0.57364498  0.85315889  1
  O2-  O465  1  0.66674927  0.83529156  0.19221883  1
  O2-  O466  1  0.66732921  0.84262506  0.50893402  1
  O2-  O467  1  0.69897937  0.79296578  0.86952566  1
  O2-  O468  1  0.90178155  0.07551544  0.20334546  1
  O2-  O469  1  0.88633362  0.10173616  0.53333587  1
  O2-  O470  1  0.90658730  0.08283104  0.85529739  1
  O2-  O471  1  0.91786951  0.33428474  0.19436356  1
  O2-  O472  1  0.89158578  0.28705058  0.48563452  1
  O2-  O473  1  0.92957152  0.44068292  0.89216816  1
  O2-  O474  1  0.90227466  0.56684106  0.21109341  1
  O2-  O475  1  0.95387506  0.54334557  0.53431157  1
  O2-  O476  1  0.93239648  0.57511021  0.84111506  1
  O2-  O477  1  0.91663321  0.84011894  0.19028518  1
  O2-  O478  1  0.91614272  0.84890089  0.51686209  1
  O2-  O479  1  0.91111605  0.81372454  0.85934569  1
  O2-  O480  1  0.15421436  0.10237731  0.30937854  1
  O2-  O481  1  0.14324470  0.05858820  0.64686111  1
  O2-  O482  1  0.16277630  0.06822630  0.97753471  1
  O2-  O483  1  0.16375458  0.34009104  0.31814334  1
  O2-  O484  1  0.13183318  0.28445725  0.65345497  1
  O2-  O485  1  0.15378165  0.30953296  0.97519134  1
  O2-  O486  1  0.17741661  0.59353829  0.32428378  1
  O2-  O487  1  0.18051086  0.58167166  0.64740979  1
  O2-  O488  1  0.16231034  0.58065944  0.97098351  1
  O2-  O489  1  0.22138380  0.79593188  0.30062957  1
  O2-  O490  1  0.15530817  0.82345718  0.63757637  1
  O2-  O491  1  0.16436499  0.83190148  0.97934002  1
  O2-  O492  1  0.35619970  0.04413327  0.28651490  1
  O2-  O493  1  0.40619851  0.07922094  0.64067512  1
  O2-  O494  1  0.45717903  0.14096256  0.97131006  1
  O2-  O495  1  0.40484207  0.32493239  0.29303797  1
  O2-  O496  1  0.42828835  0.33854070  0.65205770  1
  O2-  O497  1  0.41855035  0.32443298  0.97545723  1
  O2-  O498  1  0.36893926  0.56232703  0.29910383  1
  O2-  O499  1  0.42081915  0.58771224  0.64467801  1
  O2-  O500  1  0.43452185  0.62067567  0.96834300  1
  O2-  O501  1  0.42823652  0.84152698  0.31457377  1
  O2-  O502  1  0.39267611  0.82959297  0.64156961  1
  O2-  O503  1  0.42253530  0.83807254  0.98518280  1
  O2-  O504  1  0.66555357  0.07809667  0.30897085  1
  O2-  O505  1  0.69257852  0.08003585  0.65843944  1
  O2-  O506  1  0.67465318  0.08390827  0.99528334  1
  O2-  O507  1  0.69938147  0.34489935  0.31112440  1
  O2-  O508  1  0.67518216  0.32895257  0.64287146  1
  O2-  O509  1  0.67623965  0.33831990  0.98356002  1
  O2-  O510  1  0.60271909  0.56554215  0.30536013  1
  O2-  O511  1  0.62674370  0.55534676  0.63562501  1
  O2-  O512  1  0.66065562  0.57738275  0.98068849  1
  O2-  O513  1  0.66224950  0.83656347  0.31729784  1
  O2-  O514  1  0.67092469  0.82810719  0.62338325  1
  O2-  O515  1  0.67069073  0.83709569  0.98146224  1
  O2-  O516  1  0.89839578  0.08798737  0.32618148  1
  O2-  O517  1  0.95779121  0.08746429  0.65822418  1
  O2-  O518  1  0.91091560  0.07783754  0.98020405  1
  O2-  O519  1  0.93359572  0.35130869  0.31136894  1
  O2-  O520  1  0.92087360  0.32928612  0.62023251  1
  O2-  O521  1  0.91004859  0.33089170  0.99122458  1
  O2-  O522  1  0.94299993  0.59021785  0.32616448  1
  O2-  O523  1  0.91301910  0.56774402  0.64448379  1
  O2-  O524  1  0.91760053  0.59331658  0.98552074  1
  O2-  O525  1  0.90953359  0.84409824  0.31232148  1
  O2-  O526  1  0.96715200  0.87423780  0.68114962  1
  O2-  O527  1  0.92092002  0.83979983  0.98457455  1
  O2-  O528  1  0.08028086  0.14223882  0.00944270  1
  O2-  O529  1  0.06574802  0.17363663  0.36446670  1
  O2-  O530  1  0.03030896  0.11338592  0.68758628  1
  O2-  O531  1  0.08218837  0.40653688  0.01437708  1
  O2-  O532  1  0.08285968  0.42400601  0.34478963  1
  O2-  O533  1  0.10427629  0.41422870  0.62879018  1
  O2-  O534  1  0.07624274  0.66210243  0.01531196  1
  O2-  O535  1  0.10474962  0.67198450  0.36807286  1
  O2-  O536  1  0.04760815  0.68683755  0.69181700  1
  O2-  O537  1  0.08192969  0.90919774  0.02732915  1
  O2-  O538  1  0.06980496  0.94640845  0.35729764  1
  O2-  O539  1  0.05559972  0.89697049  0.69397333  1
  O2-  O540  1  0.33206187  0.16456723  0.02289119  1
  O2-  O541  1  0.31635543  0.16983100  0.33786979  1
  O2-  O542  1  0.31212388  0.15496174  0.67295946  1
  O2-  O543  1  0.32310713  0.37946770  0.02523348  1
  O2-  O544  1  0.33214176  0.41098925  0.35447850  1
  O2-  O545  1  0.35014368  0.42549474  0.69829113  1
  O2-  O546  1  0.33238852  0.67078555  0.01556434  1
  O2-  O547  1  0.35336596  0.68051670  0.35462058  1
  O2-  O548  1  0.32590623  0.65685652  0.68548086  1
  O2-  O549  1  0.33342023  0.91456286  0.02570498  1
  O2-  O550  1  0.38063467  0.94142403  0.35695071  1
  O2-  O551  1  0.30940524  0.90378501  0.68166877  1
  O2-  O552  1  0.60465695  0.17541289  0.03291641  1
  O2-  O553  1  0.58306681  0.17785208  0.36118191  1
  O2-  O554  1  0.55452190  0.18943642  0.70476022  1
  O2-  O555  1  0.58282516  0.41353527  0.01886049  1
  O2-  O556  1  0.62028925  0.43152738  0.36689644  1
  O2-  O557  1  0.59741046  0.40901484  0.69593550  1
  O2-  O558  1  0.59167010  0.67585805  0.02052220  1
  O2-  O559  1  0.56552295  0.67598594  0.37057096  1
  O2-  O560  1  0.58914174  0.67860754  0.67909571  1
  O2-  O561  1  0.58613761  0.91642380  0.02672283  1
  O2-  O562  1  0.58883142  0.92882189  0.34762591  1
  O2-  O563  1  0.60043102  0.90546951  0.67095913  1
  O2-  O564  1  0.84143348  0.16711568  0.03190643  1
  O2-  O565  1  0.81595007  0.17323973  0.35246357  1
  O2-  O566  1  0.87108910  0.18073411  0.67790635  1
  O2-  O567  1  0.83945147  0.42784494  0.03074447  1
  O2-  O568  1  0.85566378  0.42053443  0.36091523  1
  O2-  O569  1  0.83620116  0.39934052  0.67403863  1
  O2-  O570  1  0.82763232  0.67117642  0.01605330  1
  O2-  O571  1  0.90698356  0.70334186  0.36846731  1
  O2-  O572  1  0.90347968  0.70486969  0.70290088  1
  O2-  O573  1  0.83164818  0.91725991  0.02517947  1
  O2-  O574  1  0.82327781  0.91962436  0.36115231  1
  O2-  O575  1  0.82098499  0.90743760  0.67340040  1
