# generated using pymatgen
data_H2O
_symmetry_space_group_name_H-M   'P 1'
_cell_length_a   18.00223302
_cell_length_b   17.99246691
_cell_length_c   22.00404058
_cell_angle_alpha   90.00813943
_cell_angle_beta   90.02115762
_cell_angle_gamma   119.98976926
_symmetry_Int_Tables_number   1
_chemical_formula_structural   H2O
_chemical_formula_sum   'H384 O192'
_cell_volume   6172.97990219
_cell_formula_units_Z   192
loop_
 _symmetry_equiv_pos_site_id
 _symmetry_equiv_pos_as_xyz
  1  'x, y, z'
loop_
 _atom_type_symbol
 _atom_type_oxidation_number
  H+  1.0
  O2-  -2.0
loop_
 _atom_site_type_symbol
 _atom_site_label
 _atom_site_symmetry_multiplicity
 _atom_site_fract_x
 _atom_site_fract_y
 _atom_site_fract_z
 _atom_site_occupancy
  H+  H0  1  0.91718099  0.08399012  0.07276789  1
  H+  H1  1  -0.03005536  0.36035193  0.18764529  1
  H+  H2  1  0.78768469  0.37975011  0.85062201  1
  H+  H3  1  0.70831053  0.86861415  0.98979615  1
  H+  H4  1  0.14255281  0.74802256  0.33715189  1
  H+  H5  1  0.33737025  0.09413950  0.31026417  1
  H+  H6  1  0.76541264  0.88227822  0.82448113  1
  H+  H7  1  0.14028473  0.61499598  0.84282050  1
  H+  H8  1  0.33466598  0.16375057  0.72351871  1
  H+  H9  1  0.88446951  0.02158275  0.84005730  1
  H+  H10  1  0.77198475  0.37814316  0.15702013  1
  H+  H11  1  0.38208292  0.23682489  0.80758520  1
  H+  H12  1  0.63993867  0.40106867  0.00121350  1
  H+  H13  1  0.15976915  1.03275092  0.54081923  1
  H+  H14  1  0.58373549  0.10796006  0.81476558  1
  H+  H15  1  0.15140963  0.77485037  0.99942710  1
  H+  H16  1  0.37063445  0.88978175  0.15589943  1
  H+  H17  1  0.12525877  0.47249416  0.83354689  1
  H+  H18  1  0.11439778  0.91328393  0.67062328  1
  H+  H19  1  0.35420079  0.88170078  0.82703564  1
  H+  H20  1  0.86836800  0.37055135  -0.00150048  1
  H+  H21  1  0.60646382  0.89181559  0.67606691  1
  H+  H22  1  0.60840698  0.99435779  0.82491046  1
  H+  H23  1  0.23608081  0.61742662  0.99425557  1
  H+  H24  1  0.72696215  0.61526710  0.66977116  1
  H+  H25  1  0.48379295  0.87204387  0.32690731  1
  H+  H26  1  0.13586557  0.39192145  -0.00341865  1
  H+  H27  1  0.61121939  0.47015014  0.15233336  1
  H+  H28  1  0.37211564  0.00723232  0.16279376  1
  H+  H29  1  0.61459134  0.97767485  0.50199353  1
  H+  H30  1  0.49803598  0.13259297  0.67829364  1
  H+  H31  1  0.14139579  0.62339205  0.67653895  1
  H+  H32  1  0.65469326  0.12578635  0.34090580  1
  H+  H33  1  0.11979043  1.00002389  0.15064347  1
  H+  H34  1  0.36894492  0.47719660  1.00292531  1
  H+  H35  1  0.37059328  0.14135841  0.81095558  1
  H+  H36  1  0.12439233  0.88953375  0.51831069  1
  H+  H37  1  0.77416111  0.64104961  0.83204196  1
  H+  H38  1  0.46805257  0.87775283  0.83378857  1
  H+  H39  1  0.04317611  0.62087256  0.47374906  1
  H+  H40  1  0.04008669  0.90559929  0.14174429  1
  H+  H41  1  0.60821377  0.63842335  0.82518040  1
  H+  H42  1  0.85624493  0.62300625  0.68567971  1
  H+  H43  1  0.69858788  0.58929633  0.99788359  1
  H+  H44  1  0.18586734  0.33582237  0.91716085  1
  H+  H45  1  0.53361290  0.39795925  0.83327132  1
  H+  H46  1  0.89497311  0.51052247  0.31763206  1
  H+  H47  1  0.62112812  0.38715351  0.16134675  1
  H+  H48  1  0.39534720  0.36686144  0.98595221  1
  H+  H49  1  0.34873490  0.67636559  0.39591275  1
  H+  H50  1  0.60631879  0.75916142  0.51695599  1
  H+  H51  1  0.85675695  0.88337098  0.82813649  1
  H+  H52  1  0.85540350  0.61616761  0.15837913  1
  H+  H53  1  0.86547412  0.83539959  0.66698770  1
  H+  H54  1  0.13967454  0.27542931  0.99048155  1
  H+  H55  1  0.86533794  0.22947902  0.01528919  1
  H+  H56  1  0.60781940  0.46871054  0.49717994  1
  H+  H57  1  0.05396856  0.91002116  0.36480674  1
  H+  H58  1  0.89371935  0.85511885  0.15639956  1
  H+  H59  1  0.37065330  0.01450742  0.83413599  1
  H+  H60  1  0.36145359  0.64596602  0.15614134  1
  H+  H61  1  0.43265456  0.32106776  0.64644452  1
  H+  H62  1  0.38617903  0.26842931  0.49466960  1
  H+  H63  1  0.37326835  0.89235885  0.00200439  1
  H+  H64  1  0.45270096  0.10655305  0.16885295  1
  H+  H65  1  0.77390102  0.14389296  1.02012645  1
  H+  H66  1  0.77268171  0.38860141  0.50286651  1
  H+  H67  1  0.24894876  0.11470305  0.52764827  1
  H+  H68  1  0.50145610  0.07840597  0.29201763  1
  H+  H69  1  0.47459748  0.86440362  -0.00987044  1
  H+  H70  1  0.98863875  0.87444899  0.53048825  1
  H+  H71  1  0.86867841  0.38303336  0.34819722  1
  H+  H72  1  0.37694418  0.51043160  0.32932540  1
  H+  H73  1  0.74662489  0.33972397  0.94793995  1
  H+  H74  1  0.89312582  0.27487404  0.34244225  1
  H+  H75  1  0.61488974  0.63786812  0.15670500  1
  H+  H76  1  0.38851423  0.74429948  0.49073826  1
  H+  H77  1  0.20766742  0.81127356  0.56102309  1
  H+  H78  1  0.55584200  0.15554937  0.36677704  1
  H+  H79  1  0.71714028  0.61605702  0.51191077  1
  H+  H80  1  0.13706248  0.53644393  0.65536622  1
  H+  H81  1  0.75953583  0.11492758  0.51081080  1
  H+  H82  1  0.97583566  0.10724434  0.84204473  1
  H+  H83  1  0.12780916  0.64503233  0.00705142  1
  H+  H84  1  0.60881930  0.97764610  0.65603901  1
  H+  H85  1  0.64549963  0.27684892  0.51847139  1
  H+  H86  1  0.88473229  0.11298617  0.51120882  1
  H+  H87  1  0.42070339  0.84044741  0.56687514  1
  H+  H88  1  0.14514069  0.36232544  0.84353165  1
  H+  H89  1  0.63305862  0.77578594  0.82991692  1
  H+  H90  1  0.35421510  0.13534751  0.99667004  1
  H+  H91  1  0.38510716  0.61814896  0.99784677  1
  H+  H92  1  0.14499756  1.03981009  -0.03044285  1
  H+  H93  1  1.02313119  0.63201232  0.15722037  1
  H+  H94  1  0.11136656  0.73036845  0.84102042  1
  H+  H95  1  0.37850957  0.10668397  0.66001485  1
  H+  H96  1  0.38343266  0.61364912  0.84039286  1
  H+  H97  1  0.02249911  0.64012106  0.83970848  1
  H+  H98  1  0.60188675  0.19553772  0.84523861  1
  H+  H99  1  0.36584506  0.73321703  0.00646544  1
  H+  H100  1  0.48405272  0.86766001  0.16940607  1
  H+  H101  1  0.90459848  0.61658962  0.51416284  1
  H+  H102  1  0.36842805  0.46909740  0.14771117  1
  H+  H103  1  0.82410249  0.40604228  0.78213002  1
  H+  H104  1  1.03625202  0.15877493  1.00057622  1
  H+  H105  1  0.83971826  0.20798789  0.50729883  1
  H+  H106  1  0.60102440  0.88463054  1.00256935  1
  H+  H107  1  0.24863558  0.36587513  -0.01461640  1
  H+  H108  1  0.11472615  0.23251250  0.49802224  1
  H+  H109  1  0.86192533  0.63611918  0.83237919  1
  H+  H110  1  0.82704940  0.67440410  0.30026902  1
  H+  H111  1  0.02938342  0.39475328  0.34257936  1
  H+  H112  1  0.56724060  0.63946464  0.44886857  1
  H+  H113  1  0.71348098  0.85619227  0.66497667  1
  H+  H114  1  0.58694783  0.67319199  0.06371197  1
  H+  H115  1  0.60108542  0.21901395  -0.03430498  1
  H+  H116  1  0.23552564  0.36149988  0.83791041  1
  H+  H117  1  0.36440183  0.47840821  0.82611383  1
  H+  H118  1  0.60471455  0.63609879  0.67491627  1
  H+  H119  1  0.87460536  0.94752075  0.68071514  1
  H+  H120  1  0.89854521  0.87510786  0.52251860  1
  H+  H121  1  0.50297143  0.12092793  0.28921372  1
  H+  H122  1  0.85749174  0.58001831  -0.00773454  1
  H+  H123  1  0.33690093  0.41595529  0.39150418  1
  H+  H124  1  0.02767017  0.14203141  0.13668408  1
  H+  H125  1  0.86728111  0.13319826  0.82596249  1
  H+  H126  1  -0.00996023  0.35887474  -0.01015003  1
  H+  H127  1  0.63868986  0.53142489  0.84111843  1
  H+  H128  1  0.92256499  1.00883416  -0.01287239  1
  H+  H129  1  0.03816439  0.38273057  0.83365477  1
  H+  H130  1  0.39273052  0.36621583  0.83195328  1
  H+  H131  1  0.15517459  0.87324032  0.34027741  1
  H+  H132  1  0.01363349  0.39598126  0.65637605  1
  H+  H133  1  0.35495602  0.47302952  0.67012496  1
  H+  H134  1  0.46994516  0.35215274  0.32545850  1
  H+  H135  1  0.64706590  0.16979670  0.21359896  1
  H+  H136  1  0.28224201  0.64186935  0.33854517  1
  H+  H137  1  0.73783552  0.37376828  0.33210833  1
  H+  H138  1  0.87765326  0.58549707  0.30702415  1
  H+  H139  1  0.47315930  0.86770717  0.65973986  1
  H+  H140  1  0.51230837  0.23066014  0.12463215  1
  H+  H141  1  0.22190367  0.13009076  -0.02516944  1
  H+  H142  1  0.62170734  0.60252757  0.51718247  1
  H+  H143  1  0.86819251  0.35008657  0.51397954  1
  H+  H144  1  0.21896847  0.40842219  0.55911711  1
  H+  H145  1  0.87489933  0.65310145  0.49000337  1
  H+  H146  1  0.37965458  0.13943611  0.49038394  1
  H+  H147  1  0.46248431  0.12224144  0.98156860  1
  H+  H148  1  0.10885692  0.22150758  0.68953276  1
  H+  H149  1  0.26193412  0.14118275  0.33780204  1
  H+  H150  1  0.11991831  0.39732059  0.33840190  1
  H+  H151  1  0.29056856  0.89578609  0.48811273  1
  H+  H152  1  0.87093747  0.49987740  -0.01448765  1
  H+  H153  1  0.88497033  0.51137608  0.15904842  1
  H+  H154  1  0.96315911  0.78224708  0.97263838  1
  H+  H155  1  0.27178233  0.63864394  0.67772028  1
  H+  H156  1  0.26569956  0.88312715  0.82906829  1
  H+  H157  1  0.66614574  1.00706731  0.18756444  1
  H+  H158  1  0.14576423  0.90053576  1.00353775  1
  H+  H159  1  0.48082153  0.62183862  0.15068994  1
  H+  H160  1  0.34530468  0.37849888  0.66785594  1
  H+  H161  1  0.79503599  0.12543327  0.17562675  1
  H+  H162  1  0.51724428  0.63550717  0.82723340  1
  H+  H163  1  0.47968715  0.35775755  0.98475105  1
  H+  H164  1  0.38996727  0.77781558  0.83580170  1
  H+  H165  1  -0.01928784  0.12517435  0.50831556  1
  H+  H166  1  0.15038746  0.76545411  0.50387664  1
  H+  H167  1  0.75580710  0.37879269  0.68731144  1
  H+  H168  1  0.90804845  0.57809069  0.90222388  1
  H+  H169  1  0.46567863  0.60764972  0.65934640  1
  H+  H170  1  0.59416678  0.23274291  0.67790042  1
  H+  H171  1  0.11471699  0.20741891  0.83299711  1
  H+  H172  1  0.14298920  0.53294143  0.32688513  1
  H+  H173  1  0.22802540  0.85423370  0.17272921  1
  H+  H174  1  0.61102008  0.38065101  0.34280902  1
  H+  H175  1  0.02194154  0.13549455  0.68256073  1
  H+  H176  1  0.84449275  0.37742238  0.68663307  1
  H+  H177  1  0.15078997  0.38775639  0.50885306  1
  H+  H178  1  0.82906018  0.69062489  0.01230630  1
  H+  H179  1  0.87199392  0.74636856  0.66314147  1
  H+  H180  1  0.05672700  0.43803349  0.49027999  1
  H+  H181  1  0.37876145  0.89591564  0.49174619  1
  H+  H182  1  0.85983553  0.90884585  0.35707639  1
  H+  H183  1  0.11076999  0.07341465  0.82897072  1
  H+  H184  1  0.91582459  0.32812298  0.27964554  1
  H+  H185  1  0.78598585  0.66525719  0.48969808  1
  H+  H186  1  0.65348865  0.28484392  0.33882877  1
  H+  H187  1  0.62278989  0.77014271  0.66794734  1
  H+  H188  1  0.71724170  0.60064267  0.17336533  1
  H+  H189  1  0.67049137  0.16869406  0.18568832  1
  H+  H190  1  0.62602458  0.36333876  0.66656109  1
  H+  H191  1  0.25925954  0.64389906  0.49109260  1
  H+  H192  1  0.88237725  0.12514799  0.34134655  1
  H+  H193  1  0.14937801  0.52664262  0.99173895  1
  H+  H194  1  0.47548752  0.61979598  0.99548745  1
  H+  H195  1  0.48180643  0.35656194  0.16941135  1
  H+  H196  1  0.35708505  0.22182093  0.33139266  1
  H+  H197  1  0.12331884  0.12412839  0.33287526  1
  H+  H198  1  0.37943285  0.61123347  0.33123747  1
  H+  H199  1  0.40402146  0.03112532  0.50809961  1
  H+  H200  1  0.60424375  0.63443437  1.00328248  1
  H+  H201  1  0.11323497  0.72222422  0.16472654  1
  H+  H202  1  0.85710617  0.37315113  0.15976704  1
  H+  H203  1  0.36913604  0.98093970  0.00191408  1
  H+  H204  1  0.36449098  0.22970859  -0.00258402  1
  H+  H205  1  0.17294951  0.55163371  0.49310826  1
  H+  H206  1  0.12207435  0.15607446  0.15065282  1
  H+  H207  1  0.24265330  0.86561981  0.99647231  1
  H+  H208  1  0.74003910  0.86651256  0.15684203  1
  H+  H209  1  0.37307794  0.38318609  0.15179486  1
  H+  H210  1  0.22622188  0.62005535  0.17554347  1
  H+  H211  1  0.64942700  0.80029873  0.30280292  1
  H+  H212  1  0.73413012  0.88561450  0.32259279  1
  H+  H213  1  0.68906854  0.58274504  0.31599498  1
  H+  H214  1  0.21585992  0.36142662  0.67117764  1
  H+  H215  1  0.35137753  0.12802782  0.14696260  1
  H+  H216  1  0.14021150  0.64879500  0.33223000  1
  H+  H217  1  0.76551454  0.13538987  0.66107467  1
  H+  H218  1  0.88738192  0.26627495  0.18555415  1
  H+  H219  1  0.34871387  0.00404392  0.31396928  1
  H+  H220  1  0.12565223  0.77153964  0.67826849  1
  H+  H221  1  0.74764377  0.13628693  0.85114000  1
  H+  H222  1  0.12304188  0.28119116  0.17426750  1
  H+  H223  1  0.88935420  0.52509581  0.84140798  1
  H+  H224  1  0.53326056  0.41264391  0.70176892  1
  H+  H225  1  0.59013588  0.60609594  0.34464841  1
  H+  H226  1  0.32873655  0.91606232  0.73392414  1
  H+  H227  1  0.14103279  0.99405892  0.36483851  1
  H+  H228  1  0.46955958  0.60486562  0.33578634  1
  H+  H229  1  0.91433927  0.56568124  0.22093358  1
  H+  H230  1  0.60186030  0.69738914  0.36392571  1
  H+  H231  1  0.42574068  0.84411267  0.22948611  1
  H+  H232  1  0.94448116  0.32940710  0.52460002  1
  H+  H233  1  0.02027790  0.15052935  0.34062553  1
  H+  H234  1  0.38156592  0.65004632  0.49130074  1
  H+  H235  1  0.14377847  0.64228674  0.48112016  1
  H+  H236  1  0.90598057  0.86562414  0.99884872  1
  H+  H237  1  0.39529787  0.78279549  0.32322292  1
  H+  H238  1  0.89230899  0.77812226  0.83645619  1
  H+  H239  1  0.83937562  0.41836280  0.40484457  1
  H+  H240  1  0.54119975  0.14158592  0.50965391  1
  H+  H241  1  0.62900630  0.77229364  0.99021259  1
  H+  H242  1  0.11447221  0.36463709  0.17639151  1
  H+  H243  1  0.68656270  0.85482477  0.21743263  1
  H+  H244  1  0.81131681  0.84299731  -0.01161905  1
  H+  H245  1  0.86764664  0.47040169  0.50544959  1
  H+  H246  1  0.64298221  0.03142876  0.33924360  1
  H+  H247  1  0.46059525  0.10186452  0.83608257  1
  H+  H248  1  0.89711008  0.27143707  0.83716566  1
  H+  H249  1  0.87586349  0.98328518  0.50848059  1
  H+  H250  1  0.37939723  0.90021443  0.33545202  1
  H+  H251  1  0.03284670  0.88213722  -0.01472251  1
  H+  H252  1  0.11908110  0.05479741  0.28481547  1
  H+  H253  1  0.98820311  0.62777365  0.54938244  1
  H+  H254  1  0.61779755  0.90026046  0.33880880  1
  H+  H255  1  0.39102082  0.26945388  0.16662015  1
  H+  H256  1  0.27702318  0.64101701  0.82758120  1
  H+  H257  1  0.09948629  0.43513132  0.42699628  1
  H+  H258  1  0.27658842  0.38685364  0.48273670  1
  H+  H259  1  0.63696846  0.11024365  0.99868624  1
  H+  H260  1  0.92077133  0.83131990  0.32161733  1
  H+  H261  1  0.87101841  0.04764696  0.65393246  1
  H+  H262  1  0.00726564  0.92098789  0.81235152  1
  H+  H263  1  0.22526033  0.36837613  0.32102202  1
  H+  H264  1  0.51863510  0.38012920  0.49441625  1
  H+  H265  1  0.10947796  0.49234306  0.16254063  1
  H+  H266  1  0.10009112  0.39358740  0.65867743  1
  H+  H267  1  0.36304706  0.73595407  0.16301242  1
  H+  H268  1  0.13553407  0.61874557  0.17688760  1
  H+  H269  1  0.36278911  0.38154158  0.48236610  1
  H+  H270  1  0.87224863  0.50752919  0.68198414  1
  H+  H271  1  0.50932131  0.61759724  0.50788666  1
  H+  H272  1  0.62242145  0.49057770  0.68071721  1
  H+  H273  1  0.11161619  0.23882427  0.33679921  1
  H+  H274  1  0.60214861  0.49608576  0.32384999  1
  H+  H275  1  0.37745872  0.60949869  0.66067428  1
  H+  H276  1  0.62382742  0.73229162  0.15659457  1
  H+  H277  1  0.23915598  0.13507171  0.15890536  1
  H+  H278  1  0.37971971  0.51815370  0.50587732  1
  H+  H279  1  0.24394037  0.87313786  0.33348571  1
  H+  H280  1  0.41908229  0.33129448  0.88979175  1
  H+  H281  1  0.85332585  0.99234739  0.35231977  1
  H+  H282  1  0.77664262  0.14075799  0.35284964  1
  H+  H283  1  0.40944210  0.58537498  0.10163248  1
  H+  H284  1  0.87359927  0.97161244  0.13219178  1
  H+  H285  1  0.36638201  0.38857422  0.32957676  1
  H+  H286  1  0.61618268  0.88231649  0.15086819  1
  H+  H287  1  0.63306218  0.27934143  0.17832429  1
  H+  H288  1  0.83187246  0.91899920  0.45428566  1
  H+  H289  1  0.21746005  0.08285839  0.62920563  1
  H+  H290  1  0.10875251  0.67777167  0.39657092  1
  H+  H291  1  0.14860717  0.31454266  0.61811758  1
  H+  H292  1  0.17422614  0.59140317  0.26585264  1
  H+  H293  1  0.60145195  0.88289916  0.49711081  1
  H+  H294  1  0.60852989  0.50658332  0.98799485  1
  H+  H295  1  0.96364332  0.92275329  0.29411636  1
  H+  H296  1  0.19564143  0.12996463  0.22198407  1
  H+  H297  1  0.90944985  0.82253596  0.59753119  1
  H+  H298  1  0.57049465  0.95486641  0.76004149  1
  H+  H299  1  0.14206373  0.87326456  0.85652675  1
  H+  H300  1  0.17640859  0.83098316  0.23467399  1
  H+  H301  1  0.36466827  0.05700105  0.24396637  1
  H+  H302  1  0.07792483  0.15305804  0.77174024  1
  H+  H303  1  0.41145109  0.58287115  0.90021485  1
  H+  H304  1  0.89287396  0.11138802  0.13481954  1
  H+  H305  1  0.33765678  0.15782903  0.43144219  1
  H+  H306  1  0.09188940  0.20331600  0.06230912  1
  H+  H307  1  0.10640710  0.41461772  0.05849745  1
  H+  H308  1  0.55295165  0.25816547  0.00421772  1
  H+  H309  1  0.63364973  0.82212225  0.57424333  1
  H+  H310  1  0.83609176  0.17539364  0.11095513  1
  H+  H311  1  0.08209485  0.18335123  0.43530771  1
  H+  H312  1  0.39729677  0.32169655  0.55457124  1
  H+  H313  1  0.15682235  0.33994001  0.26552172  1
  H+  H314  1  0.33631453  0.66809072  0.76794197  1
  H+  H315  1  0.86783601  0.27218363  0.67276867  1
  H+  H316  1  0.65944306  0.83604989  0.88739710  1
  H+  H317  1  0.08173130  0.96708421  0.70240209  1
  H+  H318  1  0.59138164  0.40029354  0.06293264  1
  H+  H319  1  0.34124445  0.24388371  0.64572029  1
  H+  H320  1  0.82957652  0.16002119  0.76797987  1
  H+  H321  1  0.34231178  0.41161900  0.05995323  1
  H+  H322  1  0.26889111  0.88934587  0.67582113  1
  H+  H323  1  0.82106755  0.38867253  0.05279620  1
  H+  H324  1  0.33408747  0.17008304  0.08643503  1
  H+  H325  1  0.39926885  0.07639705  0.92525499  1
  H+  H326  1  0.85979000  0.15028319  0.66763267  1
  H+  H327  1  0.58288294  0.91896061  0.09824494  1
  H+  H328  1  0.60538184  0.42805056  0.78306513  1
  H+  H329  1  0.36335661  0.72502074  0.67391179  1
  H+  H330  1  0.33880934  0.91687458  0.09523166  1
  H+  H331  1  0.56630864  0.17108141  0.74235385  1
  H+  H332  1  0.93887153  0.84234882  0.89174547  1
  H+  H333  1  0.83057788  0.66405226  0.41965202  1
  H+  H334  1  0.69098926  0.17231989  0.88361311  1
  H+  H335  1  0.55598840  0.19264584  0.08524050  1
  H+  H336  1  0.60761256  0.97673916  0.00671039  1
  H+  H337  1  0.56990545  0.66168785  0.73314319  1
  H+  H338  1  0.62885297  0.14026807  0.51998128  1
  H+  H339  1  0.11324748  0.94174569  0.05592115  1
  H+  H340  1  0.48439665  0.87524425  0.50824957  1
  H+  H341  1  0.93557455  0.82337339  0.20679883  1
  H+  H342  1  0.35475127  0.93365588  0.39703491  1
  H+  H343  1  0.57505189  0.40564608  0.40161456  1
  H+  H344  1  0.17446537  0.83841641  0.91167575  1
  H+  H345  1  0.69678740  0.06486620  0.24758207  1
  H+  H346  1  0.88777498  0.32745277  0.61366663  1
  H+  H347  1  0.09809819  0.67339529  0.06671608  1
  H+  H348  1  0.03270675  0.44429029  0.11658854  1
  H+  H349  1  0.10329716  0.92777399  0.46132382  1
  H+  H350  1  0.63628948  0.36139612  0.51159758  1
  H+  H351  1  0.89910348  0.36145713  0.84181559  1
  H+  H352  1  0.61521477  0.18259360  0.42477946  1
  H+  H353  1  0.85797381  0.70730866  0.15294678  1
  H+  H354  1  0.67797028  0.08873184  0.94274001  1
  H+  H355  1  0.82581558  0.89854139  0.74066984  1
  H+  H356  1  0.58644769  0.92272519  0.40217751  1
  H+  H357  1  0.84500372  0.89437811  0.08716305  1
  H+  H358  1  0.67212807  0.33578474  0.23912906  1
  H+  H359  1  0.80644872  0.63483018  0.07238252  1
  H+  H360  1  0.38406625  0.01951890  0.66566335  1
  H+  H361  1  0.81385348  0.64246291  0.37026760  1
  H+  H362  1  0.82943159  0.16280969  0.41530835  1
  H+  H363  1  0.38247282  0.86356735  0.66009954  1
  H+  H364  1  0.66221217  0.59220827  0.89796815  1
  H+  H365  1  0.92886246  0.32625026  0.93137967  1
  H+  H366  1  0.92362299  0.10282656  0.59749767  1
  H+  H367  1  0.01771434  0.63462016  0.69280001  1
  H+  H368  1  0.08044421  0.67176386  0.75022917  1
  H+  H369  1  0.41658528  0.32732299  0.26276397  1
  H+  H370  1  0.17520665  0.58761333  0.89971980  1
  H+  H371  1  0.90119864  0.09351576  0.27844714  1
  H+  H372  1  0.83086345  0.66337944  0.74227071  1
  H+  H373  1  0.41480094  0.83340760  0.92991122  1
  H+  H374  1  0.42512407  0.08596929  0.56927888  1
  H+  H375  1  0.13654348  0.82786861  0.61986600  1
  H+  H376  1  0.92502235  0.07472066  0.93902264  1
  H+  H377  1  0.65730161  0.33185137  0.60793432  1
  H+  H378  1  0.90600512  0.56529549  0.62235628  1
  H+  H379  1  0.64425541  0.56608606  0.22597825  1
  H+  H380  1  0.40327307  0.57383773  0.56894831  1
  H+  H381  1  0.33382030  0.67792313  0.06863791  1
  H+  H382  1  0.33374675  0.41899311  0.76592213  1
  H+  H383  1  0.66753146  0.58446846  0.60949405  1
  O2-  O384  1  0.09034653  0.18500601  0.13640327  1
  O2-  O385  1  0.07718690  0.17643989  0.48004830  1
  O2-  O386  1  0.07746563  0.14848038  0.81816922  1
  O2-  O387  1  0.07052392  0.43430158  0.14291204  1
  O2-  O388  1  0.10860270  0.44261717  0.47295857  1
  O2-  O389  1  0.09997989  0.41104110  0.82262865  1
  O2-  O390  1  0.08559087  0.66200135  0.14760685  1
  O2-  O391  1  0.10199389  0.66664387  0.46606039  1
  O2-  O392  1  0.08360356  0.67044143  0.82528734  1
  O2-  O393  1  0.09976940  0.94473593  0.12987307  1
  O2-  O394  1  0.09493236  0.92063775  0.50583998  1
  O2-  O395  1  0.05285507  0.96570074  0.78595390  1
  O2-  O396  1  0.33461880  0.17028083  0.13313234  1
  O2-  O397  1  0.34555822  0.16599646  0.47582658  1
  O2-  O398  1  0.36151822  0.18175248  0.78540534  1
  O2-  O399  1  0.34325817  0.41029004  0.13163080  1
  O2-  O400  1  0.33610014  0.41554564  0.46651236  1
  O2-  O401  1  0.33621703  0.41760846  0.81122214  1
  O2-  O402  1  0.32787599  0.67529472  0.14803211  1
  O2-  O403  1  0.36039594  0.68566755  0.47111613  1
  O2-  O404  1  0.33842915  0.67071351  0.81358243  1
  O2-  O405  1  0.33687740  0.91683877  0.14109802  1
  O2-  O406  1  0.35090267  0.92826587  0.47419063  1
  O2-  O407  1  0.32436061  0.91199724  0.81058346  1
  O2-  O408  1  0.54107317  0.19705153  0.12830893  1
  O2-  O409  1  0.60397352  0.17307994  0.49960763  1
  O2-  O410  1  0.56780198  0.15288995  0.81142351  1
  O2-  O411  1  0.58698928  0.40897176  0.13920548  1
  O2-  O412  1  0.58008186  0.40951194  0.48058451  1
  O2-  O413  1  0.59695610  0.43256612  0.82673538  1
  O2-  O414  1  0.58897025  0.67203337  0.14115617  1
  O2-  O415  1  0.57109721  0.64490145  0.49363197  1
  O2-  O416  1  0.57588575  0.66612077  0.80886809  1
  O2-  O417  1  0.58554714  0.91473705  0.14352141  1
  O2-  O418  1  0.58288545  0.92317359  0.47881395  1
  O2-  O419  1  0.55580345  0.96827567  0.80084622  1
  O2-  O420  1  0.84937684  0.17077176  0.15533265  1
  O2-  O421  1  0.81730945  0.14923878  0.49045028  1
  O2-  O422  1  0.83842784  0.16605516  0.81255695  1
  O2-  O423  1  0.82984711  0.40221437  0.13832026  1
  O2-  O424  1  0.83329868  0.41316628  0.48722240  1
  O2-  O425  1  0.84065161  0.41264322  0.82587581  1
  O2-  O426  1  0.82075501  0.64454374  0.14620347  1
  O2-  O427  1  0.84420920  0.68450504  0.46761043  1
  O2-  O428  1  0.83468977  0.66949839  0.81644915  1
  O2-  O429  1  0.84421394  0.90703965  0.13125258  1
  O2-  O430  1  0.84933252  0.92162736  0.49684001  1
  O2-  O431  1  0.82759250  0.91277231  0.80980047  1
  O2-  O432  1  0.18127871  0.11196123  0.17975078  1
  O2-  O433  1  0.20046145  0.09055434  0.55624923  1
  O2-  O434  1  0.11904189  0.02197958  0.82907644  1
  O2-  O435  1  0.14421865  0.33746512  0.19498873  1
  O2-  O436  1  0.18517278  0.36480293  0.52880776  1
  O2-  O437  1  0.17684754  0.33012690  0.85699797  1
  O2-  O438  1  0.16662092  0.58806181  0.19285397  1
  O2-  O439  1  0.19673907  0.61326717  0.50257279  1
  O2-  O440  1  0.17371466  0.58659412  0.85421392  1
  O2-  O441  1  0.17014472  0.82052181  0.19071965  1
  O2-  O442  1  0.18451323  0.82249655  0.52414697  1
  O2-  O443  1  0.16817416  0.83820067  0.86522422  1
  O2-  O444  1  0.39215476  0.06785794  0.18102696  1
  O2-  O445  1  0.43296098  0.09100726  0.52431156  1
  O2-  O446  1  0.39978236  0.07540122  0.84936689  1
  O2-  O447  1  0.42216611  0.32771913  0.18580735  1
  O2-  O448  1  0.41091739  0.32905518  0.51028087  1
  O2-  O449  1  0.42400892  0.33595976  0.84460764  1
  O2-  O450  1  0.41677350  0.58991192  0.14576198  1
  O2-  O451  1  0.40852027  0.57724261  0.52302013  1
  O2-  O452  1  0.41247687  0.58144014  0.85511311  1
  O2-  O453  1  0.42299533  0.84059971  0.18429860  1
  O2-  O454  1  0.42227075  0.84165718  0.52101320  1
  O2-  O455  1  0.41205953  0.83671792  0.85316008  1
  O2-  O456  1  0.71688600  0.04590763  0.21229241  1
  O2-  O457  1  0.66687868  0.07609468  0.54874324  1
  O2-  O458  1  0.69188452  0.11842225  0.87243544  1
  O2-  O459  1  0.67120502  0.33816588  0.19360694  1
  O2-  O460  1  0.67181687  0.33901552  0.53048382  1
  O2-  O461  1  0.65301782  0.23428547  0.91064930  1
  O2-  O462  1  0.65407547  0.57246648  0.18134570  1
  O2-  O463  1  0.65994252  0.57679236  0.52949349  1
  O2-  O464  1  0.66796510  0.59488007  0.85310876  1
  O2-  O465  1  0.68047871  0.83913283  0.17372065  1
  O2-  O466  1  0.62080650  0.81705688  0.53004334  1
  O2-  O467  1  0.66672134  0.83686755  0.84301783  1
  O2-  O468  1  0.91998435  0.07848797  0.11720936  1
  O2-  O469  1  0.92197617  0.09086344  0.52739408  1
  O2-  O470  1  0.91475091  0.08073348  0.85706506  1
  O2-  O471  1  0.91029505  0.32657927  0.20233213  1
  O2-  O472  1  0.88500972  0.31049439  0.53468056  1
  O2-  O473  1  0.92936509  0.33031631  0.85503269  1
  O2-  O474  1  0.91244800  0.57131899  0.17525550  1
  O2-  O475  1  0.93067806  0.58475520  0.53515576  1
  O2-  O476  1  0.91482797  0.58537880  0.85617605  1
  O2-  O477  1  0.92357611  0.82092069  0.16351373  1
  O2-  O478  1  0.92571970  0.84130023  0.53928717  1
  O2-  O479  1  0.92009917  0.83975391  0.84895415  1
  O2-  O480  1  0.15174749  0.08919415  0.31965933  1
  O2-  O481  1  0.23280011  0.08249675  0.67378671  1
  O2-  O482  1  0.16379593  0.09926737  0.95770697  1
  O2-  O483  1  0.16315203  0.34074632  0.31194010  1
  O2-  O484  1  0.15298334  0.32813533  0.66146813  1
  O2-  O485  1  0.18805824  0.33944552  0.96775286  1
  O2-  O486  1  0.17710755  0.59399457  0.31224950  1
  O2-  O487  1  0.17500041  0.59987276  0.65759339  1
  O2-  O488  1  0.17639446  0.58704342  0.97755718  1
  O2-  O489  1  0.18184759  0.84177095  0.32136927  1
  O2-  O490  1  0.15870739  0.83159070  0.66079284  1
  O2-  O491  1  0.18149817  0.83644297  0.98230752  1
  O2-  O492  1  0.33529477  0.04294062  0.28733482  1
  O2-  O493  1  0.41644842  0.08124617  0.65059563  1
  O2-  O494  1  0.40196245  0.07908064  0.97106791  1
  O2-  O495  1  0.41061083  0.32633256  0.30835495  1
  O2-  O496  1  0.37547897  0.30614549  0.63247988  1
  O2-  O497  1  0.42066517  0.33245278  0.96901052  1
  O2-  O498  1  0.40949738  0.57711336  0.31805701  1
  O2-  O499  1  0.40509113  0.57645557  0.64409275  1
  O2-  O500  1  0.41358368  0.58514718  0.98410849  1
  O2-  O501  1  0.42393537  0.84349971  0.30971344  1
  O2-  O502  1  0.41290506  0.83421055  0.64391486  1
  O2-  O503  1  0.41358924  0.83263616  0.97560650  1
  O2-  O504  1  0.68030544  0.09192764  0.32496155  1
  O2-  O505  1  0.67241180  0.07337587  0.61023440  1
  O2-  O506  1  0.66735359  0.07981991  0.98824339  1
  O2-  O507  1  0.67630901  0.34152297  0.31831997  1
  O2-  O508  1  0.65057578  0.32691114  0.65335055  1
  O2-  O509  1  0.71177700  0.32879981  0.91022286  1
  O2-  O510  1  0.62687593  0.55647825  0.30702744  1
  O2-  O511  1  0.66608873  0.58635261  0.65462365  1
  O2-  O512  1  0.64098691  0.56848278  0.97877836  1
  O2-  O513  1  0.67922847  0.86230683  0.29799303  1
  O2-  O514  1  0.65257117  0.83116435  0.65361842  1
  O2-  O515  1  0.65148251  0.83177445  0.97284485  1
  O2-  O516  1  0.91076625  0.09335582  0.32211363  1
  O2-  O517  1  0.91745092  0.10480445  0.64385163  1
  O2-  O518  1  0.93809491  0.06911632  0.98233574  1
  O2-  O519  1  0.92295684  0.33426476  0.32503902  1
  O2-  O520  1  0.89507463  0.33341609  0.65841956  1
  O2-  O521  1  0.92911920  0.32818027  0.97715324  1
  O2-  O522  1  0.91769539  0.56597718  0.29558342  1
  O2-  O523  1  0.90580249  0.56909329  0.66681977  1
  O2-  O524  1  0.89438060  0.56074046  0.97338763  1
  O2-  O525  1  0.95028255  0.89190908  0.33275286  1
  O2-  O526  1  0.89633653  0.80759760  0.64728030  1
  O2-  O527  1  0.97016848  0.83918017  0.96753287  1
  O2-  O528  1  0.08042889  0.21387811  0.01940729  1
  O2-  O529  1  0.08157156  0.17851936  0.35352857  1
  O2-  O530  1  0.07946521  0.15997600  0.70066803  1
  O2-  O531  1  0.10271092  0.41759718  0.01412724  1
  O2-  O532  1  0.09158717  0.42982467  0.35442209  1
  O2-  O533  1  0.07401668  0.42665665  0.64280480  1
  O2-  O534  1  0.10393812  0.68080632  0.02200640  1
  O2-  O535  1  0.11315647  0.68374865  0.34992961  1
  O2-  O536  1  0.07856210  0.67203703  0.70431761  1
  O2-  O537  1  0.11604468  0.93465174  0.01067901  1
  O2-  O538  1  0.11418913  0.93330645  0.37754844  1
  O2-  O539  1  0.08615608  0.94655252  0.66201360  1
  O2-  O540  1  0.33178724  0.17099270  0.01545626  1
  O2-  O541  1  0.32328708  0.16025578  0.34561727  1
  O2-  O542  1  0.32265677  0.15236897  0.67579372  1
  O2-  O543  1  0.34251262  0.41501782  0.01338330  1
  O2-  O544  1  0.33831885  0.42104924  0.34561094  1
  O2-  O545  1  0.32270468  0.41312559  0.68702557  1
  O2-  O546  1  0.33790639  0.67341220  0.02358796  1
  O2-  O547  1  0.34432318  0.66971758  0.35020765  1
  O2-  O548  1  0.33495200  0.66534024  0.68989045  1
  O2-  O549  1  0.34406690  0.92226549  0.02036000  1
  O2-  O550  1  0.34907080  0.93063724  0.35141021  1
  O2-  O551  1  0.33045601  0.91919290  0.68820943  1
  O2-  O552  1  0.56097084  0.20819280  0.00414537  1
  O2-  O553  1  0.61605967  0.18735816  0.37886442  1
  O2-  O554  1  0.56155647  0.17200900  0.69587463  1
  O2-  O555  1  0.58616504  0.39387891  0.01729800  1
  O2-  O556  1  0.57295686  0.40361241  0.35606587  1
  O2-  O557  1  0.59341958  0.42949356  0.69715098  1
  O2-  O558  1  0.58254280  0.67273125  0.01821015  1
  O2-  O559  1  0.56216291  0.63588436  0.36727132  1
  O2-  O560  1  0.56995069  0.66248570  0.68727201  1
  O2-  O561  1  0.57328024  0.91542540  0.02066630  1
  O2-  O562  1  0.58421857  0.92507025  0.35647593  1
  O2-  O563  1  0.57845066  0.92698704  0.68335220  1
  O2-  O564  1  0.83161414  0.17548593  0.03856786  1
  O2-  O565  1  0.83698738  0.17103794  0.37002659  1
  O2-  O566  1  0.81907553  0.16704375  0.68540671  1
  O2-  O567  1  0.82620752  0.39007729  0.00794689  1
  O2-  O568  1  0.83923792  0.41601062  0.35980406  1
  O2-  O569  1  0.81505746  0.40848904  0.70392776  1
  O2-  O570  1  0.79826673  0.63154613  0.02665654  1
  O2-  O571  1  0.79892873  0.62336990  0.32629907  1
  O2-  O572  1  0.82796712  0.65754032  0.69621104  1
  O2-  O573  1  0.86212950  0.88231764  0.01148498  1
  O2-  O574  1  0.82051677  0.93073626  0.36545957  1
  O2-  O575  1  0.82658138  0.89278554  0.69375240  1
