# generated using pymatgen
data_H2O
_symmetry_space_group_name_H-M   'P 1'
_cell_length_a   17.94776753
_cell_length_b   17.96368782
_cell_length_c   21.96361166
_cell_angle_alpha   89.99904975
_cell_angle_beta   90.01826325
_cell_angle_gamma   120.01072177
_symmetry_Int_Tables_number   1
_chemical_formula_structural   H2O
_chemical_formula_sum   'H384 O192'
_cell_volume   6131.87599441
_cell_formula_units_Z   192
loop_
 _symmetry_equiv_pos_site_id
 _symmetry_equiv_pos_as_xyz
  1  'x, y, z'
loop_
 _atom_type_symbol
 _atom_type_oxidation_number
  H+  1.0
  O2-  -2.0
loop_
 _atom_site_type_symbol
 _atom_site_label
 _atom_site_symmetry_multiplicity
 _atom_site_fract_x
 _atom_site_fract_y
 _atom_site_fract_z
 _atom_site_occupancy
  H+  H0  1  0.61780752  0.64333773  0.35384565  1
  H+  H1  1  0.77652672  0.88209591  0.33471763  1
  H+  H2  1  0.86353281  0.62522960  0.14395206  1
  H+  H3  1  0.45510327  0.84581767  0.15635901  1
  H+  H4  1  0.63369861  0.77397454  0.84124094  1
  H+  H5  1  0.88522932  0.52153546  0.31663184  1
  H+  H6  1  0.90342583  0.60553292  0.96536324  1
  H+  H7  1  0.52756958  0.14836535  0.15903844  1
  H+  H8  1  0.86355837  0.63117900  0.33592532  1
  H+  H9  1  0.51287538  0.11521362  0.81443103  1
  H+  H10  1  0.12652277  0.97165157  0.66784708  1
  H+  H11  1  0.89672984  0.62209182  0.70143381  1
  H+  H12  1  -0.00272610  0.33428664  0.02165868  1
  H+  H13  1  0.97677727  0.36107152  0.35040786  1
  H+  H14  1  0.11591977  0.50289410  0.17801134  1
  H+  H15  1  0.08412736  0.46445248  0.49884183  1
  H+  H16  1  0.36374589  0.39190969  0.35427020  1
  H+  H17  1  0.11597427  0.59051648  0.16682122  1
  H+  H18  1  0.10055019  0.22415626  0.48222703  1
  H+  H19  1  0.11144776  0.10549173  0.82377311  1
  H+  H20  1  0.23075655  0.36898178  0.33414874  1
  H+  H21  1  0.79642445  0.38968267  0.75912628  1
  H+  H22  1  0.69553961  0.70047615  0.97849307  1
  H+  H23  1  0.83020544  0.64035479  0.82365634  1
  H+  H24  1  0.85925742  0.36054232  0.83256191  1
  H+  H25  1  0.26838047  0.64093110  0.33950335  1
  H+  H26  1  0.12851603  0.75048055  0.50397055  1
  H+  H27  1  -0.00756476  0.60439363  0.14418320  1
  H+  H28  1  -0.01298905  0.86696281  0.65697129  1
  H+  H29  1  0.28432180  0.40438878  0.66811930  1
  H+  H30  1  0.55301003  0.46120109  -0.04401338  1
  H+  H31  1  0.36107148  0.36868124  0.16429447  1
  H+  H32  1  0.63992680  0.32858401  0.90158748  1
  H+  H33  1  0.13289707  0.95438971  0.48071201  1
  H+  H34  1  0.63422691  0.75930601  0.17217550  1
  H+  H35  1  0.28349689  0.14791972  0.19833959  1
  H+  H36  1  0.03117700  0.52637669  0.55773760  1
  H+  H37  1  0.35479567  0.76766019  0.10513586  1
  H+  H38  1  0.39522507  1.03957963  0.17432977  1
  H+  H39  1  -0.01079000  0.62884620  0.71114095  1
  H+  H40  1  0.63030610  0.10231724  0.82682503  1
  H+  H41  1  0.62651673  0.73499167  0.67642432  1
  H+  H42  1  0.38142010  0.87265353  0.16251429  1
  H+  H43  1  0.17021230  0.86343873  0.25354315  1
  H+  H44  1  0.76084843  0.13254074  0.49190267  1
  H+  H45  1  0.10323078  0.73639260  0.33766275  1
  H+  H46  1  0.31482179  0.30657736  0.65790457  1
  H+  H47  1  0.63940008  0.77921210  0.51208258  1
  H+  H48  1  0.89410019  0.78084719  0.65795771  1
  H+  H49  1  0.87490435  0.28377089  0.84995974  1
  H+  H50  1  0.38012953  0.51922411  0.50396055  1
  H+  H51  1  0.51685321  0.38148816  0.68181887  1
  H+  H52  1  0.73405514  0.61107734  0.10543161  1
  H+  H53  1  0.45980839  0.61116423  0.99845875  1
  H+  H54  1  0.86713791  0.49578945  0.16137157  1
  H+  H55  1  0.77118903  0.12886836  0.33699072  1
  H+  H56  1  0.78716167  0.89633418  0.66084509  1
  H+  H57  1  0.30849944  0.43974162  0.76202876  1
  H+  H58  1  0.32594968  0.61940441  0.95411205  1
  H+  H59  1  0.50991912  0.63100762  0.82550012  1
  H+  H60  1  0.10561231  0.88626184  0.82715884  1
  H+  H61  1  0.60792835  0.62847388  0.12308444  1
  H+  H62  1  0.87892312  0.11276101  0.50389466  1
  H+  H63  1  0.63041270  0.36024471  0.67115566  1
  H+  H64  1  0.30293561  0.13541285  0.34825603  1
  H+  H65  1  0.63781705  0.11842886  0.17150526  1
  H+  H66  1  0.58286358  0.90972141  0.43291507  1
  H+  H67  1  0.06946452  0.67148765  0.04826776  1
  H+  H68  1  0.63766480  0.52809472  0.35528809  1
  H+  H69  1  0.86559581  0.88384297  1.01335425  1
  H+  H70  1  -0.02887493  0.10062153  0.00967103  1
  H+  H71  1  0.12593344  0.56842966  0.58212854  1
  H+  H72  1  0.16835575  0.69591595  0.98148157  1
  H+  H73  1  1.00815010  0.36901517  0.17036786  1
  H+  H74  1  0.00543630  0.63031581  0.48570430  1
  H+  H75  1  0.53174752  0.13039775  0.66010541  1
  H+  H76  1  0.37810684  0.04777502  0.98743499  1
  H+  H77  1  0.88954921  0.57458298  0.79071200  1
  H+  H78  1  0.80299906  0.44550841  0.81602132  1
  H+  H79  1  0.87139614  0.32229313  1.00073961  1
  H+  H80  1  0.39643958  0.50139215  0.16489991  1
  H+  H81  1  0.35325502  0.28382006  0.51294824  1
  H+  H82  1  0.07909639  0.69342737  0.14425224  1
  H+  H83  1  0.33086220  0.15174235  0.75069149  1
  H+  H84  1  0.72026728  0.36426662  0.66587356  1
  H+  H85  1  0.13237986  0.62073933  0.32444169  1
  H+  H86  1  0.48907598  0.86775657  0.66054624  1
  H+  H87  1  0.13488113  0.35729884  0.17988156  1
  H+  H88  1  0.77819793  0.64036096  0.67463128  1
  H+  H89  1  0.37429556  1.01867769  0.83739225  1
  H+  H90  1  0.36526885  0.99266654  0.50050549  1
  H+  H91  1  0.84416121  0.17253996  0.73943332  1
  H+  H92  1  0.13923392  0.86015646  0.65520487  1
  H+  H93  1  0.63748959  0.34830990  0.32412752  1
  H+  H94  1  0.37005473  0.63193704  0.49511136  1
  H+  H95  1  0.15212128  0.09485525  0.65627491  1
  H+  H96  1  0.87562124  0.85078281  0.17649618  1
  H+  H97  1  0.51931838  0.87939780  0.33333646  1
  H+  H98  1  0.50345818  0.10629262  0.48793080  1
  H+  H99  1  0.39638770  0.81962986  0.99775844  1
  H+  H100  1  0.86636204  0.88334967  0.33879590  1
  H+  H101  1  0.09849800  0.13510629  0.17299439  1
  H+  H102  1  0.85756454  0.96763695  0.01349554  1
  H+  H103  1  0.61957457  0.63109295  0.84028536  1
  H+  H104  1  0.88854935  0.87471499  0.84808539  1
  H+  H105  1  0.37981357  0.39819691  0.84948291  1
  H+  H106  1  0.27307975  0.64106061  0.82424601  1
  H+  H107  1  0.86827648  0.38860410  0.34553549  1
  H+  H108  1  0.10408125  0.25092115  0.82196484  1
  H+  H109  1  0.13590781  0.90088418  0.99802624  1
  H+  H110  1  0.31993833  0.63796543  0.10585748  1
  H+  H111  1  0.50182879  0.32396819  0.02555985  1
  H+  H112  1  0.07554419  0.16271877  0.42464269  1
  H+  H113  1  0.06025733  0.42330282  0.73944198  1
  H+  H114  1  0.59324690  0.45872797  0.95974640  1
  H+  H115  1  0.52766784  0.64416358  0.35328058  1
  H+  H116  1  0.12695125  0.74389448  0.68175906  1
  H+  H117  1  0.37782482  0.77190416  0.31932447  1
  H+  H118  1  0.71703016  0.13977262  0.98929323  1
  H+  H119  1  0.85524693  0.11678092  0.17655941  1
  H+  H120  1  0.27497728  0.87926923  0.66898644  1
  H+  H121  1  0.73691215  0.11221822  0.66454253  1
  H+  H122  1  0.27230349  0.40880725  0.49371340  1
  H+  H123  1  0.38053976  0.32421469  -0.01202043  1
  H+  H124  1  0.13347495  0.61320274  0.85705966  1
  H+  H125  1  0.72011284  0.85209297  0.17553847  1
  H+  H126  1  0.35284556  0.88139222  0.33119718  1
  H+  H127  1  0.72189393  0.61354510  0.51127873  1
  H+  H128  1  0.57056074  0.16803446  0.06176026  1
  H+  H129  1  0.36481265  0.16626759  -0.01552238  1
  H+  H130  1  0.62681203  0.37351382  0.48941163  1
  H+  H131  1  0.87903985  0.09625383  1.01297664  1
  H+  H132  1  0.38691284  0.62048693  0.83656443  1
  H+  H133  1  0.86173314  0.37780193  -0.07633122  1
  H+  H134  1  0.47404296  0.61376783  0.50442269  1
  H+  H135  1  0.11753915  0.32510181  0.65756641  1
  H+  H136  1  0.67796244  0.33780014  0.83552071  1
  H+  H137  1  0.95135196  0.09359627  0.17784215  1
  H+  H138  1  0.62411319  0.97936826  0.67388503  1
  H+  H139  1  0.88076051  0.60610735  0.50484796  1
  H+  H140  1  0.35622495  0.37951922  0.51055506  1
  H+  H141  1  0.26672712  0.91897394  0.00971515  1
  H+  H142  1  0.96320604  0.36322942  0.65756811  1
  H+  H143  1  0.62357824  0.47351462  0.20038515  1
  H+  H144  1  0.67800234  0.61308356  1.01150002  1
  H+  H145  1  0.13643177  0.35801202  0.98814937  1
  H+  H146  1  0.16161701  0.81088432  0.19343987  1
  H+  H147  1  0.48704020  0.39993446  0.51840379  1
  H+  H148  1  0.63550972  0.52244349  0.66817543  1
  H+  H149  1  0.88652260  0.27103576  0.34987022  1
  H+  H150  1  0.35303670  0.50470788  0.67226424  1
  H+  H151  1  -0.03335167  0.85595478  0.17176006  1
  H+  H152  1  0.38480275  0.58115113  0.16382095  1
  H+  H153  1  0.36744895  0.14480618  0.18039113  1
  H+  H154  1  0.88235634  0.89155393  0.65913164  1
  H+  H155  1  0.40211917  0.63278890  0.65377610  1
  H+  H156  1  0.87002983  0.14867887  0.83942245  1
  H+  H157  1  0.85543984  0.97297070  0.17384242  1
  H+  H158  1  0.02157989  0.12810345  0.77325693  1
  H+  H159  1  0.39323760  0.01428749  0.65773614  1
  H+  H160  1  0.61606652  0.39907742  0.40278437  1
  H+  H161  1  0.16623968  0.22022823  0.66658136  1
  H+  H162  1  0.39392427  0.76911186  0.50827943  1
  H+  H163  1  0.55188883  0.69429243  0.07630493  1
  H+  H164  1  0.35214199  0.91418399  0.00258076  1
  H+  H165  1  0.59211968  0.38612855  0.83548564  1
  H+  H166  1  0.48524145  0.36602614  0.18886218  1
  H+  H167  1  0.23150747  0.62318390  0.65888039  1
  H+  H168  1  0.72734860  0.61414091  0.34411208  1
  H+  H169  1  0.63305109  0.01599780  0.32605576  1
  H+  H170  1  0.07713234  0.42906632  0.01915979  1
  H+  H171  1  0.10352607  0.97437661  0.81802134  1
  H+  H172  1  0.77823124  0.38595910  0.33378007  1
  H+  H173  1  0.99328008  0.84446617  0.49569136  1
  H+  H174  1  0.28260186  0.63618450  0.49745761  1
  H+  H175  1  0.85330478  -0.01792519  0.49237329  1
  H+  H176  1  0.64040608  0.26688657  -0.01227474  1
  H+  H177  1  0.72336833  0.64155576  0.84134806  1
  H+  H178  1  0.39136871  0.52981965  0.34612662  1
  H+  H179  1  0.39022168  0.02213076  0.32843481  1
  H+  H180  1  0.85750714  0.22954041  0.02321795  1
  H+  H181  1  0.81236508  0.66149364  -0.01050588  1
  H+  H182  1  0.38052452  0.24263924  0.66684054  1
  H+  H183  1  0.86638888  0.26543959  0.50231474  1
  H+  H184  1  0.97410117  0.86584849  0.83902902  1
  H+  H185  1  0.38255912  0.23476634  0.34872519  1
  H+  H186  1  0.88129541  0.26688595  0.17719685  1
  H+  H187  1  0.63864941  0.77357050  0.33033912  1
  H+  H188  1  0.85268146  0.74127810  0.83315586  1
  H+  H189  1  0.36248425  0.73046587  0.82141068  1
  H+  H190  1  0.58722252  0.84591517  0.14851443  1
  H+  H191  1  0.53355440  0.65009002  0.67097788  1
  H+  H192  1  0.21641722  0.41359637  0.94664172  1
  H+  H193  1  0.89394990  0.51196159  0.95257464  1
  H+  H194  1  0.61344002  0.64513292  0.50198282  1
  H+  H195  1  0.64110002  0.01490105  1.01101727  1
  H+  H196  1  0.61679560  -0.02317977  0.82590888  1
  H+  H197  1  0.61750927  0.23551833  0.15267510  1
  H+  H198  1  0.73982417  0.36873077  0.16737323  1
  H+  H199  1  0.73179571  0.83308590  0.99819936  1
  H+  H200  1  0.98094892  0.11831240  0.85055567  1
  H+  H201  1  0.42243003  0.21824968  0.49616467  1
  H+  H202  1  0.02586567  0.63405336  0.90319369  1
  H+  H203  1  0.15771814  0.54702542  0.01820051  1
  H+  H204  1  0.90590587  0.57044726  0.21685952  1
  H+  H205  1  0.02085320  0.91254696  0.00617812  1
  H+  H206  1  0.16633309  0.53401982  0.98740828  1
  H+  H207  1  0.25259469  0.58619331  0.15718209  1
  H+  H208  1  0.53053169  0.13250598  0.33968387  1
  H+  H209  1  0.86981623  0.22395049  0.67622769  1
  H+  H210  1  0.11015580  0.22848444  0.16492131  1
  H+  H211  1  0.85992326  0.38540089  0.67035040  1
  H+  H212  1  0.14746568  0.63061157  0.67169904  1
  H+  H213  1  0.11722211  0.48327897  0.34124517  1
  H+  H214  1  0.36192636  0.86945944  0.48950134  1
  H+  H215  1  0.61609068  0.22453927  0.66884808  1
  H+  H216  1  0.96643869  0.11145892  0.49917592  1
  H+  H217  1  0.24761350  0.10169728  0.65950349  1
  H+  H218  1  0.02303276  0.13654369  0.33040832  1
  H+  H219  1  0.64094362  0.61444163  0.66864688  1
  H+  H220  1  0.61568114  0.88411214  0.49413159  1
  H+  H221  1  0.55702176  0.42877120  0.42645023  1
  H+  H222  1  0.97176818  0.61292168  0.31472169  1
  H+  H223  1  0.36574897  0.12721701  0.66620168  1
  H+  H224  1  0.21502425  0.85755806  0.84477125  1
  H+  H225  1  0.12397733  0.86265480  0.48491128  1
  H+  H226  1  0.24299007  0.09456216  0.50963326  1
  H+  H227  1  0.37035288  0.08554287  0.50251268  1
  H+  H228  1  0.48317981  0.36819466  0.34602751  1
  H+  H229  1  0.60862171  0.87855276  0.33491954  1
  H+  H230  1  0.11534388  0.90550306  0.17014016  1
  H+  H231  1  0.09759938  0.01535786  0.20063728  1
  H+  H232  1  0.07218449  0.29102324  0.65008274  1
  H+  H233  1  0.37094064  0.73448416  0.66993148  1
  H+  H234  1  0.30956112  0.59151113  -0.01812233  1
  H+  H235  1  0.12601133  0.77354262  0.86477785  1
  H+  H236  1  0.24815768  0.39140615  0.81864377  1
  H+  H237  1  0.41287562  0.84092982  0.89040655  1
  H+  H238  1  0.86915161  0.98639468  0.84578192  1
  H+  H239  1  0.86494911  0.71668902  0.49413957  1
  H+  H240  1  0.13641393  0.52711716  0.84949612  1
  H+  H241  1  0.88073886  0.35634038  0.17192689  1
  H+  H242  1  0.08718833  0.94000768  0.11148811  1
  H+  H243  1  0.95601447  0.35296209  0.50156322  1
  H+  H244  1  0.65731207  0.87413500  0.66111020  1
  H+  H245  1  0.46292046  0.39181689  0.85667441  1
  H+  H246  1  0.12240343  0.39560515  0.34244007  1
  H+  H247  1  0.91335309  0.78611342  0.99030170  1
  H+  H248  1  0.10146441  0.06705013  0.01320200  1
  H+  H249  1  0.63648939  0.10690803  0.33029556  1
  H+  H250  1  0.62699582  0.76644849  1.00260423  1
  H+  H251  1  0.51096219  0.14420710  0.00003939  1
  H+  H252  1  0.29116695  0.72010399  1.04820448  1
  H+  H253  1  0.11318511  0.22285772  0.33374421  1
  H+  H254  1  0.60530802  0.48159785  0.83473513  1
  H+  H255  1  0.66331215  0.08737691  0.89095301  1
  H+  H256  1  0.87055547  0.72295205  0.34137209  1
  H+  H257  1  0.11440475  0.19971940  0.01320032  1
  H+  H258  1  0.84731569  0.38081703  0.48730286  1
  H+  H259  1  0.28502851  0.36897655  0.00117112  1
  H+  H260  1  0.91103407  0.11818236  0.68732456  1
  H+  H261  1  0.71419619  0.38022463  0.46662362  1
  H+  H262  1  0.87245464  0.47831629  0.69064726  1
  H+  H263  1  0.58351772  0.48485089  0.51641424  1
  H+  H264  1  0.99248348  0.84975837  0.31880375  1
  H+  H265  1  0.28014407  0.91618197  0.16620220  1
  H+  H266  1  0.08789970  0.37920506  0.82824852  1
  H+  H267  1  0.37815644  0.45005595  1.00268945  1
  H+  H268  1  0.12106471  0.36343861  0.50440898  1
  H+  H269  1  0.66955185  0.94484417  0.00848029  1
  H+  H270  1  0.06890788  0.05887442  0.25267244  1
  H+  H271  1  0.62183187  0.12613086  0.98940129  1
  H+  H272  1  0.77774119  0.14084492  0.83060642  1
  H+  H273  1  0.82180601  0.16140067  0.43201876  1
  H+  H274  1  0.75473036  0.06751868  0.04674617  1
  H+  H275  1  0.64212361  0.35101264  0.00197798  1
  H+  H276  1  0.47881876  0.86724034  0.83359834  1
  H+  H277  1  0.22367641  0.83538684  0.50520132  1
  H+  H278  1  0.52449154  0.76230864  0.06112997  1
  H+  H279  1  0.64648064  0.52291116  0.10696398  1
  H+  H280  1  0.88273740  0.51900006  0.49966568  1
  H+  H281  1  0.35152183  0.87842978  0.82394861  1
  H+  H282  1  0.18414607  0.00005416  0.32666948  1
  H+  H283  1  0.64835190  0.11537388  0.66059820  1
  H+  H284  1  0.08889840  0.62288471  0.48891916  1
  H+  H285  1  0.10538849  0.75764064  0.00787765  1
  H+  H286  1  0.26969345  0.12786606  0.80935471  1
  H+  H287  1  0.63189615  0.01571535  0.50933135  1
  H+  H288  1  0.16476042  0.81836094  0.59821353  1
  H+  H289  1  0.33562796  0.66943882  0.72652252  1
  H+  H290  1  0.82467982  0.40280801  0.10387447  1
  H+  H291  1  0.82698129  0.65575748  0.43633789  1
  H+  H292  1  0.55987828  0.37801737  0.08123717  1
  H+  H293  1  0.51760256  0.61700844  0.15250103  1
  H+  H294  1  0.14924489  0.32973683  0.56167534  1
  H+  H295  1  0.59176436  0.91685889  0.73210879  1
  H+  H296  1  0.57857519  0.66541012  0.76715520  1
  H+  H297  1  0.02339014  0.63831268  0.83307587  1
  H+  H298  1  0.70826656  0.64703411  0.22242543  1
  H+  H299  1  0.08587962  0.90902269  0.72693799  1
  H+  H300  1  0.90556915  0.07395814  0.26218449  1
  H+  H301  1  0.57414792  0.14307743  0.75479384  1
  H+  H302  1  0.39165729  0.61839989  0.33947350  1
  H+  H303  1  0.08144368  0.15749938  0.07964362  1
  H+  H304  1  0.07242496  0.66788171  0.39233512  1
  H+  H305  1  0.58088683  0.90259013  0.09573761  1
  H+  H306  1  0.41515911  0.06359287  0.59418923  1
  H+  H307  1  0.48154718  0.86008497  0.50564947  1
  H+  H308  1  0.86150996  0.13003571  0.33860483  1
  H+  H309  1  0.41372335  0.31901155  0.61457520  1
  H+  H310  1  0.86519392  0.71666496  0.14680237  1
  H+  H311  1  0.15186669  0.08063891  0.88074532  1
  H+  H312  1  0.15779720  0.58361505  0.26683408  1
  H+  H313  1  0.28014013  0.31105594  0.59584583  1
  H+  H314  1  0.76980273  0.12972838  0.17253478  1
  H+  H315  1  0.18637935  0.07292464  0.28553727  1
  H+  H316  1  0.16324857  0.86285638  0.94083303  1
  H+  H317  1  0.88792994  0.99057216  0.67812157  1
  H+  H318  1  0.92778517  0.84761174  0.93348260  1
  H+  H319  1  0.63362180  0.39555535  0.17314963  1
  H+  H320  1  0.26669624  0.88912661  0.33959313  1
  H+  H321  1  0.12906683  0.70610857  0.74713489  1
  H+  H322  1  0.58189662  0.15726949  0.40264334  1
  H+  H323  1  0.42804023  0.34169034  0.28347601  1
  H+  H324  1  0.39493053  0.27559990  0.19237693  1
  H+  H325  1  0.22468821  0.35565925  0.17342494  1
  H+  H326  1  0.31588004  0.79238105  0.95939604  1
  H+  H327  1  0.33024695  0.67200476  0.39826229  1
  H+  H328  1  0.33153034  0.42412818  0.41250650  1
  H+  H329  1  0.36355519  0.18167656  0.43641637  1
  H+  H330  1  0.40321067  0.11714825  0.33251397  1
  H+  H331  1  0.78409226  0.37248459  -0.03558615  1
  H+  H332  1  0.72967008  0.87159242  0.50590054  1
  H+  H333  1  0.66616727  0.07662875  0.56869520  1
  H+  H334  1  0.42786987  0.09119354  0.23728738  1
  H+  H335  1  0.37719035  0.10872999  0.82752448  1
  H+  H336  1  0.66754044  0.81756469  0.90505908  1
  H+  H337  1  0.00050545  0.11712863  0.67551287  1
  H+  H338  1  0.42871657  0.59756746  0.59536624  1
  H+  H339  1  0.59762273  0.11924934  0.49409040  1
  H+  H340  1  0.63979974  0.26168129  0.32833509  1
  H+  H341  1  0.67311760  0.32936617  0.22689416  1
  H+  H342  1  0.11829741  0.17246823  0.72799453  1
  H+  H343  1  0.92306345  0.82357897  0.26558955  1
  H+  H344  1  0.65939643  0.08240045  0.23148647  1
  H+  H345  1  0.88268632  0.56761873  0.86716070  1
  H+  H346  1  0.21257337  0.65831363  0.93631924  1
  H+  H347  1  0.82482794  0.91854974  0.43448381  1
  H+  H348  1  0.92310364  0.09045129  0.91288287  1
  H+  H349  1  0.07674388  0.41831773  0.43360885  1
  H+  H350  1  0.66253009  0.82506932  0.26655187  1
  H+  H351  1  0.58752690  0.67663771  0.44085931  1
  H+  H352  1  0.42703246  0.56848132  0.93376954  1
  H+  H353  1  0.14011534  0.31038313  0.88156609  1
  H+  H354  1  0.09771546  0.48462483  0.68180331  1
  H+  H355  1  0.61370572  0.88638134  0.83091668  1
  H+  H356  1  0.18315919  0.05118751  0.56640430  1
  H+  H357  1  0.40233936  0.82567679  0.25702642  1
  H+  H358  1  0.68176381  0.84316935  0.59922703  1
  H+  H359  1  0.82231111  0.13714508  0.09342558  1
  H+  H360  1  0.41089423  0.09646493  0.92312204  1
  H+  H361  1  0.31766436  0.90476305  0.76602679  1
  H+  H362  1  0.66932473  0.61771102  0.90741766  1
  H+  H363  1  0.82900149  0.91047640  0.11318078  1
  H+  H364  1  0.78060058  0.89640810  0.84142128  1
  H+  H365  1  0.82807687  0.68552812  0.73461460  1
  H+  H366  1  0.07079590  0.38904345  0.11293959  1
  H+  H367  1  0.88833908  0.02366760  0.32665625  1
  H+  H368  1  0.33326841  0.38867997  0.09930763  1
  H+  H369  1  0.90160844  0.32471720  0.59777539  1
  H+  H370  1  0.32689452  0.89622488  0.42945713  1
  H+  H371  1  0.17386563  0.33934895  0.27262749  1
  H+  H372  1  0.83344756  0.42105065  0.42575920  1
  H+  H373  1  0.57623699  0.42131875  0.74030914  1
  H+  H374  1  0.32972692  0.94057439  0.10118192  1
  H+  H375  1  0.36543361  0.88060175  0.67376569  1
  H+  H376  1  0.37587829  0.52712605  0.83518834  1
  H+  H377  1  0.93749385  0.82883915  0.55591189  1
  H+  H378  1  0.67039988  0.59234376  0.57467751  1
  H+  H379  1  0.00712716  0.39436595  0.83648054  1
  H+  H380  1  0.66086987  0.61666408  0.22588872  1
  H+  H381  1  0.42782327  0.83610872  0.60114155  1
  H+  H382  1  0.86685718  0.67225437  0.04849881  1
  H+  H383  1  0.11143653  0.88624957  0.38778048  1
  O2-  O384  1  0.07783137  0.16781237  0.14869042  1
  O2-  O385  1  0.06833726  0.16343408  0.46961196  1
  O2-  O386  1  0.06468707  0.15315277  0.80566186  1
  O2-  O387  1  0.07239522  0.39838680  0.15741167  1
  O2-  O388  1  0.06593321  0.40845424  0.47879793  1
  O2-  O389  1  0.06786694  0.42170893  0.82184168  1
  O2-  O390  1  0.05497755  0.63602871  0.12721716  1
  O2-  O391  1  0.06821858  0.65913146  0.46982424  1
  O2-  O392  1  0.06406166  0.65778231  0.86677790  1
  O2-  O393  1  0.07797616  0.92853973  0.15562546  1
  O2-  O394  1  0.10091557  0.89523082  0.46216704  1
  O2-  O395  1  0.07384669  0.91124535  0.80635155  1
  O2-  O396  1  0.33529399  0.17660044  0.17363473  1
  O2-  O397  1  0.36297966  0.18245010  0.48305644  1
  O2-  O398  1  0.33010896  0.15155577  0.79757178  1
  O2-  O399  1  0.32738406  0.39221245  0.14416910  1
  O2-  O400  1  0.33331452  0.43345739  0.48255507  1
  O2-  O401  1  0.30910705  0.43044673  0.80762356  1
  O2-  O402  1  0.30024674  0.58812471  0.13349575  1
  O2-  O403  1  0.34026830  0.66603598  0.48022973  1
  O2-  O404  1  0.33241570  0.66946870  0.80672136  1
  O2-  O405  1  0.33721598  0.93881104  0.14636373  1
  O2-  O406  1  0.32372807  0.89172338  0.47494416  1
  O2-  O407  1  0.31378167  0.90186891  0.81155135  1
  O2-  O408  1  0.58463522  0.17438625  0.13812587  1
  O2-  O409  1  0.56356538  0.14164286  0.47352550  1
  O2-  O410  1  0.57125187  0.13173629  0.79934975  1
  O2-  O411  1  0.60299267  0.43164026  0.16730148  1
  O2-  O412  1  0.54688754  0.42411216  0.50300995  1
  O2-  O413  1  0.57025427  0.42437261  0.81723519  1
  O2-  O414  1  0.57789725  0.65968203  0.13472088  1
  O2-  O415  1  0.58261710  0.67498988  0.48683027  1
  O2-  O416  1  0.57414164  0.66237883  0.81317073  1
  O2-  O417  1  0.54550365  0.85223771  0.12189757  1
  O2-  O418  1  0.58219837  0.91155727  0.47832266  1
  O2-  O419  1  0.58450582  0.91511732  0.81156852  1
  O2-  O420  1  0.83173776  0.15560433  0.15934554  1
  O2-  O421  1  0.82175990  0.16649741  0.47757678  1
  O2-  O422  1  0.84033925  0.17792923  0.82095224  1
  O2-  O423  1  0.82550939  0.40850766  0.14795125  1
  O2-  O424  1  0.82462998  0.41760318  0.47108043  1
  O2-  O425  1  0.78655411  0.38593090  0.80446011  1
  O2-  O426  1  0.84285144  0.66203258  0.12332047  1
  O2-  O427  1  0.82402783  0.65492420  0.48169953  1
  O2-  O428  1  0.81022577  0.68297850  0.81502943  1
  O2-  O429  1  0.82709356  0.90779223  0.15821252  1
  O2-  O430  1  0.81827216  0.91994339  0.47910339  1
  O2-  O431  1  0.84237532  0.92559428  0.83110543  1
  O2-  O432  1  0.11512277  0.06931980  0.22431548  1
  O2-  O433  1  0.18803028  0.04518053  0.52146920  1
  O2-  O434  1  0.14654576  0.07575572  0.83660985  1
  O2-  O435  1  0.16663118  0.32721257  0.19304232  1
  O2-  O436  1  0.15555773  0.33608327  0.51763799  1
  O2-  O437  1  0.13262827  0.31370214  0.83748411  1
  O2-  O438  1  0.14632988  0.56564904  0.18918457  1
  O2-  O439  1  0.09012485  0.54826875  0.54366483  1
  O2-  O440  1  0.17263612  0.58949481  0.86014206  1
  O2-  O441  1  0.17881915  0.86934094  0.20548757  1
  O2-  O442  1  0.16450902  0.80912722  0.52307414  1
  O2-  O443  1  0.15761576  0.83727074  0.86475663  1
  O2-  O444  1  0.42690538  0.09884924  0.19203996  1
  O2-  O445  1  0.39773632  0.05283636  0.51687647  1
  O2-  O446  1  0.40833017  0.08016301  0.84832601  1
  O2-  O447  1  0.42581003  0.33853091  0.20484300  1
  O2-  O448  1  0.37502450  0.33796226  0.53539246  1
  O2-  O449  1  0.41504833  0.38978398  0.87995143  1
  O2-  O450  1  0.42696798  0.56315073  0.17632344  1
  O2-  O451  1  0.41358634  0.58502600  0.52003986  1
  O2-  O452  1  0.41611648  0.58794804  0.84944645  1
  O2-  O453  1  0.39569356  0.82687692  0.17156884  1
  O2-  O454  1  0.42130783  0.83002748  0.52272485  1
  O2-  O455  1  0.41638549  0.83571675  0.84544780  1
  O2-  O456  1  0.66503814  0.08562696  0.18637750  1
  O2-  O457  1  0.66013483  0.07659098  0.52348514  1
  O2-  O458  1  0.66795177  0.08042819  0.84666178  1
  O2-  O459  1  0.67285220  0.33850290  0.18233887  1
  O2-  O460  1  0.65299235  0.35915047  0.45557442  1
  O2-  O461  1  0.62539267  0.32634554  0.85765880  1
  O2-  O462  1  0.67346574  0.58155112  0.08978182  1
  O2-  O463  1  0.66329316  0.59155989  0.52962637  1
  O2-  O464  1  0.66145055  0.60846658  0.86096509  1
  O2-  O465  1  0.65768003  0.81902830  0.18784523  1
  O2-  O466  1  0.66920421  0.84034587  0.52656229  1
  O2-  O467  1  0.66417087  0.83092373  0.86123154  1
  O2-  O468  1  0.89322999  0.06168770  0.19498812  1
  O2-  O469  1  0.90764038  0.08093129  0.51783502  1
  O2-  O470  1  0.92023276  0.09290727  0.86773748  1
  O2-  O471  1  0.91391799  0.32908438  0.18755632  1
  O2-  O472  1  0.89682479  0.32632139  0.51876476  1
  O2-  O473  1  0.89666947  0.34605017  0.85812533  1
  O2-  O474  1  0.90197522  0.56490907  0.17166193  1
  O2-  O475  1  0.91636473  0.57928463  0.51548677  1
  O2-  O476  1  0.85216306  0.56245412  0.82754299  1
  O2-  O477  1  0.90663359  0.81806036  0.18594269  1
  O2-  O478  1  0.93407755  0.81456073  0.51242181  1
  O2-  O479  1  0.91607148  0.83814496  0.85932389  1
  O2-  O480  1  0.22183804  0.06017080  0.31306330  1
  O2-  O481  1  0.18108728  0.06257510  0.64363876  1
  O2-  O482  1  0.12009878  0.02982197  0.99145321  1
  O2-  O483  1  0.17031214  0.34040628  0.31788800  1
  O2-  O484  1  0.26304170  0.30611004  0.63907853  1
  O2-  O485  1  0.18238856  0.35578416  0.96336779  1
  O2-  O486  1  0.16318872  0.58966402  0.31220130  1
  O2-  O487  1  0.16809118  0.59541770  0.65050236  1
  O2-  O488  1  0.22501445  0.70155995  0.96806870  1
  O2-  O489  1  0.15681538  0.84404159  0.31993799  1
  O2-  O490  1  0.16897702  0.82682036  0.64376729  1
  O2-  O491  1  0.16461179  0.86772544  0.98628925  1
  O2-  O492  1  0.42664527  0.08232630  0.31355058  1
  O2-  O493  1  0.42621515  0.07215515  0.63881725  1
  O2-  O494  1  0.41139473  0.10600883  0.96866203  1
  O2-  O495  1  0.42364622  0.33695735  0.32889130  1
  O2-  O496  1  0.41175989  0.31101859  0.65894797  1
  O2-  O497  1  0.40761488  0.28759801  0.98061167  1
  O2-  O498  1  0.42768296  0.59157745  0.33508871  1
  O2-  O499  1  0.43544206  0.60454037  0.64099110  1
  O2-  O500  1  0.43146971  0.55578304  0.97689620  1
  O2-  O501  1  0.40701690  0.83172666  0.30205731  1
  O2-  O502  1  0.42746573  0.83716871  0.64676083  1
  O2-  O503  1  0.37681341  0.84199960  0.96397911  1
  O2-  O504  1  0.66499843  0.07667916  0.31153600  1
  O2-  O505  1  0.67708730  0.08149061  0.64820320  1
  O2-  O506  1  0.65930364  0.10215259  0.97295684  1
  O2-  O507  1  0.66882339  0.32086375  0.30888645  1
  O2-  O508  1  0.65884495  0.32907062  0.65504858  1
  O2-  O509  1  0.67287395  0.32905891  0.97623913  1
  O2-  O510  1  0.66435895  0.58598098  0.33653965  1
  O2-  O511  1  0.67114120  0.58399925  0.65406949  1
  O2-  O512  1  0.70186997  0.64784187  0.97373790  1
  O2-  O513  1  0.66772820  0.83288333  0.31179607  1
  O2-  O514  1  0.68948070  0.84572178  0.64552451  1
  O2-  O515  1  0.68056217  0.78517861  0.97693505  1
  O2-  O516  1  0.91440522  0.08265988  0.30958171  1
  O2-  O517  1  0.94072637  0.08376374  0.69124096  1
  O2-  O518  1  0.91195131  0.07173836  0.99222162  1
  O2-  O519  1  0.91360947  0.33449119  0.35368682  1
  O2-  O520  1  0.90223996  0.32555785  0.64345438  1
  O2-  O521  1  0.89940660  0.28790592  1.00906869  1
  O2-  O522  1  0.91160813  0.58110540  0.29893939  1
  O2-  O523  1  0.92626160  0.59177648  0.71821715  1
  O2-  O524  1  0.91911669  0.57225792  0.93724465  1
  O2-  O525  1  0.93080015  0.82815047  0.31077410  1
  O2-  O526  1  0.92586984  0.84069634  0.64149737  1
  O2-  O527  1  0.93084875  0.84698744  0.97959140  1
  O2-  O528  1  0.07792234  0.14505655  0.03352703  1
  O2-  O529  1  0.08445785  0.16043060  0.34272435  1
  O2-  O530  1  0.11644268  0.16657965  0.68300485  1
  O2-  O531  1  0.06236388  0.37044739  0.02971638  1
  O2-  O532  1  0.09089547  0.42445336  0.35891338  1
  O2-  O533  1  0.05649896  0.42531198  0.69440120  1
  O2-  O534  1  0.08341586  0.69480388  0.00634169  1
  O2-  O535  1  0.07614276  0.67315149  0.34688222  1
  O2-  O536  1  0.10222002  0.68819888  0.70725273  1
  O2-  O537  1  0.08027367  0.94917098  0.02643371  1
  O2-  O538  1  0.11073031  0.88880866  0.34150647  1
  O2-  O539  1  0.08811692  0.90824946  0.68150162  1
  O2-  O540  1  0.33826489  0.20215647  -0.00302838  1
  O2-  O541  1  0.36205147  0.17531679  0.36544929  1
  O2-  O542  1  0.33181894  0.15329270  0.68000788  1
  O2-  O543  1  0.34290993  0.38970503  0.01825693  1
  O2-  O544  1  0.33090585  0.42064187  0.36543768  1
  O2-  O545  1  0.30069682  0.45770645  0.69156128  1
  O2-  O546  1  0.34750390  0.73633700  0.06591914  1
  O2-  O547  1  0.32976254  0.67380434  0.35310259  1
  O2-  O548  1  0.33684763  0.67184769  0.68105817  1
  O2-  O549  1  0.32860132  0.94752239  0.02322287  1
  O2-  O550  1  0.32830887  0.91398073  0.35218749  1
  O2-  O551  1  0.33304440  0.90898288  0.68841829  1
  O2-  O552  1  0.57083039  0.16597137  0.01594598  1
  O2-  O553  1  0.59025930  0.16345499  0.35647672  1
  O2-  O554  1  0.59117011  0.16129661  0.67768474  1
  O2-  O555  1  0.55884190  0.34605153  0.04522913  1
  O2-  O556  1  0.57944155  0.42245366  0.38576027  1
  O2-  O557  1  0.57817428  0.42009372  0.69465391  1
  O2-  O558  1  0.53697034  0.72069738  0.04060299  1
  O2-  O559  1  0.59052254  0.67850628  0.36595763  1
  O2-  O560  1  0.59141288  0.67515571  0.69196084  1
  O2-  O561  1  0.65216893  0.97494729  0.03685429  1
  O2-  O562  1  0.57776498  0.90799838  0.35149920  1
  O2-  O563  1  0.59421767  0.91711664  0.68659194  1
  O2-  O564  1  0.81067844  0.12213624  0.04671641  1
  O2-  O565  1  0.82990035  0.15872508  0.35544937  1
  O2-  O566  1  0.84601224  0.16527748  0.69439537  1
  O2-  O567  1  0.84795178  0.39888358  -0.03815389  1
  O2-  O568  1  0.83786258  0.42363707  0.34869202  1
  O2-  O569  1  0.83108979  0.41596826  0.68823041  1
  O2-  O570  1  0.87133788  0.67789598  0.00279739  1
  O2-  O571  1  0.83803653  0.66283002  0.35686677  1
  O2-  O572  1  0.83796709  0.67674456  0.69130233  1
  O2-  O573  1  0.82807017  0.90624435  0.02808991  1
  O2-  O574  1  0.83609116  0.91371823  0.35176605  1
  O2-  O575  1  0.85075490  0.92337395  0.67422102  1
