# generated using pymatgen
data_H2O
_symmetry_space_group_name_H-M   'P 1'
_cell_length_a   17.99872717
_cell_length_b   17.99379594
_cell_length_c   22.01202946
_cell_angle_alpha   89.97699506
_cell_angle_beta   89.99413843
_cell_angle_gamma   119.98211099
_symmetry_Int_Tables_number   1
_chemical_formula_structural   H2O
_chemical_formula_sum   'H384 O192'
_cell_volume   6174.95076089
_cell_formula_units_Z   192
loop_
 _symmetry_equiv_pos_site_id
 _symmetry_equiv_pos_as_xyz
  1  'x, y, z'
loop_
 _atom_type_symbol
 _atom_type_oxidation_number
  H+  1.0
  O2-  -2.0
loop_
 _atom_site_type_symbol
 _atom_site_label
 _atom_site_symmetry_multiplicity
 _atom_site_fract_x
 _atom_site_fract_y
 _atom_site_fract_z
 _atom_site_occupancy
  H+  H0  1  0.42089884  0.55529004  0.65575364  1
  H+  H1  1  0.89015090  0.61437954  0.50634386  1
  H+  H2  1  0.13423938  0.13433593  0.18203124  1
  H+  H3  1  0.40586520  0.33261321  0.88339054  1
  H+  H4  1  0.22191823  0.60667242  0.17169083  1
  H+  H5  1  0.89705770  1.08420320  0.15490483  1
  H+  H6  1  0.52206067  0.93261230  0.03407517  1
  H+  H7  1  0.22210638  0.86491047  0.85232715  1
  H+  H8  1  0.88619907  0.26566745  0.17213155  1
  H+  H9  1  1.03211420  0.38958070  0.49589166  1
  H+  H10  1  0.88133894  0.26561190  0.66155724  1
  H+  H11  1  0.59376069  0.38174695  0.34326374  1
  H+  H12  1  0.62721075  0.13016491  0.45999197  1
  H+  H13  1  0.36733646  0.34776761  0.82100835  1
  H+  H14  1  0.85308197  0.94774837  0.07475743  1
  H+  H15  1  0.91528444  0.53568417  0.33711472  1
  H+  H16  1  0.21260806  0.34521068  0.82915492  1
  H+  H17  1  0.24940073  0.37187140  0.34713326  1
  H+  H18  1  0.87647849  0.59971660  0.65661580  1
  H+  H19  1  0.12226852  -0.01901397  1.00810159  1
  H+  H20  1  0.41417219  0.86244543  0.63722193  1
  H+  H21  1  0.16158807  0.09595524  0.91406967  1
  H+  H22  1  0.91512448  0.33826247  0.89825799  1
  H+  H23  1  0.85248554  0.13927142  0.00198191  1
  H+  H24  1  0.48041402  0.87077103  0.49331850  1
  H+  H25  1  0.62469292  0.64906454  0.48892915  1
  H+  H26  1  0.37734723  0.75086354  -0.01201032  1
  H+  H27  1  0.47047282  0.83195918  0.98109076  1
  H+  H28  1  0.72912893  0.62095068  0.64988506  1
  H+  H29  1  0.96771297  0.84274148  0.65216106  1
  H+  H30  1  0.64889796  0.54090509  0.50627907  1
  H+  H31  1  0.96729566  0.35962534  0.17362098  1
  H+  H32  1  0.58341216  0.67246475  0.39402607  1
  H+  H33  1  0.35820134  0.62688551  0.16313817  1
  H+  H34  1  0.00924005  0.38912917  0.00545722  1
  H+  H35  1  0.88180690  0.84904821  0.65432475  1
  H+  H36  1  0.86673008  0.22509052  0.49564102  1
  H+  H37  1  0.48371215  0.87463054  0.83683318  1
  H+  H38  1  0.47945923  0.36304156  0.48880931  1
  H+  H39  1  0.12899901  0.24924504  0.31873060  1
  H+  H40  1  0.73472690  0.12179020  0.51124475  1
  H+  H41  1  0.40457983  0.77211326  0.65600403  1
  H+  H42  1  1.01591284  0.39025484  0.34663787  1
  H+  H43  1  0.30184794  0.15947577  0.60916506  1
  H+  H44  1  0.03142641  0.65215511  0.34211288  1
  H+  H45  1  0.24676701  0.36629652  0.44476067  1
  H+  H46  1  0.48371679  0.62158637  0.99765871  1
  H+  H47  1  0.62577781  0.39655830  0.51644033  1
  H+  H48  1  0.76428646  0.13455064  0.34760958  1
  H+  H49  1  0.41389973  0.12777969  0.45618608  1
  H+  H50  1  0.51870005  0.38561407  0.81958467  1
  H+  H51  1  0.38421588  1.02192246  -0.00142887  1
  H+  H52  1  0.34655729  0.14323855  0.15789899  1
  H+  H53  1  0.08911945  0.94491430  0.67319374  1
  H+  H54  1  0.87356431  0.74482409  1.00827859  1
  H+  H55  1  0.13597979  0.61305448  0.17151700  1
  H+  H56  1  0.62920765  0.27492783  0.17393655  1
  H+  H57  1  0.05589357  0.10270718  0.01092044  1
  H+  H58  1  0.82932903  0.16326053  0.40326990  1
  H+  H59  1  0.86239740  0.71444112  0.66350229  1
  H+  H60  1  0.40551538  0.54509915  0.84833620  1
  H+  H61  1  0.47413323  0.09436454  0.30360207  1
  H+  H62  1  0.64538226  0.50585899  0.17038915  1
  H+  H63  1  0.14631167  0.62173353  0.50443040  1
  H+  H64  1  0.33299487  0.41783468  0.66981598  1
  H+  H65  1  0.37476077  -0.01206978  0.83569075  1
  H+  H66  1  0.62603083  0.36412368  0.00982025  1
  H+  H67  1  0.07768562  0.67128219  0.77182491  1
  H+  H68  1  0.10100727  0.22069357  0.82520137  1
  H+  H69  1  0.88565132  0.78647674  0.84289697  1
  H+  H70  1  0.09747759  0.86461058  0.65534016  1
  H+  H71  1  0.86602782  0.13493131  0.49238368  1
  H+  H72  1  0.89305082  0.36333143  0.50330930  1
  H+  H73  1  0.38034863  0.23230199  1.00157208  1
  H+  H74  1  0.19000317  0.08196429  0.66690842  1
  H+  H75  1  0.52630627  0.40150284  0.04027529  1
  H+  H76  1  0.21955985  0.11886643  0.85546452  1
  H+  H77  1  0.62712005  0.60311471  0.17308107  1
  H+  H78  1  0.42993619  0.10032012  0.78541161  1
  H+  H79  1  0.60457897  0.72676907  0.33315537  1
  H+  H80  1  0.10058284  0.47683593  0.15893646  1
  H+  H81  1  0.55062883  0.16200780  0.83127847  1
  H+  H82  1  0.22861586  0.86103782  -0.00207962  1
  H+  H83  1  0.36226179  0.88037379  0.32788523  1
  H+  H84  1  0.64376233  0.78407259  0.50454905  1
  H+  H85  1  0.13229577  0.52471078  0.83764817  1
  H+  H86  1  1.01039674  0.11997335  0.32596444  1
  H+  H87  1  0.75417612  0.88679130  0.66886100  1
  H+  H88  1  0.79959419  0.12388104  0.16996022  1
  H+  H89  1  0.78373824  0.67734147  0.16209755  1
  H+  H90  1  0.62911689  0.52087845  0.83279256  1
  H+  H91  1  0.38943191  0.62505844  0.84120213  1
  H+  H92  1  0.45582686  0.35448127  0.34212068  1
  H+  H93  1  0.87815390  0.26263170  0.33022500  1
  H+  H94  1  0.66130404  0.09213239  0.60320070  1
  H+  H95  1  0.50050551  0.61297577  0.16524204  1
  H+  H96  1  0.07563164  0.39948972  0.74256511  1
  H+  H97  1  0.89599011  0.94258894  0.16279031  1
  H+  H98  1  0.33612334  0.37587051  0.36334202  1
  H+  H99  1  0.87632943  0.10323209  0.32547414  1
  H+  H100  1  0.21960346  0.85945212  0.17805513  1
  H+  H101  1  0.11049779  0.73018132  0.83247471  1
  H+  H102  1  0.83286370  0.16756357  0.06561591  1
  H+  H103  1  0.15220586  0.63914863  0.65808735  1
  H+  H104  1  0.48418688  0.11495724  0.49343255  1
  H+  H105  1  0.43516630  0.37614685  0.18358072  1
  H+  H106  1  0.10420697  0.13383561  0.83117275  1
  H+  H107  1  0.60871369  0.48552739  1.00900365  1
  H+  H108  1  0.36809418  0.89504218  0.47961400  1
  H+  H109  1  0.30856303  0.39755702  0.00500118  1
  H+  H110  1  0.20517944  0.76427122  0.62482908  1
  H+  H111  1  0.73127533  0.11444629  0.84503411  1
  H+  H112  1  0.10436717  0.47239425  1.00429042  1
  H+  H113  1  0.86621339  0.38163591  0.81220236  1
  H+  H114  1  0.87454979  1.01450696  0.32230744  1
  H+  H115  1  0.38507479  0.00727220  0.30434799  1
  H+  H116  1  0.77974356  0.89531863  0.02592589  1
  H+  H117  1  0.65313748  0.03342467  0.18193340  1
  H+  H118  1  0.98452405  0.11602404  0.48959303  1
  H+  H119  1  0.61174339  0.88851031  0.82309074  1
  H+  H120  1  0.58894139  0.69838834  0.17033064  1
  H+  H121  1  0.13387031  0.02614483  0.51030120  1
  H+  H122  1  0.37995119  0.51320602  0.17696178  1
  H+  H123  1  0.63091384  0.86461432  0.32700178  1
  H+  H124  1  0.73602155  0.87008627  0.82578297  1
  H+  H125  1  0.86466850  0.48139369  0.66314029  1
  H+  H126  1  0.70281977  0.33975357  0.33566322  1
  H+  H127  1  0.87802115  0.27645022  -0.00505027  1
  H+  H128  1  0.10548083  0.22703426  0.16825272  1
  H+  H129  1  0.26043176  0.88451830  0.67843135  1
  H+  H130  1  0.91947172  0.33163638  0.56329838  1
  H+  H131  1  0.38237114  0.52774839  0.49461693  1
  H+  H132  1  0.53895761  0.66939297  0.65480761  1
  H+  H133  1  0.33741307  0.22191984  0.33066819  1
  H+  H134  1  0.98590750  0.60260140  0.84684325  1
  H+  H135  1  0.02979747  0.89043023  0.48958160  1
  H+  H136  1  0.64537142  0.36811154  0.66382296  1
  H+  H137  1  0.41062215  0.37708567  0.98219214  1
  H+  H138  1  0.88670294  0.35710146  0.65995073  1
  H+  H139  1  0.62853643  0.61724750  0.32337927  1
  H+  H140  1  0.88437064  0.60318406  0.33342274  1
  H+  H141  1  0.21163050  0.33715447  0.65756593  1
  H+  H142  1  0.42639081  0.59505944  0.93680375  1
  H+  H143  1  0.64674665  0.27827055  0.66608519  1
  H+  H144  1  0.65190890  0.64093136  0.64800440  1
  H+  H145  1  0.23374023  0.87664051  0.49455455  1
  H+  H146  1  0.61126227  0.39326769  0.83226452  1
  H+  H147  1  0.75527041  0.13245311  0.67497784  1
  H+  H148  1  0.60690345  0.97683858  0.33983486  1
  H+  H149  1  0.64020227  0.40039276  0.16872280  1
  H+  H150  1  0.35054513  0.92552442  0.21204039  1
  H+  H151  1  0.39713682  0.27682741  0.18348090  1
  H+  H152  1  0.64912528  0.79151613  0.66293935  1
  H+  H153  1  0.86800644  -0.01948612  0.66857345  1
  H+  H154  1  0.23067371  0.13658122  0.17739279  1
  H+  H155  1  0.61869399  0.89566786  0.49203189  1
  H+  H156  1  0.78078465  0.64454423  0.49306398  1
  H+  H157  1  0.28942189  0.66480959  0.66983985  1
  H+  H158  1  0.13403745  0.86773558  0.85188463  1
  H+  H159  1  0.10158779  0.21771975  0.67100012  1
  H+  H160  1  0.11097334  0.13114879  0.48975617  1
  H+  H161  1  0.78253957  0.38952077  0.49238435  1
  H+  H162  1  0.33528766  0.66420185  0.77097938  1
  H+  H163  1  0.61301121  0.13897711  1.00723398  1
  H+  H164  1  0.37397863  0.03608576  0.69952147  1
  H+  H165  1  0.89259088  0.51628394  0.17495664  1
  H+  H166  1  0.81326981  0.42414027  -0.04162237  1
  H+  H167  1  0.37912931  0.22430159  0.46882411  1
  H+  H168  1  0.89878926  0.88177563  0.99616846  1
  H+  H169  1  0.68794755  0.13463500  0.17914750  1
  H+  H170  1  0.71404138  0.36424455  1.00915676  1
  H+  H171  1  0.95222238  0.11473267  0.99532688  1
  H+  H172  1  0.36876436  0.64631780  0.66975336  1
  H+  H173  1  0.86374040  0.13888720  0.82869625  1
  H+  H174  1  0.27243499  0.62971213  0.82847623  1
  H+  H175  1  0.65909923  0.30525267  0.84927350  1
  H+  H176  1  0.12179373  0.22165305  0.47213961  1
  H+  H177  1  0.11445109  0.88914142  1.00640853  1
  H+  H178  1  0.87386920  0.65804026  0.01703761  1
  H+  H179  1  0.81899452  0.10295617  0.69830148  1
  H+  H180  1  1.01879443  0.38195966  0.82583066  1
  H+  H181  1  0.26998428  0.64905691  0.32826821  1
  H+  H182  1  0.89461569  0.87628928  0.32407312  1
  H+  H183  1  0.61593361  -0.00188901  1.01017139  1
  H+  H184  1  0.46521051  0.59346965  0.32741711  1
  H+  H185  1  0.54256009  0.39686689  0.66875552  1
  H+  H186  1  0.72729213  0.12066749  0.99708351  1
  H+  H187  1  0.17106292  0.33765187  0.99848452  1
  H+  H188  1  0.89613797  0.11609181  0.63416896  1
  H+  H189  1  0.38936729  0.49111189  0.00419606  1
  H+  H190  1  0.02560142  0.63375349  0.16347304  1
  H+  H191  1  0.88062872  0.36768066  0.99137962  1
  H+  H192  1  0.14312091  0.53284559  0.51187976  1
  H+  H193  1  0.59254825  0.46868996  0.33762969  1
  H+  H194  1  0.97129489  0.11173377  0.83860152  1
  H+  H195  1  0.13008713  0.76974296  0.17615154  1
  H+  H196  1  0.89330827  0.52660199  0.50298925  1
  H+  H197  1  0.63555620  0.15671722  0.83469747  1
  H+  H198  1  0.58000610  0.42670312  0.56235418  1
  H+  H199  1  0.61681422  0.98342522  0.49240010  1
  H+  H200  1  0.40366168  0.08168953  0.21556836  1
  H+  H201  1  1.01348864  0.36772157  0.67679559  1
  H+  H202  1  0.62161936  0.10963248  0.33470163  1
  H+  H203  1  0.09671148  0.71942215  0.67364580  1
  H+  H204  1  0.86108117  0.46690682  0.81488233  1
  H+  H205  1  0.75712154  0.64498119  0.81851392  1
  H+  H206  1  0.03699001  0.92054856  0.17426362  1
  H+  H207  1  0.11002100  0.36131203  0.16886475  1
  H+  H208  1  0.53646961  0.65041939  0.49075262  1
  H+  H209  1  0.13587524  0.61551140  0.83904555  1
  H+  H210  1  0.04937704  0.93364447  0.34077708  1
  H+  H211  1  0.37820501  0.98744725  0.46443962  1
  H+  H212  1  0.87097555  -0.02168409  0.48250589  1
  H+  H213  1  0.42550019  0.83310273  0.22880271  1
  H+  H214  1  0.90825616  0.32060610  0.26919334  1
  H+  H215  1  0.36075510  0.62899868  0.00891124  1
  H+  H216  1  0.61772965  0.73133093  0.80924386  1
  H+  H217  1  -0.01192339  0.62451222  0.00543130  1
  H+  H218  1  0.32786959  0.43527010  0.79425732  1
  H+  H219  1  0.15081601  0.32128076  0.26856476  1
  H+  H220  1  0.95807271  0.52038938  0.88485272  1
  H+  H221  1  0.62851594  0.87408077  0.01722849  1
  H+  H222  1  0.13442898  0.61691132  0.32425781  1
  H+  H223  1  0.35144616  0.90306777  0.69661743  1
  H+  H224  1  0.49118002  0.37108766  0.95710271  1
  H+  H225  1  0.53420268  0.89650196  0.16675461  1
  H+  H226  1  0.36485666  0.87256990  0.00630983  1
  H+  H227  1  0.52997942  0.15036559  0.69416436  1
  H+  H228  1  0.56657901  0.12415139  0.16197963  1
  H+  H229  1  0.08108481  0.20238390  0.00896046  1
  H+  H230  1  0.58356456  0.21185627  0.34668951  1
  H+  H231  1  0.11776613  0.63904985  0.00983268  1
  H+  H232  1  0.76350710  0.54524059  0.37981718  1
  H+  H233  1  0.86874952  0.89372315  0.82549669  1
  H+  H234  1  0.11622787  -0.01895439  0.84689944  1
  H+  H235  1  0.76547620  0.87502276  0.33740520  1
  H+  H236  1  0.16993442  0.12971140  0.02317065  1
  H+  H237  1  0.38945048  0.88131824  0.84177753  1
  H+  H238  1  0.88728493  0.27469155  0.84154359  1
  H+  H239  1  0.89505539  0.81672100  0.16683016  1
  H+  H240  1  0.62355500  0.60708728  0.98908301  1
  H+  H241  1  1.03113283  0.64707391  0.49405125  1
  H+  H242  1  0.66043867  0.89833764  0.17462314  1
  H+  H243  1  0.15274316  0.39943353  0.50099950  1
  H+  H244  1  0.52048018  0.13606818  0.39400352  1
  H+  H245  1  0.12136328  0.91212349  0.18365076  1
  H+  H246  1  0.35564892  0.22426752  0.83062596  1
  H+  H247  1  0.12049906  0.73039246  1.01130883  1
  H+  H248  1  0.10849318  0.38086190  0.82487960  1
  H+  H249  1  0.24021627  0.86222444  0.32294869  1
  H+  H250  1  0.92297459  0.80586466  0.31704204  1
  H+  H251  1  0.47349492  0.86549717  0.32005926  1
  H+  H252  1  0.39887821  0.85960063  0.16726533  1
  H+  H253  1  0.61487004  0.73209722  0.01570797  1
  H+  H254  1  0.85607354  0.37126598  0.16032643  1
  H+  H255  1  0.61819194  0.98546650  0.67204473  1
  H+  H256  1  0.60681550  0.22555605  0.01059674  1
  H+  H257  1  0.13980638  0.01725812  0.35309265  1
  H+  H258  1  0.24938203  0.12541886  0.00058668  1
  H+  H259  1  0.86992480  0.02438726  0.99341555  1
  H+  H260  1  0.39193211  0.35239900  0.64910444  1
  H+  H261  1  0.53849282  0.88871386  0.66743264  1
  H+  H262  1  0.77994446  0.89228643  0.48921275  1
  H+  H263  1  0.63921743  0.02826460  0.84184243  1
  H+  H264  1  0.45244869  0.12364442  0.15409556  1
  H+  H265  1  0.10634631  0.08969681  0.67128741  1
  H+  H266  1  0.69265464  0.83139971  0.16454378  1
  H+  H267  1  0.19045721  0.62840700  0.59407747  1
  H+  H268  1  -0.01309810  0.87919342  -0.00906278  1
  H+  H269  1  0.38372152  0.12761475  0.68877391  1
  H+  H270  1  0.42609981  0.28922092  0.63264821  1
  H+  H271  1  0.33744784  0.63260563  0.47996305  1
  H+  H272  1  0.02983887  0.89345745  0.83858235  1
  H+  H273  1  0.76930144  0.38422776  0.66843170  1
  H+  H274  1  0.10346273  0.48103187  0.34352185  1
  H+  H275  1  0.88965389  0.86244384  0.49793704  1
  H+  H276  1  0.20269567  0.37379352  0.17429803  1
  H+  H277  1  0.72519593  0.35525957  0.17734974  1
  H+  H278  1  0.62703754  0.60874128  0.83153051  1
  H+  H279  1  0.82294874  0.42924874  0.30721776  1
  H+  H280  1  0.37406358  0.13974736  0.00955577  1
  H+  H281  1  0.87259766  0.73031267  0.48691067  1
  H+  H282  1  0.38307053  0.73329153  0.47277200  1
  H+  H283  1  0.14363972  0.87522313  0.50128330  1
  H+  H284  1  0.31231596  0.35805389  0.15623321  1
  H+  H285  1  0.80992286  0.94623403  0.16654022  1
  H+  H286  1  0.14128050  0.76971111  0.32922142  1
  H+  H287  1  0.22274968  0.60649629  -0.00554728  1
  H+  H288  1  0.39038642  0.05075684  0.58218370  1
  H+  H289  1  0.97816358  0.11132278  0.65574831  1
  H+  H290  1  0.81935480  0.63689136  0.40791718  1
  H+  H291  1  0.40954207  0.33290530  0.53773793  1
  H+  H292  1  0.15834122  0.58051566  0.26511223  1
  H+  H293  1  0.57908651  0.66349208  0.07006837  1
  H+  H294  1  0.82833507  0.65906017  0.72413306  1
  H+  H295  1  0.07264947  0.15643570  0.11520393  1
  H+  H296  1  0.08786117  0.67011058  0.10506089  1
  H+  H297  1  0.66486004  0.58706514  0.23567978  1
  H+  H298  1  0.29385714  0.48023538  0.52810497  1
  H+  H299  1  0.92903527  0.59651644  0.94627852  1
  H+  H300  1  0.86460966  0.98178829  0.82338905  1
  H+  H301  1  0.66631060  0.08929410  0.27840704  1
  H+  H302  1  0.40859790  0.33096003  0.27953879  1
  H+  H303  1  0.34326951  0.67823292  0.37974841  1
  H+  H304  1  0.57805966  0.91534177  0.39692169  1
  H+  H305  1  0.66182814  0.34978215  0.91117490  1
  H+  H306  1  0.68338769  0.87898700  0.96206957  1
  H+  H307  1  0.37290689  0.50759055  0.33269673  1
  H+  H308  1  0.32275604  0.91774955  0.78526705  1
  H+  H309  1  0.82906257  0.90727506  0.39499426  1
  H+  H310  1  0.08525540  0.42615345  0.43358184  1
  H+  H311  1  0.68109865  0.33417575  0.57178646  1
  H+  H312  1  0.52573461  0.64830310  0.81639206  1
  H+  H313  1  0.35499701  0.98264043  0.15958665  1
  H+  H314  1  0.58291849  0.92178669  0.76589512  1
  H+  H315  1  0.67049389  0.81886878  0.87884567  1
  H+  H316  1  0.16736367  0.82688205  0.26250293  1
  H+  H317  1  0.32737155  0.18297507  0.10056751  1
  H+  H318  1  0.15503417  0.32408862  0.89212392  1
  H+  H319  1  0.07463018  0.14424606  0.38143512  1
  H+  H320  1  0.91479779  0.82795213  0.55718873  1
  H+  H321  1  0.40721477  0.56809806  0.23883809  1
  H+  H322  1  0.92825660  0.08008726  0.54992125  1
  H+  H323  1  0.33083975  0.66064165  0.06750978  1
  H+  H324  1  0.57368074  0.16662058  0.09628476  1
  H+  H325  1  0.47247471  0.10910528  0.99642821  1
  H+  H326  1  0.65366842  0.88739171  0.66528576  1
  H+  H327  1  0.87115683  0.49546215  1.00389199  1
  H+  H328  1  0.67683346  0.84602870  0.56265564  1
  H+  H329  1  0.66865690  0.08685315  0.93599021  1
  H+  H330  1  0.65081583  0.32015578  0.27419827  1
  H+  H331  1  0.43675697  0.06316744  0.58618377  1
  H+  H332  1  0.16403482  0.58178379  0.93473757  1
  H+  H333  1  0.83879752  0.41774243  0.73086521  1
  H+  H334  1  0.78498631  0.72470897  0.77757222  1
  H+  H335  1  0.20329601  0.13286596  0.28815010  1
  H+  H336  1  0.18501850  0.82736464  0.58630587  1
  H+  H337  1  0.07107279  0.16258414  0.73399151  1
  H+  H338  1  0.08804532  0.33711651  0.98695122  1
  H+  H339  1  0.06725170  0.41703253  0.09882548  1
  H+  H340  1  0.82825108  0.17208673  0.77367673  1
  H+  H341  1  0.83656010  0.41615808  0.43091747  1
  H+  H342  1  0.40466271  0.58072740  0.59095047  1
  H+  H343  1  0.29887655  0.21283184  0.66441820  1
  H+  H344  1  0.71181048  0.60538910  0.32694326  1
  H+  H345  1  0.09519387  0.93415497  0.43330215  1
  H+  H346  1  0.65366511  0.27645796  0.51274419  1
  H+  H347  1  0.61652181  0.43944931  0.10548508  1
  H+  H348  1  0.13510384  0.06967700  0.57241647  1
  H+  H349  1  0.83962937  0.92419902  0.73242590  1
  H+  H350  1  0.91111996  0.57355866  0.59634072  1
  H+  H351  1  0.33189218  0.15830965  0.41441664  1
  H+  H352  1  0.40117748  0.11991200  0.84636775  1
  H+  H353  1  0.11933978  0.73812581  0.49117267  1
  H+  H354  1  0.67002509  0.84515310  0.26791623  1
  H+  H355  1  0.36515769  0.71874933  0.16023130  1
  H+  H356  1  0.85599162  0.36839301  0.33335873  1
  H+  H357  1  0.63063285  0.11890939  0.66513945  1
  H+  H358  1  0.33975971  0.90155449  0.06734901  1
  H+  H359  1  0.92976592  0.87158295  0.22794335  1
  H+  H360  1  0.92342719  0.57845961  0.23204060  1
  H+  H361  1  0.10773835  0.36769405  0.67482401  1
  H+  H362  1  0.16579134  0.83087083  0.94017585  1
  H+  H363  1  0.59280552  0.41525635  0.73161469  1
  H+  H364  1  0.14231503  0.03999385  0.19126045  1
  H+  H365  1  0.59485093  0.93820535  0.10867858  1
  H+  H366  1  0.01013816  0.62937919  0.67499093  1
  H+  H367  1  0.41896610  0.82777936  0.54866273  1
  H+  H368  1  0.90724108  0.08182310  0.89675437  1
  H+  H369  1  0.30165650  0.36194829  0.73733997  1
  H+  H370  1  0.33152536  0.91230145  0.38789218  1
  H+  H371  1  0.64510851  0.57029209  0.92837432  1
  H+  H372  1  0.31239167  0.14451613  0.78581530  1
  H+  H373  1  0.60443480  0.18453873  0.74328003  1
  H+  H374  1  0.91721520  0.84749114  0.90251699  1
  H+  H375  1  0.41518130  0.82877204  0.89642394  1
  H+  H376  1  0.58525925  0.68290115  0.72026618  1
  H+  H377  1  0.82689604  0.40583877  0.10319565  1
  H+  H378  1  0.09141582  0.67873317  0.40195660  1
  H+  H379  1  0.35916395  0.41637119  0.09853367  1
  H+  H380  1  0.16174134  0.33729877  0.59753533  1
  H+  H381  1  0.67938528  0.60937512  0.55867027  1
  H+  H382  1  0.38075333  0.77504613  0.31603040  1
  H+  H383  1  0.84169667  0.70468110  0.10277028  1
  O2-  O384  1  0.08634115  0.16571070  0.15884681  1
  O2-  O385  1  0.08232991  0.15929696  0.46751085  1
  O2-  O386  1  0.07182327  0.15946929  0.81121290  1
  O2-  O387  1  0.06565239  0.41583070  0.14421102  1
  O2-  O388  1  0.09159982  0.42508486  0.48041706  1
  O2-  O389  1  0.07806145  0.41046043  0.80723576  1
  O2-  O390  1  0.08784951  0.66981340  0.15054816  1
  O2-  O391  1  0.09002771  0.67716195  0.47667438  1
  O2-  O392  1  0.08237739  0.66963674  0.81702191  1
  O2-  O393  1  0.10150713  0.95266564  0.17344982  1
  O2-  O394  1  0.09172738  0.92328570  0.47895647  1
  O2-  O395  1  0.09240123  0.92190767  0.83125752  1
  O2-  O396  1  0.32155428  0.18051331  0.14568617  1
  O2-  O397  1  0.35611354  0.16347843  0.45562217  1
  O2-  O398  1  0.32328810  0.15900433  0.82878420  1
  O2-  O399  1  0.35721940  0.41494569  0.14372592  1
  O2-  O400  1  0.21373460  0.33150125  0.48170613  1
  O2-  O401  1  0.30007764  0.37306379  0.79169854  1
  O2-  O402  1  0.33114803  0.65888700  0.14499364  1
  O2-  O403  1  0.37460058  0.68011566  0.45312355  1
  O2-  O404  1  0.33365681  0.65816482  0.81578008  1
  O2-  O405  1  0.33527072  0.92034925  0.16883416  1
  O2-  O406  1  0.33797410  0.92403098  0.46196303  1
  O2-  O407  1  0.33985006  0.92354708  0.82883174  1
  O2-  O408  1  0.56637666  0.17225574  0.14179482  1
  O2-  O409  1  0.64090187  0.14971662  0.50234017  1
  O2-  O410  1  0.61186958  0.19250375  0.81865378  1
  O2-  O411  1  0.62144069  0.44122780  0.15132070  1
  O2-  O412  1  0.59633210  0.43062917  0.51964741  1
  O2-  O413  1  0.58080553  0.41926049  0.80955020  1
  O2-  O414  1  0.56273663  0.64374940  0.14877851  1
  O2-  O415  1  0.59511708  0.68211300  0.47550950  1
  O2-  O416  1  0.58243392  0.67075074  0.79554737  1
  O2-  O417  1  0.59605374  0.93458297  0.15373562  1
  O2-  O418  1  0.58694482  0.92407570  0.47634604  1
  O2-  O419  1  0.57982230  0.91843261  0.81136923  1
  O2-  O420  1  0.84751944  0.16027852  0.14165155  1
  O2-  O421  1  0.83137930  0.16345313  0.48343760  1
  O2-  O422  1  0.83290901  0.17133140  0.81853137  1
  O2-  O423  1  0.82494961  0.40275320  0.14751961  1
  O2-  O424  1  0.84215787  0.41991752  0.47555408  1
  O2-  O425  1  0.83906711  0.41222291  0.79232605  1
  O2-  O426  1  0.84130710  0.71782976  0.14721002  1
  O2-  O427  1  0.84079977  0.66704534  0.47694104  1
  O2-  O428  1  0.80828125  0.69133528  0.79599765  1
  O2-  O429  1  0.86678738  0.97449130  0.14641700  1
  O2-  O430  1  0.83866357  0.91565220  0.47221790  1
  O2-  O431  1  0.83688475  0.92171019  0.80624331  1
  O2-  O432  1  0.17342080  0.10779910  0.20022247  1
  O2-  O433  1  0.15346180  0.08305912  0.52980129  1
  O2-  O434  1  0.15865303  0.09297404  0.86901549  1
  O2-  O435  1  0.14293793  0.33238005  0.18267454  1
  O2-  O436  1  0.20025469  0.38901311  0.52241023  1
  O2-  O437  1  0.15320534  0.32507125  0.84724143  1
  O2-  O438  1  0.16118584  0.57722105  0.18575511  1
  O2-  O439  1  0.17478254  0.59372727  0.52505956  1
  O2-  O440  1  0.16405403  0.58327325  0.85478975  1
  O2-  O441  1  0.16010465  0.82976200  0.19409210  1
  O2-  O442  1  0.17584152  0.84456353  0.51367758  1
  O2-  O443  1  0.16139071  0.83155647  0.86431750  1
  O2-  O444  1  0.39359428  0.08837033  0.17058549  1
  O2-  O445  1  0.45153360  0.09781771  0.45569091  1
  O2-  O446  1  0.43482479  0.09443973  0.83014921  1
  O2-  O447  1  0.43880009  0.33026568  0.20475500  1
  O2-  O448  1  0.41699362  0.32726087  0.49418456  1
  O2-  O449  1  0.40598904  0.32687245  0.83859530  1
  O2-  O450  1  0.40792185  0.57314372  0.19179260  1
  O2-  O451  1  0.35165134  0.53450270  0.52865724  1
  O2-  O452  1  0.43125181  0.60564841  0.85865418  1
  O2-  O453  1  0.43068651  0.83190650  0.18239986  1
  O2-  O454  1  0.41821694  0.83837068  0.50486713  1
  O2-  O455  1  0.42155531  0.84685856  0.85203343  1
  O2-  O456  1  0.69481215  0.09082562  0.20029283  1
  O2-  O457  1  0.67198505  0.09213325  0.52577687  1
  O2-  O458  1  0.67042671  0.08648926  0.85994116  1
  O2-  O459  1  0.66490487  0.33275572  0.19251459  1
  O2-  O460  1  0.68138345  0.33635586  0.52611403  1
  O2-  O461  1  0.67187623  0.36075542  0.86716900  1
  O2-  O462  1  0.66799162  0.58546736  0.18921214  1
  O2-  O463  1  0.67868200  0.60440541  0.51221326  1
  O2-  O464  1  0.65859517  0.58159024  0.84889698  1
  O2-  O465  1  0.70054336  0.87875166  0.19035642  1
  O2-  O466  1  0.67381366  0.84558509  0.51806117  1
  O2-  O467  1  0.67235287  0.83667394  0.83675222  1
  O2-  O468  1  0.91919679  0.14748429  0.15843096  1
  O2-  O469  1  0.92297683  0.08399646  0.50561460  1
  O2-  O470  1  0.90909714  0.08197534  0.85123482  1
  O2-  O471  1  0.90656896  0.32416163  0.18866987  1
  O2-  O472  1  0.92111276  0.33098815  0.51843465  1
  O2-  O473  1  0.91845240  0.33714741  0.85281021  1
  O2-  O474  1  0.92689751  0.57679558  0.18748553  1
  O2-  O475  1  0.92110985  0.58476624  0.52197723  1
  O2-  O476  1  0.93442012  0.55441207  0.86803419  1
  O2-  O477  1  0.93082699  0.87786314  0.18289735  1
  O2-  O478  1  0.91938801  0.83101688  0.51198963  1
  O2-  O479  1  0.91619373  0.84700674  0.85625209  1
  O2-  O480  1  0.21545265  0.13224284  0.33185448  1
  O2-  O481  1  0.12853452  0.05155720  0.65744686  1
  O2-  O482  1  0.18552091  0.10010331  0.99311543  1
  O2-  O483  1  0.16344719  0.31258229  0.31031103  1
  O2-  O484  1  0.15258818  0.32304117  0.64179736  1
  O2-  O485  1  0.11829883  0.30454785  0.97530794  1
  O2-  O486  1  0.16112403  0.58320916  0.31037360  1
  O2-  O487  1  0.20561726  0.66058380  0.63438223  1
  O2-  O488  1  0.16215143  0.57861377  0.98009711  1
  O2-  O489  1  0.17481790  0.82982562  0.30937036  1
  O2-  O490  1  0.19024555  0.81039652  0.62945989  1
  O2-  O491  1  0.16745710  0.83079839  0.98594001  1
  O2-  O492  1  0.42498261  0.05482778  0.27748796  1
  O2-  O493  1  0.41190727  0.09841657  0.70750946  1
  O2-  O494  1  0.41127700  0.08169714  0.98420521  1
  O2-  O495  1  0.39674263  0.32586562  0.32419581  1
  O2-  O496  1  0.43950149  0.34867076  0.62781146  1
  O2-  O497  1  0.42891149  0.33849533  0.96247855  1
  O2-  O498  1  0.40906678  0.55882248  0.30742135  1
  O2-  O499  1  0.43111284  0.60536492  0.63213120  1
  O2-  O500  1  0.42298930  0.58713967  0.98200344  1
  O2-  O501  1  0.41590251  0.83907458  0.30018548  1
  O2-  O502  1  0.44296005  0.82897996  0.63389618  1
  O2-  O503  1  0.41082447  0.81122414  0.96939077  1
  O2-  O504  1  0.65739289  0.08360930  0.32300473  1
  O2-  O505  1  0.65987225  0.08774403  0.64869271  1
  O2-  O506  1  0.66613932  0.08791459  0.98168610  1
  O2-  O507  1  0.64427354  0.31610536  0.31913874  1
  O2-  O508  1  0.67851873  0.33787010  0.64883271  1
  O2-  O509  1  0.65404318  0.33171814  0.99484901  1
  O2-  O510  1  0.65570563  0.58404543  0.30664289  1
  O2-  O511  1  0.67429140  0.60633360  0.62942968  1
  O2-  O512  1  0.63282665  0.56120337  0.97274636  1
  O2-  O513  1  0.65968176  0.83250054  0.31190886  1
  O2-  O514  1  0.68581879  0.85634158  0.65107121  1
  O2-  O515  1  0.66231175  0.84895760  1.00066291  1
  O2-  O516  1  0.90413132  0.07380358  0.30623920  1
  O2-  O517  1  0.91976414  0.07759751  0.63515507  1
  O2-  O518  1  0.89565081  0.08365592  0.97470013  1
  O2-  O519  1  0.90606214  0.32344574  0.31433356  1
  O2-  O520  1  0.91735223  0.32601816  0.64828576  1
  O2-  O521  1  0.90960099  0.33584628  0.97730812  1
  O2-  O522  1  0.92873866  0.58988807  0.31738201  1
  O2-  O523  1  0.90677450  0.56798441  0.64227792  1
  O2-  O524  1  0.92644283  0.59558815  0.99116994  1
  O2-  O525  1  0.93962701  0.86460297  0.30616045  1
  O2-  O526  1  0.90602766  0.81564457  0.63655942  1
  O2-  O527  1  0.92525718  0.85163875  0.97593784  1
  O2-  O528  1  0.05159262  0.14771833  0.03271293  1
  O2-  O529  1  0.07234515  0.14468308  0.33668501  1
  O2-  O530  1  0.06939300  0.15859387  0.68835369  1
  O2-  O531  1  0.06980774  0.41201075  0.01971322  1
  O2-  O532  1  0.07270377  0.42542281  0.36551436  1
  O2-  O533  1  0.07408136  0.39459735  0.69393150  1
  O2-  O534  1  0.08919042  0.66962855  0.02712099  1
  O2-  O535  1  0.09244212  0.68054093  0.35591088  1
  O2-  O536  1  0.06795369  0.66287674  0.69386902  1
  O2-  O537  1  0.08336853  0.91992633  0.01696795  1
  O2-  O538  1  0.10464621  0.95529449  0.36196418  1
  O2-  O539  1  0.06170433  0.88146500  0.67788255  1
  O2-  O540  1  0.34829380  0.17659891  0.02268062  1
  O2-  O541  1  0.30648949  0.15636812  0.33315542  1
  O2-  O542  1  0.31174550  0.16767211  0.65312905  1
  O2-  O543  1  0.36771580  0.42964207  0.01913101  1
  O2-  O544  1  0.30197323  0.40323412  0.37440992  1
  O2-  O545  1  0.30627743  0.35749127  0.68133516  1
  O2-  O546  1  0.32974757  0.65960586  0.02164833  1
  O2-  O547  1  0.33215775  0.68680186  0.33660530  1
  O2-  O548  1  0.34702878  0.68190332  0.68855663  1
  O2-  O549  1  0.34010181  0.90660150  0.02311760  1
  O2-  O550  1  0.32760307  0.90801131  0.34195846  1
  O2-  O551  1  0.31063997  0.92203630  0.70594706  1
  O2-  O552  1  0.57894597  0.16425695  0.02418260  1
  O2-  O553  1  0.55591010  0.14936502  0.35614903  1
  O2-  O554  1  0.59313988  0.17764349  0.69790147  1
  O2-  O555  1  0.58833469  0.42864704  0.03493193  1
  O2-  O556  1  0.56548986  0.41285601  0.35866828  1
  O2-  O557  1  0.59926257  0.41407802  0.68658234  1
  O2-  O558  1  0.58277821  0.67008897  0.02494246  1
  O2-  O559  1  0.57845184  0.66676014  0.34917743  1
  O2-  O560  1  0.59574035  0.69816105  0.67570128  1
  O2-  O561  1  0.57877299  0.93839606  0.03010854  1
  O2-  O562  1  0.57699667  0.91470940  0.35165368  1
  O2-  O563  1  0.59640994  0.92499403  0.68703024  1
  O2-  O564  1  0.82674162  0.17235414  0.02083764  1
  O2-  O565  1  0.82637295  0.16381170  0.35811523  1
  O2-  O566  1  0.81593055  0.15507458  0.69159860  1
  O2-  O567  1  0.83185784  0.42999338  0.00075507  1
  O2-  O568  1  0.82532751  0.40227213  0.34510137  1
  O2-  O569  1  0.83460478  0.41712232  0.68075831  1
  O2-  O570  1  0.84273496  0.68801187  0.02844511  1
  O2-  O571  1  0.80008263  0.60491873  0.36739459  1
  O2-  O572  1  0.83239903  0.65380231  0.67938318  1
  O2-  O573  1  0.84199502  0.93390386  0.02973762  1
  O2-  O574  1  0.82703406  0.90455512  0.34961247  1
  O2-  O575  1  0.83370591  0.92091066  0.68621782  1
