# generated using pymatgen
data_H2O
_symmetry_space_group_name_H-M   'P 1'
_cell_length_a   17.99348745
_cell_length_b   17.99798326
_cell_length_c   22.00335683
_cell_angle_alpha   89.98674976
_cell_angle_beta   90.00571620
_cell_angle_gamma   120.01112445
_symmetry_Int_Tables_number   1
_chemical_formula_structural   H2O
_chemical_formula_sum   'H384 O192'
_cell_volume   6170.35365766
_cell_formula_units_Z   192
loop_
 _symmetry_equiv_pos_site_id
 _symmetry_equiv_pos_as_xyz
  1  'x, y, z'
loop_
 _atom_type_symbol
 _atom_type_oxidation_number
  H+  1.0
  O2-  -2.0
loop_
 _atom_site_type_symbol
 _atom_site_label
 _atom_site_symmetry_multiplicity
 _atom_site_fract_x
 _atom_site_fract_y
 _atom_site_fract_z
 _atom_site_occupancy
  H+  H0  1  0.86427113  0.88652500  0.17112743  1
  H+  H1  1  0.37102311  0.39618027  0.17051347  1
  H+  H2  1  0.52368407  0.14469242  0.49005213  1
  H+  H3  1  0.11736459  0.64947946  0.82880948  1
  H+  H4  1  0.88602402  0.36809059  0.17384239  1
  H+  H5  1  0.36648775  0.74092860  0.48314436  1
  H+  H6  1  0.72853372  0.61745109  0.32262916  1
  H+  H7  1  0.41079061  0.56130287  0.73362636  1
  H+  H8  1  -0.01985327  0.61436658  0.86160810  1
  H+  H9  1  0.84041249  0.20312146  0.82688238  1
  H+  H10  1  0.38235180  0.85874234  0.84824263  1
  H+  H11  1  0.61785561  0.14522357  -0.00715406  1
  H+  H12  1  0.14829100  0.60797952  0.48818857  1
  H+  H13  1  0.37813526  0.99161549  0.66077892  1
  H+  H14  1  0.36556526  0.97549072  0.18793900  1
  H+  H15  1  0.69965989  0.81120131  0.67016073  1
  H+  H16  1  0.97957856  0.35693306  1.00080105  1
  H+  H17  1  0.96475259  0.85761058  0.99839274  1
  H+  H18  1  0.14089149  0.86906094  0.48074589  1
  H+  H19  1  1.01987643  0.88182415  0.15669178  1
  H+  H20  1  0.84807818  0.12334278  0.01071707  1
  H+  H21  1  0.76716840  0.39853648  0.83286083  1
  H+  H22  1  0.86527903  0.98550787  0.33612925  1
  H+  H23  1  0.13122355  0.86131415  0.17415627  1
  H+  H24  1  0.72152052  0.12020146  0.65355811  1
  H+  H25  1  0.06286241  0.65831288  0.68960357  1
  H+  H26  1  0.71113064  0.59352444  0.65338589  1
  H+  H27  1  -0.02088541  0.36465947  0.32225382  1
  H+  H28  1  0.63137483  0.77320293  0.17479325  1
  H+  H29  1  0.61775072  0.01836472  0.84662797  1
  H+  H30  1  0.61429757  0.92330127  0.70416522  1
  H+  H31  1  0.35839753  0.36439245  0.49601197  1
  H+  H32  1  0.33562137  0.16336714  0.73333400  1
  H+  H33  1  0.11096040  0.13965747  0.35523909  1
  H+  H34  1  0.63512538  0.36770063  0.48845239  1
  H+  H35  1  0.92483085  0.58857009  0.95312006  1
  H+  H36  1  0.87149934  0.12760553  0.50473937  1
  H+  H37  1  0.94901787  0.34073166  0.66076538  1
  H+  H38  1  0.61229879  0.80893766  0.66585026  1
  H+  H39  1  0.88638342  0.76997684  0.16970413  1
  H+  H40  1  0.02959801  0.88244745  0.49884097  1
  H+  H41  1  0.27179638  0.13394032  0.67744593  1
  H+  H42  1  0.02964209  0.36896242  0.86395279  1
  H+  H43  1  0.36115548  0.13237129  0.82357469  1
  H+  H44  1  0.73063059  0.34629962  0.65270063  1
  H+  H45  1  0.73105432  0.11528589  0.33488122  1
  H+  H46  1  0.89022022  0.02679486  0.18050950  1
  H+  H47  1  0.89110904  0.52594285  0.86090570  1
  H+  H48  1  0.27865501  0.89503861  -0.02304081  1
  H+  H49  1  0.63308371  0.01481724  0.33657011  1
  H+  H50  1  0.86594846  0.64120109  0.15527653  1
  H+  H51  1  1.01198899  0.87547287  0.81875574  1
  H+  H52  1  0.11150009  0.38695927  0.16372035  1
  H+  H53  1  0.63801589  0.53011182  0.32397908  1
  H+  H54  1  0.28208824  0.89459781  0.48478662  1
  H+  H55  1  0.11457278  -0.01492513  0.34515403  1
  H+  H56  1  0.60937841  0.47174736  -0.00538514  1
  H+  H57  1  -0.03123222  0.60387804  0.49927766  1
  H+  H58  1  0.79267730  0.93006404  0.67536999  1
  H+  H59  1  0.37485338  0.73810224  0.83619583  1
  H+  H60  1  0.52115709  0.88114726  0.16754372  1
  H+  H61  1  0.33133417  0.43042340  0.51849458  1
  H+  H62  1  0.27558932  0.88821074  0.19259480  1
  H+  H63  1  0.42352501  0.09770034  0.23240138  1
  H+  H64  1  0.58689407  0.66413857  0.76794364  1
  H+  H65  1  -0.02946564  0.60868817  0.33390545  1
  H+  H66  1  0.11793459  0.97641211  0.50310357  1
  H+  H67  1  -0.02848680  0.36113452  0.50090563  1
  H+  H68  1  0.13740916  0.11095489  -0.01166913  1
  H+  H69  1  0.47596129  0.36339305  0.32615205  1
  H+  H70  1  0.12098726  0.34350166  0.65713906  1
  H+  H71  1  0.84888727  0.49806914  0.67883486  1
  H+  H72  1  0.38536880  0.26484421  0.65766775  1
  H+  H73  1  0.13387770  1.02049034  -0.01071630  1
  H+  H74  1  0.63477007  1.01807467  0.17446657  1
  H+  H75  1  0.37035763  0.65499514  0.48130972  1
  H+  H76  1  0.23301777  0.61804823  -0.00450168  1
  H+  H77  1  0.48198950  0.87071220  0.49812677  1
  H+  H78  1  0.86422700  0.22846169  0.16538719  1
  H+  H79  1  0.36647011  0.24021376  -0.00370751  1
  H+  H80  1  0.26092118  0.88947776  0.83404316  1
  H+  H81  1  0.83076204  0.66515564  0.39447024  1
  H+  H82  1  0.20440146  0.55059369  0.62657976  1
  H+  H83  1  0.62487879  0.13166393  0.17797670  1
  H+  H84  1  0.16258486  0.07542492  0.89292348  1
  H+  H85  1  0.62728084  0.79408531  0.83741769  1
  H+  H86  1  0.12468708  0.11114873  0.68125987  1
  H+  H87  1  0.23859079  0.11548563  0.15434120  1
  H+  H88  1  0.86247357  0.92028021  0.50394440  1
  H+  H89  1  0.38190014  0.51502480  -0.00688208  1
  H+  H90  1  0.61820356  0.39014327  0.15454948  1
  H+  H91  1  0.88222391  0.36159643  0.50183264  1
  H+  H92  1  0.65262609  0.82325603  0.93596552  1
  H+  H93  1  0.66440235  0.34267760  0.89385994  1
  H+  H94  1  0.98252898  0.33710486  0.86285613  1
  H+  H95  1  0.77404083  0.88631014  0.17283839  1
  H+  H96  1  0.91350988  0.65134124  0.32441538  1
  H+  H97  1  0.23691621  0.35825345  0.84330038  1
  H+  H98  1  0.38272673  1.02346635  0.83879323  1
  H+  H99  1  0.38355166  0.11267394  0.65656184  1
  H+  H100  1  0.39018310  0.86328018  0.98456409  1
  H+  H101  1  0.61427254  0.39115632  0.33667661  1
  H+  H102  1  0.11025914  0.13512627  0.82848848  1
  H+  H103  1  0.63903047  0.51480352  0.87059863  1
  H+  H104  1  0.91429005  0.03985772  0.95183768  1
  H+  H105  1  0.86122365  0.23076229  0.33299868  1
  H+  H106  1  0.41144281  0.55382103  0.49667453  1
  H+  H107  1  0.60493353  0.13809872  0.67165204  1
  H+  H108  1  0.52817891  0.13804005  0.33554044  1
  H+  H109  1  0.78466675  0.26201278  0.88520716  1
  H+  H110  1  0.88857468  0.82543039  0.48922538  1
  H+  H111  1  0.39311117  0.03174824  0.50350395  1
  H+  H112  1  0.24963961  0.62082874  0.32025263  1
  H+  H113  1  0.36405064  0.70566182  0.38675762  1
  H+  H114  1  0.11707845  0.13608154  0.15941986  1
  H+  H115  1  0.70784550  0.83764162  -0.00384350  1
  H+  H116  1  0.28204364  0.38813322  1.00304054  1
  H+  H117  1  0.33074907  0.16048716  0.29088211  1
  H+  H118  1  0.77862931  0.39074708  0.33990587  1
  H+  H119  1  0.61118186  0.13866457  0.83002998  1
  H+  H120  1  0.89032952  0.84796439  0.82548305  1
  H+  H121  1  0.72064443  0.12057324  0.49908737  1
  H+  H122  1  0.39164753  0.27580265  0.16784643  1
  H+  H123  1  0.63408345  0.11375156  0.33631754  1
  H+  H124  1  0.38287247  0.51682611  0.83834689  1
  H+  H125  1  0.52885016  0.38825845  0.15334774  1
  H+  H126  1  0.73501052  0.36808033  0.48640765  1
  H+  H127  1  0.60818978  0.47172258  0.49135297  1
  H+  H128  1  0.24140442  0.12702897  0.33312415  1
  H+  H129  1  0.11275561  0.22930189  0.34613702  1
  H+  H130  1  0.88373411  0.12243528  0.66118201  1
  H+  H131  1  0.58594376  0.41838072  0.05700893  1
  H+  H132  1  0.10541603  0.37986781  0.48847148  1
  H+  H133  1  0.23057480  0.10613886  0.51057191  1
  H+  H134  1  0.52085003  0.37925395  0.49226740  1
  H+  H135  1  1.02048019  0.14068660  0.67253059  1
  H+  H136  1  0.76392572  0.61721915  0.49006926  1
  H+  H137  1  0.62356957  0.64666319  0.33846807  1
  H+  H138  1  0.28346640  0.39788504  0.17418447  1
  H+  H139  1  0.13265444  0.78352090  0.84345950  1
  H+  H140  1  0.85472592  0.08180448  0.82635267  1
  H+  H141  1  0.61455894  0.89085216  0.33683674  1
  H+  H142  1  0.95409036  0.63347113  0.65229993  1
  H+  H143  1  -0.02480315  0.36676911  0.17275869  1
  H+  H144  1  0.35212349  0.45646940  0.67645954  1
  H+  H145  1  0.39366778  0.94263053  0.71413187  1
  H+  H146  1  0.11908624  0.39406448  1.00927709  1
  H+  H147  1  0.40231597  0.52852285  0.33014002  1
  H+  H148  1  0.27031355  0.12981973  0.82317744  1
  H+  H149  1  0.85855134  0.70000599  0.49298057  1
  H+  H150  1  0.52557610  0.64373217  0.82451786  1
  H+  H151  1  0.14005816  0.27676059  0.17473447  1
  H+  H152  1  0.02728846  0.13592222  0.16337900  1
  H+  H153  1  0.15657288  0.06673933  0.72733323  1
  H+  H154  1  0.48481323  0.12153541  0.17568919  1
  H+  H155  1  0.77968485  0.63099999  0.83128588  1
  H+  H156  1  0.36629616  0.37832744  0.83241945  1
  H+  H157  1  0.87993500  0.86477836  0.64300204  1
  H+  H158  1  0.86692035  0.22112524  0.01456392  1
  H+  H159  1  0.12919625  0.86323248  0.34622690  1
  H+  H160  1  0.76488858  0.89462927  0.49331692  1
  H+  H161  1  0.46087637  0.83045731  0.33794512  1
  H+  H162  1  0.86599072  0.38747672  0.33943445  1
  H+  H163  1  0.84657531  0.21801555  0.67074989  1
  H+  H164  1  0.85117197  0.72443659  0.00381421  1
  H+  H165  1  0.39520558  0.02829399  0.32773313  1
  H+  H166  1  0.39540333  0.86523165  0.64829683  1
  H+  H167  1  0.54441768  0.65491416  0.48780056  1
  H+  H168  1  0.12877690  1.01530530  0.83325163  1
  H+  H169  1  0.14003959  0.36347362  0.32588539  1
  H+  H170  1  0.38460583  0.60875641  0.84047117  1
  H+  H171  1  0.35324314  0.68433886  0.77478803  1
  H+  H172  1  0.63748083  0.26963481  0.65506201  1
  H+  H173  1  0.61522288  0.98430184  0.48992929  1
  H+  H174  1  0.36228331  0.63482832  0.00730284  1
  H+  H175  1  0.09852187  0.58939073  0.68800090  1
  H+  H176  1  0.14102033  0.78558839  0.98892182  1
  H+  H177  1  0.87573550  0.59505159  0.49690874  1
  H+  H178  1  0.36860400  0.14303935  0.14945257  1
  H+  H179  1  0.83716186  0.71858311  0.66407026  1
  H+  H180  1  0.11297647  0.22454980  0.67034682  1
  H+  H181  1  0.13950795  0.63115485  0.69674454  1
  H+  H182  1  0.08635228  0.43706427  0.67077356  1
  H+  H183  1  0.57450194  0.16169455  0.73463381  1
  H+  H184  1  0.23776102  0.63125727  0.83843627  1
  H+  H185  1  0.85661033  0.23484592  0.48798416  1
  H+  H186  1  0.86619796  0.49440779  1.02292602  1
  H+  H187  1  0.31153473  0.64299223  0.68108477  1
  H+  H188  1  0.61606835  0.89468538  0.49069497  1
  H+  H189  1  0.64494720  0.52741720  0.16560271  1
  H+  H190  1  0.87514897  0.85411903  1.01006889  1
  H+  H191  1  0.84102350  0.63252194  0.66100741  1
  H+  H192  1  0.50927739  0.62565522  0.01703986  1
  H+  H193  1  0.84051614  0.93814157  0.81025881  1
  H+  H194  1  0.36731272  0.38216432  -0.00448546  1
  H+  H195  1  0.62974375  0.03485271  1.00118963  1
  H+  H196  1  0.17464255  0.83633727  0.42703372  1
  H+  H197  1  0.22903210  0.36258144  0.32781832  1
  H+  H198  1  0.12475551  0.47839773  0.33453489  1
  H+  H199  1  0.72542302  0.86897681  0.32637168  1
  H+  H200  1  0.89262553  0.11777151  0.17697755  1
  H+  H201  1  0.37776769  0.34899369  0.65527065  1
  H+  H202  1  0.38575296  0.85889577  0.19507505  1
  H+  H203  1  0.82984659  0.02469347  0.92739773  1
  H+  H204  1  0.72827868  0.60875099  0.97115609  1
  H+  H205  1  0.36350580  0.13465045  0.48474701  1
  H+  H206  1  0.60607544  0.59991184  0.66461323  1
  H+  H207  1  0.59738000  0.71144578  0.01513654  1
  H+  H208  1  1.00469348  0.14180664  0.49702698  1
  H+  H209  1  0.62915307  0.03742010  0.65420755  1
  H+  H210  1  0.60206512  0.68749796  0.66046343  1
  H+  H211  1  0.39770870  0.62398125  0.17525625  1
  H+  H212  1  0.63751026  0.77874193  0.32902936  1
  H+  H213  1  -0.02235795  0.12090386  0.33197238  1
  H+  H214  1  0.14093744  0.27942808  0.99657978  1
  H+  H215  1  0.72601643  0.10617244  0.17635569  1
  H+  H216  1  0.29214500  0.89758015  0.34273252  1
  H+  H217  1  0.36746744  0.98344109  -0.02436726  1
  H+  H218  1  0.15522632  0.40010461  0.81978317  1
  H+  H219  1  0.40191680  0.53708824  0.18188115  1
  H+  H220  1  0.23055390  0.61541015  0.45810223  1
  H+  H221  1  0.86889705  0.03770613  0.50620009  1
  H+  H222  1  0.11717023  0.48207491  0.00884565  1
  H+  H223  1  0.18202408  0.56928574  0.69039095  1
  H+  H224  1  0.85681560  0.46737053  0.48896877  1
  H+  H225  1  -0.02204122  0.61362365  0.17184916  1
  H+  H226  1  0.52416057  0.90272647  1.00913770  1
  H+  H227  1  0.27747415  0.14244833  1.00150650  1
  H+  H228  1  0.91667032  0.33620635  0.26455159  1
  H+  H229  1  0.10795351  0.71878335  0.16277280  1
  H+  H230  1  0.64678703  0.28805123  0.98009918  1
  H+  H231  1  0.08872474  0.75355287  0.68290502  1
  H+  H232  1  0.89028883  0.62333778  0.00556381  1
  H+  H233  1  0.51289216  0.39058601  0.84024450  1
  H+  H234  1  0.15412104  0.54048598  0.83430242  1
  H+  H235  1  0.60216352  0.39143776  0.83279221  1
  H+  H236  1  0.63928576  0.61134373  0.50259823  1
  H+  H237  1  0.66210884  0.09091674  0.55953233  1
  H+  H238  1  0.64152996  0.37377595  0.98514671  1
  H+  H239  1  0.84642006  0.34792856  0.85211915  1
  H+  H240  1  0.83463296  0.43591924  0.77986943  1
  H+  H241  1  0.10631212  0.88493648  0.65821122  1
  H+  H242  1  0.39261086  0.11587634  0.33018228  1
  H+  H243  1  0.52310717  0.89830635  0.67299422  1
  H+  H244  1  0.09581658  0.96680602  0.66798843  1
  H+  H245  1  0.51479682  0.38384738  0.68381587  1
  H+  H246  1  0.62220070  0.50021890  0.66141990  1
  H+  H247  1  0.75027550  0.11860090  0.82684161  1
  H+  H248  1  0.63505958  0.27191981  0.48910871  1
  H+  H249  1  0.43389508  0.59401978  0.27450704  1
  H+  H250  1  0.20746109  0.34325766  0.50272811  1
  H+  H251  1  0.52171372  0.13814480  0.82713223  1
  H+  H252  1  0.63190447  0.27974359  0.83537847  1
  H+  H253  1  0.73551237  0.37426837  0.17814857  1
  H+  H254  1  0.38440731  0.27282962  0.84169618  1
  H+  H255  1  0.86428349  0.48174534  0.16911587  1
  H+  H256  1  0.53139552  0.64115300  0.34205888  1
  H+  H257  1  0.12284651  0.65303154  1.00060774  1
  H+  H258  1  0.11091744  0.47040476  0.47263254  1
  H+  H259  1  0.64335764  0.77785297  0.49730675  1
  H+  H260  1  0.64168282  0.28067828  0.32522106  1
  H+  H261  1  0.11197003  0.62449633  0.40887150  1
  H+  H262  1  0.36810961  0.72757657  1.00730551  1
  H+  H263  1  0.77811459  0.40624647  0.01319000  1
  H+  H264  1  0.11328998  0.26019392  0.50638082  1
  H+  H265  1  0.72358882  0.12205694  0.00045478  1
  H+  H266  1  0.12915171  0.87114029  0.83366351  1
  H+  H267  1  0.77557730  0.63881573  0.15753135  1
  H+  H268  1  0.23791547  0.87101577  0.66017717  1
  H+  H269  1  0.11029099  0.63215623  0.16677067  1
  H+  H270  1  -0.02176209  0.87029020  0.32846385  1
  H+  H271  1  0.37168607  0.89512344  0.49446369  1
  H+  H272  1  0.03572563  0.65561323  0.00897208  1
  H+  H273  1  0.61871800  0.87748028  0.84730272  1
  H+  H274  1  0.38280702  0.27591770  0.32597866  1
  H+  H275  1  0.26049815  0.36985085  0.66842745  1
  H+  H276  1  0.46496267  0.35123652  0.98514316  1
  H+  H277  1  0.88283564  0.00357271  0.65585323  1
  H+  H278  1  0.86252737  0.73405674  0.33934170  1
  H+  H279  1  0.02918110  0.14726300  0.01303943  1
  H+  H280  1  0.22921973  0.61298995  0.17270896  1
  H+  H281  1  0.13967142  0.52425700  0.17532597  1
  H+  H282  1  0.36191704  0.72479603  0.16202052  1
  H+  H283  1  0.11196661  0.89065077  -0.00043288  1
  H+  H284  1  0.40136921  0.65493318  0.68757947  1
  H+  H285  1  0.92596411  0.60197931  0.23189973  1
  H+  H286  1  0.89546362  0.76304649  0.82934636  1
  H+  H287  1  0.38577411  0.26343584  0.50198258  1
  H+  H288  1  0.94367170  0.08436960  0.83002045  1
  H+  H289  1  0.42051307  0.09416936  0.56102187  1
  H+  H290  1  0.90360041  0.32310471  0.95097608  1
  H+  H291  1  0.58596638  0.16959967  0.39581499  1
  H+  H292  1  0.91578742  0.10390849  0.59739330  1
  H+  H293  1  0.83415160  0.92606434  0.39472622  1
  H+  H294  1  0.42237520  0.33202299  0.22924656  1
  H+  H295  1  0.16927459  0.33667922  0.93637351  1
  H+  H296  1  0.07408736  0.90812531  0.75852195  1
  H+  H297  1  0.18707542  0.07096013  0.21385885  1
  H+  H298  1  0.36534923  0.38747402  0.33814460  1
  H+  H299  1  0.81494785  0.15497719  0.73049117  1
  H+  H300  1  0.88954436  0.87087545  0.32485372  1
  H+  H301  1  0.41492083  0.32074770  0.56393200  1
  H+  H302  1  0.10885388  0.73106772  0.47907585  1
  H+  H303  1  0.83091193  0.42500472  0.10804740  1
  H+  H304  1  0.14836881  0.82796691  0.23675318  1
  H+  H305  1  0.16233768  0.84709409  0.93068542  1
  H+  H306  1  0.11037028  0.97039267  0.15067414  1
  H+  H307  1  0.67053469  0.58601841  0.22487755  1
  H+  H308  1  0.41447541  0.58036600  0.93672121  1
  H+  H309  1  0.48359907  0.87869742  0.84508572  1
  H+  H310  1  0.81538389  0.66013603  0.05949310  1
  H+  H311  1  0.08029593  0.92349914  0.40282943  1
  H+  H312  1  0.08132278  0.16935035  0.77188476  1
  H+  H313  1  0.41209359  0.08931371  0.89507515  1
  H+  H314  1  0.92232023  0.09229897  0.26984995  1
  H+  H315  1  0.61787511  0.18211371  0.12233793  1
  H+  H316  1  0.83201868  0.41152932  0.42587219  1
  H+  H317  1  0.47564457  0.11701004  0.65836342  1
  H+  H318  1  0.85430452  0.90439513  0.74865955  1
  H+  H319  1  0.33105948  0.39885835  0.77003161  1
  H+  H320  1  0.90547822  0.58291000  0.59037954  1
  H+  H321  1  0.56369580  0.93907714  0.78381325  1
  H+  H322  1  0.40666980  0.32447984  0.90946457  1
  H+  H323  1  0.42527351  0.83661739  0.55857936  1
  H+  H324  1  0.42889344  0.59899428  0.56009279  1
  H+  H325  1  0.14394153  0.09081622  0.28910445  1
  H+  H326  1  0.56964627  0.42500427  0.74512266  1
  H+  H327  1  0.48203551  0.59089742  0.68335503  1
  H+  H328  1  0.30875353  0.91206860  0.77199923  1
  H+  H329  1  0.41177805  0.80990427  0.24148851  1
  H+  H330  1  0.96152260  0.85229718  0.64801405  1
  H+  H331  1  0.07986324  0.91519488  0.05975297  1
  H+  H332  1  0.86260453  0.14152410  0.33592857  1
  H+  H333  1  0.57277595  0.17855741  0.04048860  1
  H+  H334  1  0.64880766  0.28231579  0.18366625  1
  H+  H335  1  0.90903733  0.81580140  0.55971037  1
  H+  H336  1  0.40354574  0.78002622  0.65586875  1
  H+  H337  1  0.66348556  0.08964201  0.90269304  1
  H+  H338  1  0.61122905  0.88392001  0.16175616  1
  H+  H339  1  0.60037777  0.67709147  0.42620967  1
  H+  H340  1  0.18161151  0.83157804  0.60143514  1
  H+  H341  1  0.57955244  0.93251028  0.07042014  1
  H+  H342  1  0.82752737  0.17443535  0.42781552  1
  H+  H343  1  0.61226297  0.14203202  0.49024872  1
  H+  H344  1  0.08863702  0.16985245  0.07073389  1
  H+  H345  1  0.15535533  0.32305718  0.59486772  1
  H+  H346  1  0.18111654  0.58519282  0.26779096  1
  H+  H347  1  0.82107680  0.90662183  0.08410490  1
  H+  H348  1  0.33905578  0.17391652  0.08819627  1
  H+  H349  1  0.13303580  0.58331332  0.57755957  1
  H+  H350  1  0.06785149  0.67941656  0.78148764  1
  H+  H351  1  0.16575921  0.33224934  0.23546993  1
  H+  H352  1  0.08239935  0.41182017  0.39000601  1
  H+  H353  1  0.31927020  0.91388013  0.08475769  1
  H+  H354  1  0.67298763  0.34481736  0.26830970  1
  H+  H355  1  0.42553024  0.82832628  0.93536243  1
  H+  H356  1  0.65670403  0.56820032  0.56200473  1
  H+  H357  1  0.55767491  0.65970137  0.11361145  1
  H+  H358  1  0.83490337  0.16537305  0.10781607  1
  H+  H359  1  0.33412772  0.41290973  0.39849370  1
  H+  H360  1  0.17398256  0.58998651  0.93606008  1
  H+  H361  1  0.66287219  0.82870754  0.56020294  1
  H+  H362  1  0.38564233  0.12866269  -0.01314494  1
  H+  H363  1  0.75934656  0.45228541  0.70983744  1
  H+  H364  1  0.08070836  0.39559566  0.73322764  1
  H+  H365  1  0.83005136  0.95181806  0.01979186  1
  H+  H366  1  0.47579637  0.12896265  0.97774733  1
  H+  H367  1  0.89908816  0.31765165  0.59827495  1
  H+  H368  1  0.58138356  0.41825450  0.39527357  1
  H+  H369  1  0.35180107  0.93367433  0.40026998  1
  H+  H370  1  0.33508099  0.66753620  0.10120964  1
  H+  H371  1  0.08464739  0.41915328  0.10396760  1
  H+  H372  1  0.58434734  0.91963001  0.39716447  1
  H+  H373  1  0.18415444  0.07726982  0.57441674  1
  H+  H374  1  0.17160257  0.62842236  0.57684882  1
  H+  H375  1  0.32600850  0.16049392  0.42752799  1
  H+  H376  1  0.81217927  0.65638778  0.76284587  1
  H+  H377  1  0.91898129  0.82847088  0.23070960  1
  H+  H378  1  0.20509116  0.47499466  0.77285684  1
  H+  H379  1  0.66428512  0.83492049  0.23273031  1
  H+  H380  1  0.32707042  0.87666774  0.08553207  1
  H+  H381  1  0.06839917  0.16852141  0.44003379  1
  H+  H382  1  0.11842347  0.76896576  0.34651738  1
  H+  H383  1  0.14180063  0.27404297  0.84239401  1
  O2-  O384  1  0.08702057  0.16686656  0.14610193  1
  O2-  O385  1  0.06614054  0.16985571  0.48538337  1
  O2-  O386  1  0.08011794  0.16711830  0.81699816  1
  O2-  O387  1  0.08086288  0.41725796  0.14940831  1
  O2-  O388  1  0.07376560  0.40686548  0.46989523  1
  O2-  O389  1  0.14968579  0.44384421  0.79324821  1
  O2-  O390  1  0.07549235  0.65748008  0.15216944  1
  O2-  O391  1  0.07570495  0.66607117  0.47638885  1
  O2-  O392  1  0.08361263  0.67952698  0.82426672  1
  O2-  O393  1  0.08007059  0.90859060  0.14014709  1
  O2-  O394  1  0.08789579  0.91858354  0.48186324  1
  O2-  O395  1  0.07706541  0.91451219  0.80304813  1
  O2-  O396  1  0.33567185  0.17068360  0.13486586  1
  O2-  O397  1  0.32979710  0.16296500  0.47213408  1
  O2-  O398  1  0.33015783  0.16182074  0.80704002  1
  O2-  O399  1  0.34614100  0.43411867  0.16943267  1
  O2-  O400  1  0.32569449  0.39480797  0.48359738  1
  O2-  O401  1  0.33493359  0.40852587  0.81446422  1
  O2-  O402  1  0.33312949  0.66448462  0.14668656  1
  O2-  O403  1  0.34084423  0.68303562  0.46289746  1
  O2-  O404  1  0.34278833  0.67642288  0.81902773  1
  O2-  O405  1  0.33782385  0.91521231  0.20115388  1
  O2-  O406  1  0.34568553  0.93014523  0.48064099  1
  O2-  O407  1  0.32076696  0.91561016  0.81537955  1
  O2-  O408  1  0.59968851  0.17069468  0.16451889  1
  O2-  O409  1  0.58406772  0.17418397  0.47356148  1
  O2-  O410  1  0.58234334  0.16965391  0.81225153  1
  O2-  O411  1  0.58802923  0.41806940  0.13582690  1
  O2-  O412  1  0.58059310  0.41128875  0.47545364  1
  O2-  O413  1  0.57429993  0.42696476  0.82595910  1
  O2-  O414  1  0.56327636  0.67102521  0.15924145  1
  O2-  O415  1  0.60413179  0.67993171  0.47344970  1
  O2-  O416  1  0.58259337  0.68553109  0.80790292  1
  O2-  O417  1  0.58006413  0.91487458  0.15012619  1
  O2-  O418  1  0.58531513  0.92347737  0.47444848  1
  O2-  O419  1  0.56707311  0.93392477  0.82774673  1
  O2-  O420  1  0.83715941  0.16662805  0.15329141  1
  O2-  O421  1  0.82269875  0.17340895  0.47309646  1
  O2-  O422  1  0.81085417  0.14526289  0.80841439  1
  O2-  O423  1  0.83297519  0.42056641  0.15449155  1
  O2-  O424  1  0.82517474  0.40709664  0.47300441  1
  O2-  O425  1  0.83027622  0.42477174  0.82444896  1
  O2-  O426  1  0.83660401  0.67265560  0.14088072  1
  O2-  O427  1  0.82376210  0.64314791  0.47326648  1
  O2-  O428  1  0.83074259  0.66196184  0.80549732  1
  O2-  O429  1  0.83628380  0.92093318  0.16075374  1
  O2-  O430  1  0.82587855  0.93211980  0.47797760  1
  O2-  O431  1  0.83173023  0.88544339  0.78965251  1
  O2-  O432  1  0.17743452  0.08129622  0.17189863  1
  O2-  O433  1  0.17400016  0.07094305  0.53086260  1
  O2-  O434  1  0.16209484  0.07667076  0.84722264  1
  O2-  O435  1  0.16623074  0.33636425  0.19008091  1
  O2-  O436  1  0.15041604  0.32421485  0.52046662  1
  O2-  O437  1  0.17537371  0.33506679  0.85645455  1
  O2-  O438  1  0.17011140  0.58436383  0.19083708  1
  O2-  O439  1  0.16659927  0.58058884  0.45782526  1
  O2-  O440  1  0.17508945  0.59918718  0.84965808  1
  O2-  O441  1  0.16107589  0.83264864  0.19330402  1
  O2-  O442  1  0.17194096  0.83588608  0.47249485  1
  O2-  O443  1  0.16284670  0.84625109  0.85317107  1
  O2-  O444  1  0.42350011  0.09710817  0.18703589  1
  O2-  O445  1  0.42172055  0.09398382  0.51549024  1
  O2-  O446  1  0.41448882  0.08573833  0.84907930  1
  O2-  O447  1  0.42591717  0.33511182  0.18409718  1
  O2-  O448  1  0.41611837  0.32377047  0.51807291  1
  O2-  O449  1  0.41051171  0.33128215  0.85891148  1
  O2-  O450  1  0.42974978  0.59892405  0.19593095  1
  O2-  O451  1  0.43474445  0.60971676  0.51636533  1
  O2-  O452  1  0.41719017  0.57870175  0.84927102  1
  O2-  O453  1  0.41561447  0.82403168  0.19782949  1
  O2-  O454  1  0.42121631  0.83893841  0.51343594  1
  O2-  O455  1  0.41726039  0.83228715  0.85816665  1
  O2-  O456  1  0.66557490  0.07834668  0.19050907  1
  O2-  O457  1  0.65963990  0.08751910  0.51374751  1
  O2-  O458  1  0.65975267  0.08652887  0.85753731  1
  O2-  O459  1  0.67368597  0.34405771  0.19363488  1
  O2-  O460  1  0.66865086  0.33665991  0.49701787  1
  O2-  O461  1  0.66008662  0.34117312  0.84797984  1
  O2-  O462  1  0.67969790  0.58702059  0.18059315  1
  O2-  O463  1  0.66190303  0.57350304  0.51634675  1
  O2-  O464  1  0.69080481  0.56756097  0.88740507  1
  O2-  O465  1  0.66835705  0.83551070  0.18767708  1
  O2-  O466  1  0.66690825  0.83732589  0.51582299  1
  O2-  O467  1  0.65339908  0.85001636  0.85852974  1
  O2-  O468  1  0.92458750  0.08897476  0.19249751  1
  O2-  O469  1  0.89993623  0.09662425  0.52305336  1
  O2-  O470  1  0.88238255  0.04816938  0.83966408  1
  O2-  O471  1  0.91473958  0.33556854  0.18845010  1
  O2-  O472  1  0.91149827  0.33046373  0.51716825  1
  O2-  O473  1  0.84430995  0.29653559  0.87257464  1
  O2-  O474  1  0.91663145  0.58741669  0.18796088  1
  O2-  O475  1  0.90909322  0.56923748  0.51512691  1
  O2-  O476  1  0.92384550  0.58206392  0.88154780  1
  O2-  O477  1  0.91890943  0.83133545  0.18558370  1
  O2-  O478  1  0.92036810  0.80752334  0.51547301  1
  O2-  O479  1  0.92741055  0.82533636  0.84083458  1
  O2-  O480  1  0.16111557  0.08734225  0.33044939  1
  O2-  O481  1  0.15496697  0.07569348  0.68362204  1
  O2-  O482  1  0.16568216  0.08049242  0.97149787  1
  O2-  O483  1  0.16801090  0.32935785  0.31376087  1
  O2-  O484  1  0.15900877  0.32264189  0.64085494  1
  O2-  O485  1  0.16816325  0.33930108  0.98154979  1
  O2-  O486  1  0.18776794  0.58355203  0.31293682  1
  O2-  O487  1  0.21465906  0.54610070  0.66975253  1
  O2-  O488  1  0.17161562  0.58657085  0.98085267  1
  O2-  O489  1  0.16105861  0.83034356  0.34648448  1
  O2-  O490  1  0.17835008  0.84264397  0.64450908  1
  O2-  O491  1  0.16734467  0.84848872  0.97579848  1
  O2-  O492  1  0.42609187  0.09080633  0.31307270  1
  O2-  O493  1  0.41592138  0.08553344  0.63907345  1
  O2-  O494  1  0.41383457  0.09740098  0.96764955  1
  O2-  O495  1  0.41559842  0.33625436  0.31059017  1
  O2-  O496  1  0.41324487  0.32415464  0.64037986  1
  O2-  O497  1  0.40496875  0.32035198  0.97103153  1
  O2-  O498  1  0.43840528  0.58974310  0.31944582  1
  O2-  O499  1  0.41708686  0.56851780  0.68943007  1
  O2-  O500  1  0.40649896  0.57808501  0.98108306  1
  O2-  O501  1  0.39893341  0.79852162  0.32764860  1
  O2-  O502  1  0.42998743  0.83836720  0.63635393  1
  O2-  O503  1  0.42213902  0.83093044  0.98074549  1
  O2-  O504  1  0.66602579  0.08089581  0.32662645  1
  O2-  O505  1  0.66221531  0.09551516  0.63566667  1
  O2-  O506  1  0.66466968  0.09636313  0.98298080  1
  O2-  O507  1  0.67101490  0.34236653  0.31433596  1
  O2-  O508  1  0.67719239  0.31808981  0.62936306  1
  O2-  O509  1  0.67701633  0.34941794  0.96790538  1
  O2-  O510  1  0.66747120  0.59037062  0.30916116  1
  O2-  O511  1  0.65119622  0.55709793  0.63698996  1
  O2-  O512  1  0.66970246  0.57334456  0.95081894  1
  O2-  O513  1  0.66393245  0.83958125  0.31404787  1
  O2-  O514  1  0.65366160  0.80135491  0.64191810  1
  O2-  O515  1  0.64908022  0.80859686  0.98006045  1
  O2-  O516  1  0.91734435  0.09131310  0.31542077  1
  O2-  O517  1  0.92128456  0.10101491  0.64278289  1
  O2-  O518  1  0.86168324  0.03737855  0.96592580  1
  O2-  O519  1  0.91706809  0.33348596  0.31038179  1
  O2-  O520  1  0.89104324  0.31211426  0.64304085  1
  O2-  O521  1  0.91801072  0.31538194  0.99272404  1
  O2-  O522  1  0.96253258  0.64716027  0.30703376  1
  O2-  O523  1  0.89839948  0.58949078  0.63503788  1
  O2-  O524  1  0.92568824  0.59553882  0.99895504  1
  O2-  O525  1  0.91809592  0.83791806  0.31252264  1
  O2-  O526  1  0.90145968  0.82539890  0.63161838  1
  O2-  O527  1  0.90237091  0.82387980  0.99060803  1
  O2-  O528  1  0.08904374  0.17164003  0.02475804  1
  O2-  O529  1  0.07746191  0.16993660  0.36321002  1
  O2-  O530  1  0.07999473  0.16604708  0.68949610  1
  O2-  O531  1  0.08700634  0.42203328  0.02512826  1
  O2-  O532  1  0.08711110  0.41576207  0.34485131  1
  O2-  O533  1  0.05808195  0.38096342  0.69056579  1
  O2-  O534  1  0.09957146  0.69130785  0.00908119  1
  O2-  O535  1  0.07823421  0.65454745  0.40993226  1
  O2-  O536  1  0.04261151  0.69837369  0.69952596  1
  O2-  O537  1  0.08037044  0.92069685  0.01477739  1
  O2-  O538  1  0.08175875  0.92200650  0.35757756  1
  O2-  O539  1  0.06550641  0.90303002  0.67186661  1
  O2-  O540  1  0.33738604  0.17505862  0.01649255  1
  O2-  O541  1  0.31887422  0.16337242  0.33387976  1
  O2-  O542  1  0.33384434  0.16224109  0.68701821  1
  O2-  O543  1  0.34404772  0.41904286  0.01171248  1
  O2-  O544  1  0.33423897  0.41692982  0.35392135  1
  O2-  O545  1  0.32024332  0.39384678  0.68468889  1
  O2-  O546  1  0.33366112  0.66703951  0.02263407  1
  O2-  O547  1  0.37153312  0.70879086  0.34157622  1
  O2-  O548  1  0.37062168  0.68807559  0.69196384  1
  O2-  O549  1  0.34165964  0.92077193  -0.02907855  1
  O2-  O550  1  0.35175768  0.93556474  0.35519900  1
  O2-  O551  1  0.35638395  0.93085032  0.67880216  1
  O2-  O552  1  0.58527502  0.17921550  -0.00246149  1
  O2-  O553  1  0.58958865  0.16670241  0.35048269  1
  O2-  O554  1  0.56773567  0.15914434  0.68925319  1
  O2-  O555  1  0.58309355  0.41316614  0.01167179  1
  O2-  O556  1  0.58133638  0.41971568  0.35009207  1
  O2-  O557  1  0.57330641  0.42050982  0.70014673  1
  O2-  O558  1  0.56673685  0.65468608  0.03648167  1
  O2-  O559  1  0.59430717  0.67657344  0.35679568  1
  O2-  O560  1  0.57760126  0.63281342  0.68247425  1
  O2-  O561  1  0.58041336  0.94625446  0.02666950  1
  O2-  O562  1  0.58353011  0.92151277  0.35165528  1
  O2-  O563  1  0.57517647  0.94412683  0.69459355  1
  O2-  O564  1  0.82780980  0.15949546  0.02956049  1
  O2-  O565  1  0.82912783  0.16991638  0.34916315  1
  O2-  O566  1  0.81864704  0.15574809  0.68499812  1
  O2-  O567  1  0.83128504  0.43347522  0.03750800  1
  O2-  O568  1  0.83735930  0.41743652  0.35764083  1
  O2-  O569  1  0.81131778  0.44850069  0.70554795  1
  O2-  O570  1  0.81735144  0.66050260  0.01423763  1
  O2-  O571  1  0.83369009  0.67148305  0.34952900  1
  O2-  O572  1  0.80769525  0.65838766  0.67858492  1
  O2-  O573  1  0.81463680  0.89671198  0.03920422  1
  O2-  O574  1  0.83487838  0.92392302  0.34987055  1
  O2-  O575  1  0.84887609  0.93882324  0.66429689  1
