# generated using pymatgen
data_H2O
_symmetry_space_group_name_H-M   'P 1'
_cell_length_a   17.98188855
_cell_length_b   17.97951933
_cell_length_c   21.97941383
_cell_angle_alpha   89.99730662
_cell_angle_beta   89.96130092
_cell_angle_gamma   120.07748330
_symmetry_Int_Tables_number   1
_chemical_formula_structural   H2O
_chemical_formula_sum   'H384 O192'
_cell_volume   6149.22464444
_cell_formula_units_Z   192
loop_
 _symmetry_equiv_pos_site_id
 _symmetry_equiv_pos_as_xyz
  1  'x, y, z'
loop_
 _atom_type_symbol
 _atom_type_oxidation_number
  H+  1.0
  O2-  -2.0
loop_
 _atom_site_type_symbol
 _atom_site_label
 _atom_site_symmetry_multiplicity
 _atom_site_fract_x
 _atom_site_fract_y
 _atom_site_fract_z
 _atom_site_occupancy
  H+  H0  1  0.09374050  0.72469405  0.82204379  1
  H+  H1  1  0.31709258  0.42904093  0.74721545  1
  H+  H2  1  0.38086996  0.10735611  0.65830242  1
  H+  H3  1  0.92664651  0.09765601  0.32187679  1
  H+  H4  1  0.37873710  0.14170621  0.15215002  1
  H+  H5  1  0.03773665  0.87948223  0.32978135  1
  H+  H6  1  0.40093613  0.53259253  0.99456114  1
  H+  H7  1  0.09105740  0.15348303  0.43846656  1
  H+  H8  1  0.46339769  0.08767191  0.50480279  1
  H+  H9  1  0.64890177  0.77475371  0.50066567  1
  H+  H10  1  0.62180739  0.52602680  0.50528289  1
  H+  H11  1  0.06613119  0.15462265  0.78174064  1
  H+  H12  1  0.59728028  0.38542572  0.66812536  1
  H+  H13  1  0.16394000  0.27440579  0.99229726  1
  H+  H14  1  0.47328149  0.85912951  0.66426668  1
  H+  H15  1  0.08925383  0.64336619  0.50111985  1
  H+  H16  1  0.10268457  0.62118070  0.67996882  1
  H+  H17  1  0.86605552  0.23903810  0.16970041  1
  H+  H18  1  0.62237865  0.76572903  0.83619052  1
  H+  H19  1  0.61165770  0.96905526  0.67067405  1
  H+  H20  1  0.18985381  0.61795285  0.50462823  1
  H+  H21  1  1.02370828  0.88772936  0.67810463  1
  H+  H22  1  0.91374465  0.04127896  0.99985013  1
  H+  H23  1  0.63925973  0.97852504  0.48436596  1
  H+  H24  1  0.35903848  0.44913456  0.53951578  1
  H+  H25  1  0.62862903  0.36394251  0.33194608  1
  H+  H26  1  0.08422240  0.38799213  0.39978758  1
  H+  H27  1  0.28057137  0.15330671  0.00463535  1
  H+  H28  1  0.12288177  0.37792322  0.01653168  1
  H+  H29  1  0.85534232  0.51830449  0.83293078  1
  H+  H30  1  0.85888907  0.48140646  0.33919528  1
  H+  H31  1  0.73820517  0.36664857  0.00099400  1
  H+  H32  1  0.12506067  0.84938295  0.67089845  1
  H+  H33  1  0.64309760  0.37217703  0.00105846  1
  H+  H34  1  0.59534876  0.13254068  0.33730687  1
  H+  H35  1  0.38784562  0.77227200  0.99979381  1
  H+  H36  1  0.73112086  0.61993389  -0.00921840  1
  H+  H37  1  0.85068263  0.97039330  -0.08370158  1
  H+  H38  1  0.62226898  0.64638508  0.99579526  1
  H+  H39  1  0.39245416  0.86177633  0.17206525  1
  H+  H40  1  0.86735161  0.20369760  0.83139586  1
  H+  H41  1  0.23396232  0.34919004  0.67490006  1
  H+  H42  1  0.43575252  0.07320837  0.90184008  1
  H+  H43  1  0.38474483  0.60319688  0.61994643  1
  H+  H44  1  0.88329843  0.36718210  0.17812882  1
  H+  H45  1  0.26190773  0.37434727  0.31225129  1
  H+  H46  1  0.01589576  0.36736797  0.66713210  1
  H+  H47  1  0.68400010  0.83235349  0.31362274  1
  H+  H48  1  0.21933717  0.26645371  0.64079761  1
  H+  H49  1  0.26713795  0.93759395  0.03131611  1
  H+  H50  1  0.96243590  0.63257067  0.84433027  1
  H+  H51  1  0.12985922  0.86113796  0.00424553  1
  H+  H52  1  0.10902031  0.47798651  0.17341199  1
  H+  H53  1  0.71903493  0.37560481  0.83652241  1
  H+  H54  1  0.39737898  0.57589234  0.23550681  1
  H+  H55  1  0.61948842  0.23539557  0.16204259  1
  H+  H56  1  0.15546515  0.26403027  0.15793196  1
  H+  H57  1  0.64542568  0.52769098  0.98972193  1
  H+  H58  1  0.82306050  0.25327348  0.34992674  1
  H+  H59  1  0.36545870  0.72432151  0.16209732  1
  H+  H60  1  1.04712530  0.38632711  0.49709559  1
  H+  H61  1  0.67343994  0.83405366  0.59757128  1
  H+  H62  1  0.86614892  0.50555077  0.49616122  1
  H+  H63  1  0.27674813  0.35906687  0.54160387  1
  H+  H64  1  0.07322899  0.26074328  0.26737234  1
  H+  H65  1  0.61587013  0.86076815  0.83422001  1
  H+  H66  1  0.85793077  0.97793243  0.68542397  1
  H+  H67  1  0.79782485  0.66168952  0.15679121  1
  H+  H68  1  0.60094867  0.47253541  0.15588568  1
  H+  H69  1  0.95147965  0.69458634  0.60899384  1
  H+  H70  1  0.27895761  0.65244906  0.38766668  1
  H+  H71  1  0.97482074  0.36999108  0.18002972  1
  H+  H72  1  0.11408224  0.76820589  0.51700611  1
  H+  H73  1  0.37925345  0.89584670  0.67620844  1
  H+  H74  1  0.38685483  0.39851507  0.99941306  1
  H+  H75  1  0.65808472  0.11402109  0.65581920  1
  H+  H76  1  0.76160230  0.86843798  0.50305738  1
  H+  H77  1  0.16074817  0.82060987  0.89143988  1
  H+  H78  1  0.01105337  0.12507196  0.68963471  1
  H+  H79  1  0.12569597  -0.03031134  0.32880684  1
  H+  H80  1  1.04503483  0.11916758  0.15181193  1
  H+  H81  1  0.06077547  0.12780571  -0.00231381  1
  H+  H82  1  0.84383124  0.87224459  0.77163966  1
  H+  H83  1  0.88434358  0.24523479  0.49745506  1
  H+  H84  1  0.87660697  0.79978170  0.90997035  1
  H+  H85  1  0.90785992  0.35939660  0.65817140  1
  H+  H86  1  0.52459998  0.64968165  0.67925755  1
  H+  H87  1  0.76376990  0.63317861  0.49052384  1
  H+  H88  1  0.61461688  0.98193075  0.00700131  1
  H+  H89  1  0.55483421  0.42083498  0.42847762  1
  H+  H90  1  0.35964270  0.63124268  0.16321811  1
  H+  H91  1  0.12832274  0.50797235  0.66370726  1
  H+  H92  1  0.34328173  0.46423529  0.32679428  1
  H+  H93  1  0.73016863  0.10304091  0.84257914  1
  H+  H94  1  0.12823229  0.35730669  0.84074038  1
  H+  H95  1  0.63055067  0.14587102  0.83088628  1
  H+  H96  1  0.38579235  0.77097404  0.84168664  1
  H+  H97  1  0.90106334  0.85675787  0.32778954  1
  H+  H98  1  0.98270951  0.61252727  0.17054814  1
  H+  H99  1  0.09706755  0.21888473  0.83902930  1
  H+  H100  1  0.72588090  0.86200284  0.66075898  1
  H+  H101  1  0.88744531  0.37708492  0.33098522  1
  H+  H102  1  0.15711650  0.10613750  0.94163932  1
  H+  H103  1  0.99233166  0.60238946  1.00459230  1
  H+  H104  1  0.28398552  0.63576093  0.01266092  1
  H+  H105  1  0.11188491  0.37567555  0.67596139  1
  H+  H106  1  0.20777853  0.48151825  0.50561212  1
  H+  H107  1  0.38406467  0.85903288  0.99744030  1
  H+  H108  1  0.11947008  0.71837658  0.16072077  1
  H+  H109  1  0.12625201  0.87869679  0.16505037  1
  H+  H110  1  0.37848009  0.99648115  0.67246678  1
  H+  H111  1  0.23407805  0.85588271  0.17190089  1
  H+  H112  1  0.34183887  0.66994549  0.07281982  1
  H+  H113  1  0.87281844  0.08742082  0.84998227  1
  H+  H114  1  0.47707385  0.36494926  0.63195489  1
  H+  H115  1  0.53385624  0.64752894  0.00129692  1
  H+  H116  1  0.73152068  0.09524907  0.64737194  1
  H+  H117  1  0.14810472  0.51073429  1.00338468  1
  H+  H118  1  0.62875954  0.36733692  0.83010119  1
  H+  H119  1  0.86238992  0.71878892  0.33728858  1
  H+  H120  1  0.11675597  0.75641244  0.66812005  1
  H+  H121  1  0.61190542  0.88503408  0.16224705  1
  H+  H122  1  0.60645627  -0.03511547  0.33656349  1
  H+  H123  1  0.39489818  0.12362619  -0.00792928  1
  H+  H124  1  0.38743205  0.02663933  0.31515559  1
  H+  H125  1  0.37730277  0.77634444  0.67338230  1
  H+  H126  1  0.13873335  0.74000057  0.98909735  1
  H+  H127  1  0.60444693  0.71532086  0.15436649  1
  H+  H128  1  0.86507656  0.48240905  0.15871486  1
  H+  H129  1  0.71762728  0.61688390  0.66226175  1
  H+  H130  1  0.17491249  0.82476063  0.23181538  1
  H+  H131  1  0.14608370  0.86002691  0.31823427  1
  H+  H132  1  0.21263012  0.60122751  0.66667380  1
  H+  H133  1  0.49178444  0.10024270  0.84047502  1
  H+  H134  1  0.59781279  0.86921926  0.33062980  1
  H+  H135  1  0.89396382  0.26881681  1.00351668  1
  H+  H136  1  0.11857598  0.11102515  0.85176331  1
  H+  H137  1  0.96514755  0.49828841  0.60407252  1
  H+  H138  1  0.90676337  0.00773606  0.17290787  1
  H+  H139  1  0.61511116  0.73555163  0.67165432  1
  H+  H140  1  0.60661265  0.12431908  0.48754458  1
  H+  H141  1  0.37204296  0.97827741  0.16221580  1
  H+  H142  1  0.90703523  0.58824348  1.03472716  1
  H+  H143  1  0.39746088  0.62078785  1.00002451  1
  H+  H144  1  0.47563844  0.86500375  0.32884206  1
  H+  H145  1  0.71095871  0.36934759  0.65644718  1
  H+  H146  1  0.86497493  0.87416637  0.95328932  1
  H+  H147  1  0.58800454  0.91943230  0.10216895  1
  H+  H148  1  0.90193082  0.12871008  0.52478386  1
  H+  H149  1  0.60363878  0.47555981  0.33832586  1
  H+  H150  1  0.15799835  1.01680177  0.17252542  1
  H+  H151  1  0.40851310  0.53281788  0.44658735  1
  H+  H152  1  0.69693222  0.12082206  0.33167123  1
  H+  H153  1  0.97367824  0.34806874  0.83968789  1
  H+  H154  1  0.22002287  0.09652946  0.51060690  1
  H+  H155  1  0.28748126  0.13549125  0.15487913  1
  H+  H156  1  0.22574821  0.83009197  0.98128735  1
  H+  H157  1  0.27637184  0.14181820  0.66776180  1
  H+  H158  1  0.10324920  0.46417345  0.82309199  1
  H+  H159  1  0.24030512  0.11198255  0.32498586  1
  H+  H160  1  0.87640024  0.24120315  0.67043333  1
  H+  H161  1  0.53570290  0.42062096  0.82821425  1
  H+  H162  1  0.31901500  0.48293696  0.68680061  1
  H+  H163  1  0.86555519  0.37413883  1.00728766  1
  H+  H164  1  0.86806258  0.15063731  0.17198847  1
  H+  H165  1  0.67173623  0.08079216  0.55572478  1
  H+  H166  1  0.40711343  0.28836395  0.98289977  1
  H+  H167  1  0.42183609  0.08798985  0.22622382  1
  H+  H168  1  0.47404209  0.11798660  0.32057929  1
  H+  H169  1  0.91009722  0.77864753  0.16698356  1
  H+  H170  1  0.87796574  0.14225231  0.01979119  1
  H+  H171  1  0.63556181  0.36643611  0.17453932  1
  H+  H172  1  0.37216161  -0.00043826  0.50597755  1
  H+  H173  1  0.58889930  0.41832538  0.06153557  1
  H+  H174  1  0.35877167  0.83919878  0.51524456  1
  H+  H175  1  0.38104688  0.52262288  0.17394560  1
  H+  H176  1  1.01789942  0.10346723  0.33245362  1
  H+  H177  1  0.37087189  0.64638671  0.82689028  1
  H+  H178  1  0.62029288  0.64940199  0.48958971  1
  H+  H179  1  0.23219909  0.61386131  0.17738372  1
  H+  H180  1  0.10068487  0.88415770  0.83242931  1
  H+  H181  1  0.80741684  0.90309809  0.35314548  1
  H+  H182  1  0.87237598  0.14978386  0.34655269  1
  H+  H183  1  0.58461638  0.71892346  0.33238049  1
  H+  H184  1  1.10774481  0.93611560  1.00003146  1
  H+  H185  1  0.51344705  0.38584053  0.33537324  1
  H+  H186  1  0.12127035  0.61486439  0.01176177  1
  H+  H187  1  0.90428248  0.66342747  0.61207628  1
  H+  H188  1  0.65916384  0.87330341  0.49948220  1
  H+  H189  1  0.52466347  0.89192946  0.00641562  1
  H+  H190  1  0.35556039  0.87654398  0.82461893  1
  H+  H191  1  0.33909835  0.25702671  0.81697945  1
  H+  H192  1  0.32155763  0.14811808  0.43490600  1
  H+  H193  1  0.36208287  0.99100269  0.00766834  1
  H+  H194  1  0.59075862  0.63234518  0.33991566  1
  H+  H195  1  0.99637738  0.86957644  0.17158430  1
  H+  H196  1  0.48042881  0.61910845  0.84284752  1
  H+  H197  1  0.61973653  0.14530456  0.16037074  1
  H+  H198  1  0.84816676  0.62544271  0.49048270  1
  H+  H199  1  0.29165472  0.61148162  0.48023346  1
  H+  H200  1  0.12465812  0.21653983  0.33736004  1
  H+  H201  1  0.87506281  0.44321869  0.83247791  1
  H+  H202  1  0.21966332  0.86260913  0.83319367  1
  H+  H203  1  0.63654443  0.02099401  0.84460681  1
  H+  H204  1  0.24001981  0.86495743  0.50704339  1
  H+  H205  1  0.11212463  0.11774190  0.49969117  1
  H+  H206  1  0.96322366  0.09322066  0.85451186  1
  H+  H207  1  0.76632064  0.36871575  0.49239554  1
  H+  H208  1  0.10504378  0.33379748  0.31822231  1
  H+  H209  1  0.74128823  0.70860722  0.21862033  1
  H+  H210  1  0.21046575  0.12417315  0.84542355  1
  H+  H211  1  0.49159635  0.34201365  0.53653827  1
  H+  H212  1  0.29519003  0.39435421  0.00033067  1
  H+  H213  1  0.09459440  0.96359103  0.50989605  1
  H+  H214  1  0.88807559  0.47589527  0.64891793  1
  H+  H215  1  0.51651022  0.38052837  0.15601814  1
  H+  H216  1  0.88694778  0.61150372  0.32236519  1
  H+  H217  1  0.60334888  0.47713651  0.66534271  1
  H+  H218  1  0.70453560  0.84403677  0.18036695  1
  H+  H219  1  0.11577929  0.71811677  0.31878184  1
  H+  H220  1  0.98354127  0.11648773  0.52201112  1
  H+  H221  1  0.62486082  0.64950366  0.82822146  1
  H+  H222  1  0.65706328  0.54872098  0.83022489  1
  H+  H223  1  0.48472906  0.11654193  0.16798655  1
  H+  H224  1  0.62453976  0.14846244  0.00782249  1
  H+  H225  1  0.87756415  0.11064836  0.67390087  1
  H+  H226  1  0.21617438  0.51291192  0.87383658  1
  H+  H227  1  0.39293998  0.36303588  0.16565840  1
  H+  H228  1  0.87124045  0.78671004  -0.01569339  1
  H+  H229  1  0.37643484  0.16123225  0.87058360  1
  H+  H230  1  0.39174673  0.27175029  0.16613812  1
  H+  H231  1  0.23578651  0.85992143  0.31946117  1
  H+  H232  1  0.41941443  0.19881988  0.86250593  1
  H+  H233  1  0.78562915  0.33829188  0.70753566  1
  H+  H234  1  0.62801140  0.61301717  0.65781066  1
  H+  H235  1  0.36505086  0.22696154  0.33717733  1
  H+  H236  1  0.66765944  0.65373232  0.17056879  1
  H+  H237  1  0.11684817  0.35640291  0.49681540  1
  H+  H238  1  0.32533353  0.61895318  0.66529522  1
  H+  H239  1  0.73289720  0.11675001  0.99937519  1
  H+  H240  1  0.97549025  0.60805793  0.31480178  1
  H+  H241  1  0.88934172  0.86655309  0.66311926  1
  H+  H242  1  0.13031462  0.10344518  0.67280467  1
  H+  H243  1  0.09573009  0.87561391  0.51227558  1
  H+  H244  1  0.13981840  0.13390396  0.33905401  1
  H+  H245  1  0.48164669  0.86291775  0.17236353  1
  H+  H246  1  0.87517234  0.32356738  0.84632230  1
  H+  H247  1  0.53462486  0.38956011  -0.00147072  1
  H+  H248  1  0.36777888  0.40314738  0.83902637  1
  H+  H249  1  0.15693976  0.10522849  0.16907127  1
  H+  H250  1  0.36733430  0.96897451  0.82941783  1
  H+  H251  1  0.86684498  -0.13039297  0.16355776  1
  H+  H252  1  0.60398466  0.22627782  0.34120924  1
  H+  H253  1  0.36779056  0.13909835  0.33405871  1
  H+  H254  1  0.87717669  0.67344983  -0.00300791  1
  H+  H255  1  0.62209753  0.23169678  0.82434113  1
  H+  H256  1  0.83085449  0.10825634  0.34014175  1
  H+  H257  1  0.60073333  0.66781597  0.09266640  1
  H+  H258  1  0.39811849  0.35337628  0.58953389  1
  H+  H259  1  0.01519747  0.36967407  0.34634700  1
  H+  H260  1  0.11821755  0.62924335  0.16773820  1
  H+  H261  1  0.57872591  0.91304132  0.76655883  1
  H+  H262  1  0.72057363  0.61018131  0.33173411  1
  H+  H263  1  0.32820261  0.71396701  0.48490571  1
  H+  H264  1  0.43490146  0.51124355  0.44908504  1
  H+  H265  1  0.72529237  0.11764851  0.17649192  1
  H+  H266  1  0.63206260  0.86913134  -0.01184871  1
  H+  H267  1  0.28596608  0.38250199  0.14973834  1
  H+  H268  1  0.10760013  0.20672549  0.69002868  1
  H+  H269  1  0.90324367  0.97761466  0.35126295  1
  H+  H270  1  0.64137397  0.27351259  1.00274015  1
  H+  H271  1  0.76891963  0.39167284  0.34151863  1
  H+  H272  1  0.63810573  0.78082728  0.98637240  1
  H+  H273  1  0.73622881  0.12091896  0.50003840  1
  H+  H274  1  0.66283380  0.24477720  0.67754469  1
  H+  H275  1  0.89750978  0.36377262  0.51068926  1
  H+  H276  1  0.95012691  0.83621270  0.80839173  1
  H+  H277  1  0.37813960  0.35849994  0.31680764  1
  H+  H278  1  0.62619271  0.25227417  0.50702212  1
  H+  H279  1  0.13890015  1.02022364  0.66882102  1
  H+  H280  1  0.35935881  0.60104455  0.32754641  1
  H+  H281  1  0.22040616  0.36222362  0.84361076  1
  H+  H282  1  0.35469544  0.48337536  0.83712955  1
  H+  H283  1  0.13365346  0.24423944  0.51277978  1
  H+  H284  1  0.01228749  0.60959828  0.67026537  1
  H+  H285  1  0.51637795  0.88351823  0.82655364  1
  H+  H286  1  0.85136233  0.73172331  0.67757345  1
  H+  H287  1  0.86361850  0.86552057  0.50730225  1
  H+  H288  1  0.18371102  0.58937846  0.24155743  1
  H+  H289  1  0.26716980  0.70074088  0.71019561  1
  H+  H290  1  0.65122346  0.08033511  0.26762522  1
  H+  H291  1  0.34564140  0.92621187  0.73875966  1
  H+  H292  1  0.78336258  0.20303185  0.41179865  1
  H+  H293  1  0.59547375  0.17830825  0.06875887  1
  H+  H294  1  0.91648475  0.58489541  0.22698212  1
  H+  H295  1  0.67480826  0.08830415  0.93886523  1
  H+  H296  1  0.87756311  0.64317398  0.15146019  1
  H+  H297  1  0.09334786  0.65073485  0.07072859  1
  H+  H298  1  0.91186853  0.33871908  0.27350705  1
  H+  H299  1  0.92578982  0.82881959  0.26447965  1
  H+  H300  1  0.61863328  0.33580006  0.51015762  1
  H+  H301  1  0.10935958  0.15013715  0.09367583  1
  H+  H302  1  0.87862026  0.18137782  0.44317100  1
  H+  H303  1  0.10516607  0.91084689  0.10394013  1
  H+  H304  1  0.11748980  0.63152053  0.32790664  1
  H+  H305  1  0.35482987  0.33522606  0.43258013  1
  H+  H306  1  0.60347297  0.91203766  0.42841667  1
  H+  H307  1  0.09295203  0.96873275  0.83673355  1
  H+  H308  1  0.84715488  0.68882488  0.06216540  1
  H+  H309  1  0.97172498  0.85343657  0.51683792  1
  H+  H310  1  0.58530255  0.67921597  0.43225348  1
  H+  H311  1  0.58249669  0.43460395  0.76323037  1
  H+  H312  1  0.93780232  0.10221781  0.94587922  1
  H+  H313  1  0.15018084  0.82264312  0.58090501  1
  H+  H314  1  0.76927893  0.90173726  0.95815289  1
  H+  H315  1  0.66100124  0.33687961  0.27261973  1
  H+  H316  1  0.82029503  0.89063885  0.11054023  1
  H+  H317  1  0.61144872  0.88083898  0.67212221  1
  H+  H318  1  0.58855375  0.67534547  0.76908172  1
  H+  H319  1  0.39471679  0.80950218  0.56908638  1
  H+  H320  1  0.87881560  0.76118080  0.51219404  1
  H+  H321  1  0.32944283  0.67669334  0.76954708  1
  H+  H322  1  0.47538842  0.45896281  0.88179168  1
  H+  H323  1  0.72643721  0.37028524  0.17657051  1
  H+  H324  1  0.79645108  0.70014802  0.84537877  1
  H+  H325  1  0.44215570  0.36377768  0.92549976  1
  H+  H326  1  0.65425375  0.32182294  0.59808770  1
  H+  H327  1  0.65156014  0.19542628  0.74105231  1
  H+  H328  1  0.83580876  0.15593062  0.76814792  1
  H+  H329  1  0.66858300  0.59280572  0.27125705  1
  H+  H330  1  0.82929928  0.66098343  0.39767693  1
  H+  H331  1  0.41625441  0.32988812  0.26160538  1
  H+  H332  1  0.35339992  0.42419710  0.09524251  1
  H+  H333  1  0.91552972  0.08687711  0.61585961  1
  H+  H334  1  0.24298253  0.60201714  0.84533619  1
  H+  H335  1  0.41953652  0.83747160  0.26745268  1
  H+  H336  1  0.78217623  0.19428299  0.69951487  1
  H+  H337  1  0.18337807  0.08273422  0.26367147  1
  H+  H338  1  0.05569832  0.65436964  0.77024362  1
  H+  H339  1  0.14619539  0.58791862  0.57008254  1
  H+  H340  1  0.91355738  0.82828993  0.60541405  1
  H+  H341  1  0.64690944  0.83039179  0.89987772  1
  H+  H342  1  0.67826480  0.59687924  0.89396207  1
  H+  H343  1  0.83957325  0.16932300  0.07589826  1
  H+  H344  1  0.31521009  0.19671224  0.75998404  1
  H+  H345  1  0.45199321  0.60721038  0.33253939  1
  H+  H346  1  0.34405350  0.17714011  0.06074235  1
  H+  H347  1  0.33966487  0.92080546  0.10288743  1
  H+  H348  1  0.35326837  0.93743531  0.38652366  1
  H+  H349  1  0.16561996  0.07786170  0.57369977  1
  H+  H350  1  0.08291325  0.41463409  0.11682914  1
  H+  H351  1  0.17374012  0.33413052  0.93645730  1
  H+  H352  1  0.42400757  0.59555481  0.90378875  1
  H+  H353  1  0.56931093  0.15522549  0.43291401  1
  H+  H354  1  0.63244200  0.81143131  0.23476617  1
  H+  H355  1  0.35372081  0.29875195  0.44993465  1
  H+  H356  1  0.17254827  0.33425796  0.20767448  1
  H+  H357  1  0.17890859  0.56761717  0.94232094  1
  H+  H358  1  0.95522537  0.06273574  0.23072914  1
  H+  H359  1  0.92489970  0.32370636  0.94231996  1
  H+  H360  1  0.63722703  0.02711149  0.17148940  1
  H+  H361  1  0.91111051  0.59896683  0.90645471  1
  H+  H362  1  0.15531344  0.29820392  0.57518772  1
  H+  H363  1  0.41694577  0.83354772  0.89997108  1
  H+  H364  1  0.03423468  0.37886413  0.01500159  1
  H+  H365  1  0.87064358  0.46620654  0.00547461  1
  H+  H366  1  0.40437284  0.06815745  0.59976917  1
  H+  H367  1  0.83287475  0.41565975  0.10284211  1
  H+  H368  1  0.48339248  0.12256376  0.99902778  1
  H+  H369  1  0.82063382  0.42687124  0.74252848  1
  H+  H370  1  0.66150117  0.58528470  0.56467643  1
  H+  H371  1  0.90030073  0.56020450  0.55543229  1
  H+  H372  1  0.81655621  0.68441505  0.73892983  1
  H+  H373  1  0.07848620  0.91632568  0.73951981  1
  H+  H374  1  0.34828797  0.11272600  0.49216584  1
  H+  H375  1  0.27125443  0.52940943  0.56059682  1
  H+  H376  1  0.36664901  0.22516150  0.65204353  1
  H+  H377  1  0.93012646  0.33326001  0.57105958  1
  H+  H378  1  0.28119750  0.85266548  0.44710220  1
  H+  H379  1  0.37688520  0.89350807  0.33023422  1
  H+  H380  1  0.84663247  0.90895445  0.44618497  1
  H+  H381  1  0.00286711  0.64401364  0.49033395  1
  H+  H382  1  0.82670334  0.40515676  0.43330482  1
  H+  H383  1  0.07149658  0.40441510  0.76267757  1
  O2-  O384  1  0.10668717  0.15286642  0.13854726  1
  O2-  O385  1  0.08236427  0.14901361  0.48324761  1
  O2-  O386  1  0.06418078  0.15693128  0.82756735  1
  O2-  O387  1  0.07072775  0.41745373  0.16021143  1
  O2-  O388  1  0.10193325  0.39817481  0.47830488  1
  O2-  O389  1  0.06779496  0.40402603  0.80879096  1
  O2-  O390  1  0.08790708  0.65685192  0.14696718  1
  O2-  O391  1  0.06552262  0.67948626  0.48472448  1
  O2-  O392  1  0.05429440  0.66254624  0.81492769  1
  O2-  O393  1  0.09897321  0.91231070  0.14883696  1
  O2-  O394  1  0.06095323  0.90194031  0.49814974  1
  O2-  O395  1  0.06514698  0.91001743  0.81929382  1
  O2-  O396  1  0.34706022  0.17116309  0.13756457  1
  O2-  O397  1  0.31467483  0.13997998  0.47951976  1
  O2-  O398  1  0.29204624  0.20581568  0.79831922  1
  O2-  O399  1  0.34961981  0.41785836  0.14034366  1
  O2-  O400  1  0.33652778  0.39209022  0.55707868  1
  O2-  O401  1  0.32523405  0.42190392  0.82451548  1
  O2-  O402  1  0.33213681  0.66470787  0.14531491  1
  O2-  O403  1  0.28649940  0.66016676  0.46253716  1
  O2-  O404  1  0.33497543  0.67280412  0.81723985  1
  O2-  O405  1  0.34166875  0.91699153  0.14778358  1
  O2-  O406  1  0.29816231  0.88644793  0.48440823  1
  O2-  O407  1  0.32932640  0.91061883  0.80962190  1
  O2-  O408  1  0.59106575  0.17654961  0.14331447  1
  O2-  O409  1  0.57025714  0.15041869  0.47833415  1
  O2-  O410  1  0.60184473  0.17215704  0.80797226  1
  O2-  O411  1  0.57914117  0.41432024  0.14064855  1
  O2-  O412  1  0.54428473  0.42919511  0.47275113  1
  O2-  O413  1  0.59411964  0.44346857  0.80768778  1
  O2-  O414  1  0.59953802  0.66143149  0.13749605  1
  O2-  O415  1  0.59829239  0.68790491  0.47684960  1
  O2-  O416  1  0.58911119  0.67585717  0.81470282  1
  O2-  O417  1  0.58821369  0.92241394  0.14726501  1
  O2-  O418  1  0.61893901  0.91814329  0.47274623  1
  O2-  O419  1  0.57833608  0.91238433  0.81239602  1
  O2-  O420  1  0.83651355  0.17675236  0.15440690  1
  O2-  O421  1  0.85026181  0.18314332  0.48050694  1
  O2-  O422  1  0.83254251  0.14564011  0.81306655  1
  O2-  O423  1  0.83066630  0.41970056  0.14772910  1
  O2-  O424  1  0.82734690  0.40105411  0.47883424  1
  O2-  O425  1  0.83270087  0.45641934  0.81618933  1
  O2-  O426  1  0.85334396  0.67894135  0.13465859  1
  O2-  O427  1  0.82477113  0.66267411  0.47596714  1
  O2-  O428  1  0.85600472  0.74784525  0.85509577  1
  O2-  O429  1  0.82755043  0.89335209  0.15451294  1
  O2-  O430  1  0.83491456  0.89985962  0.49073904  1
  O2-  O431  1  0.81892069  0.90881678  0.76095018  1
  O2-  O432  1  0.18967169  0.07827898  0.18620487  1
  O2-  O433  1  0.16016068  0.07162341  0.52867630  1
  O2-  O434  1  0.15514767  0.08706614  0.86717865  1
  O2-  O435  1  0.18432697  0.32685497  0.16519654  1
  O2-  O436  1  0.16196087  0.30424384  0.53047958  1
  O2-  O437  1  0.15934539  0.33001824  0.85898178  1
  O2-  O438  1  0.17353767  0.58523934  0.19653943  1
  O2-  O439  1  0.13382121  0.58883537  0.52647124  1
  O2-  O440  1  0.19237826  0.55017674  0.86572329  1
  O2-  O441  1  0.17280700  0.82367059  0.18525331  1
  O2-  O442  1  0.15081813  0.82872906  0.53476883  1
  O2-  O443  1  0.15900077  0.83417497  0.84785524  1
  O2-  O444  1  0.42297178  0.08475861  0.18035725  1
  O2-  O445  1  0.40372147  0.05917679  0.52157678  1
  O2-  O446  1  0.43730026  0.05653821  0.85925757  1
  O2-  O447  1  0.42322481  0.33228966  0.18201369  1
  O2-  O448  1  0.52934966  0.34878478  0.50023408  1
  O2-  O449  1  0.44906075  0.39967898  0.86746545  1
  O2-  O450  1  0.40072271  0.58077318  0.19042879  1
  O2-  O451  1  0.26925856  0.51921021  0.51658501  1
  O2-  O452  1  0.42050378  0.59322597  0.85806123  1
  O2-  O453  1  0.42097513  0.82996044  0.18711660  1
  O2-  O454  1  0.38681131  0.80521507  0.52452656  1
  O2-  O455  1  0.41770475  0.83361730  0.85474883  1
  O2-  O456  1  0.66327426  0.08747394  0.18739977  1
  O2-  O457  1  0.67455935  0.08590032  0.51060497  1
  O2-  O458  1  0.67163929  0.08031564  0.86075064  1
  O2-  O459  1  0.66578029  0.33746517  0.19162957  1
  O2-  O460  1  0.65754241  0.31354009  0.52173031  1
  O2-  O461  1  0.65747166  0.33500648  0.84325346  1
  O2-  O462  1  0.71543843  0.65328212  0.19769970  1
  O2-  O463  1  0.66171474  0.58594293  0.51908145  1
  O2-  O464  1  0.68489094  0.60799995  0.84924390  1
  O2-  O465  1  0.64221852  0.81734825  0.18656013  1
  O2-  O466  1  0.68515187  0.83736916  0.51911433  1
  O2-  O467  1  0.64561350  0.82810765  0.85258911  1
  O2-  O468  1  0.94720850  0.06720729  0.18647195  1
  O2-  O469  1  0.92966708  0.09993672  0.54470979  1
  O2-  O470  1  0.90467426  0.06510032  0.87377799  1
  O2-  O471  1  0.91176569  0.33581919  0.19404386  1
  O2-  O472  1  0.93106909  0.33654133  0.52420546  1
  O2-  O473  1  0.91725626  0.30916109  0.86154004  1
  O2-  O474  1  0.92009353  0.58671192  0.18098045  1
  O2-  O475  1  0.89064227  0.56575943  0.51189048  1
  O2-  O476  1  0.90275313  0.60696512  0.86348716  1
  O2-  O477  1  0.93442826  0.83727437  0.18526853  1
  O2-  O478  1  0.90661260  0.81998639  0.53072475  1
  O2-  O479  1  0.88649489  0.80125724  0.80013319  1
  O2-  O480  1  0.17911211  0.08146391  0.30912887  1
  O2-  O481  1  0.16599250  0.08140745  0.65416714  1
  O2-  O482  1  0.15999601  0.10646560  0.98816652  1
  O2-  O483  1  0.12377546  0.29712492  0.29184795  1
  O2-  O484  1  0.18643974  0.29334788  0.65395577  1
  O2-  O485  1  0.18314508  0.33471962  0.98142435  1
  O2-  O486  1  0.19929875  0.59553598  0.32072908  1
  O2-  O487  1  0.15295178  0.56945942  0.65109349  1
  O2-  O488  1  0.17717195  0.57158281  0.98753195  1
  O2-  O489  1  0.17623292  0.82792512  0.30332434  1
  O2-  O490  1  0.15022999  0.81630660  0.65301691  1
  O2-  O491  1  0.16493268  0.79836177  0.96921549  1
  O2-  O492  1  0.41536134  0.08807305  0.30105831  1
  O2-  O493  1  0.40798142  0.07306100  0.64520034  1
  O2-  O494  1  0.42403594  0.08980958  0.98270379  1
  O2-  O495  1  0.41359346  0.33058540  0.30691562  1
  O2-  O496  1  0.43306931  0.32664952  0.60168002  1
  O2-  O497  1  0.44231845  0.35058530  0.97404247  1
  O2-  O498  1  0.39268340  0.57363090  0.31510307  1
  O2-  O499  1  0.33037813  0.57286084  0.64171689  1
  O2-  O500  1  0.42939169  0.59431556  0.98082832  1
  O2-  O501  1  0.41643215  0.84372486  0.31218735  1
  O2-  O502  1  0.41196725  0.83528056  0.65278708  1
  O2-  O503  1  0.41668490  0.83268110  0.98238016  1
  O2-  O504  1  0.64231767  0.07546657  0.31248224  1
  O2-  O505  1  0.67050526  0.07162471  0.63612453  1
  O2-  O506  1  0.67264543  0.09031683  0.98444119  1
  O2-  O507  1  0.66057169  0.33471506  0.31792387  1
  O2-  O508  1  0.65204987  0.32714919  0.64360203  1
  O2-  O509  1  0.67437096  0.33780301  0.98927415  1
  O2-  O510  1  0.66031091  0.58182857  0.31547923  1
  O2-  O511  1  0.65896753  0.58417241  0.64268019  1
  O2-  O512  1  0.67229869  0.58770538  0.97372953  1
  O2-  O513  1  0.62466340  0.80737394  0.30082455  1
  O2-  O514  1  0.66677436  0.83191901  0.64300327  1
  O2-  O515  1  0.66063297  0.83965489  0.96729528  1
  O2-  O516  1  0.95695303  0.06601240  0.31389439  1
  O2-  O517  1  0.90689883  0.07921425  0.66190321  1
  O2-  O518  1  0.94915612  0.10295202  0.99085533  1
  O2-  O519  1  0.91078410  0.33890859  0.31898021  1
  O2-  O520  1  0.93266515  0.32591977  0.64249841  1
  O2-  O521  1  0.92427485  0.32929585  0.98728794  1
  O2-  O522  1  0.91221943  0.57850395  0.30366509  1
  O2-  O523  1  0.93283997  0.52222086  0.62328551  1
  O2-  O524  1  0.92805446  0.57814824  0.99648717  1
  O2-  O525  1  0.92429294  0.82217884  0.30963227  1
  O2-  O526  1  0.91859788  0.83472869  0.65105617  1
  O2-  O527  1  0.89216956  0.83287734  0.95167812  1
  O2-  O528  1  0.12314479  0.15943257  0.00957971  1
  O2-  O529  1  0.10653298  0.16048151  0.35799317  1
  O2-  O530  1  0.06988623  0.14775894  0.70702881  1
  O2-  O531  1  0.09400664  0.40973973  0.03087457  1
  O2-  O532  1  0.07487569  0.38311327  0.35494345  1
  O2-  O533  1  0.07924351  0.40306286  0.68828463  1
  O2-  O534  1  0.09026034  0.64612537  0.02485267  1
  O2-  O535  1  0.07865607  0.65491487  0.32307347  1
  O2-  O536  1  0.06668408  0.64683919  0.69202613  1
  O2-  O537  1  0.13071991  0.90964779  0.02714714  1
  O2-  O538  1  0.09930138  0.90841724  0.34060786  1
  O2-  O539  1  0.08372427  0.91744501  0.69431129  1
  O2-  O540  1  0.34194505  0.17735793  0.01499022  1
  O2-  O541  1  0.33628101  0.16638876  0.35248310  1
  O2-  O542  1  0.33864090  0.17406820  0.67899916  1
  O2-  O543  1  0.35573554  0.42839037  0.01462659  1
  O2-  O544  1  0.31730071  0.40085204  0.33273443  1
  O2-  O545  1  0.30915674  0.42710537  0.70224215  1
  O2-  O546  1  0.34475851  0.67198346  0.02630190  1
  O2-  O547  1  0.28208511  0.64471171  0.34165465  1
  O2-  O548  1  0.31244825  0.68636986  0.70497996  1
  O2-  O549  1  0.31816958  0.93221337  0.02402388  1
  O2-  O550  1  0.34423423  0.92667584  0.34298435  1
  O2-  O551  1  0.35343917  0.93173365  0.69250145  1
  O2-  O552  1  0.59585965  0.18075411  0.02263430  1
  O2-  O553  1  0.56823370  0.16507944  0.35453889  1
  O2-  O554  1  0.68538841  0.21281197  0.70154438  1
  O2-  O555  1  0.59640389  0.41881740  0.01640557  1
  O2-  O556  1  0.57233529  0.41543311  0.35463514  1
  O2-  O557  1  0.56766311  0.41701327  0.68079506  1
  O2-  O558  1  0.59691635  0.68080224  0.01161208  1
  O2-  O559  1  0.55932673  0.66048984  0.35520136  1
  O2-  O560  1  0.58456414  0.67654108  0.69158225  1
  O2-  O561  1  0.58602931  0.92015609  0.01958075  1
  O2-  O562  1  0.57769310  0.90598222  0.35377671  1
  O2-  O563  1  0.58178335  0.91063265  0.68928374  1
  O2-  O564  1  0.84095510  0.16687039  0.03037958  1
  O2-  O565  1  0.76881467  0.20859760  0.36990293  1
  O2-  O566  1  0.82970879  0.18282671  0.69188411  1
  O2-  O567  1  0.83466908  0.40570185  0.01997917  1
  O2-  O568  1  0.82934156  0.42177066  0.35684411  1
  O2-  O569  1  0.81380302  0.40084479  0.70089720  1
  O2-  O570  1  0.84140378  0.69353070  0.01632928  1
  O2-  O571  1  0.82815064  0.65815958  0.35205200  1
  O2-  O572  1  0.81203998  0.67383304  0.69534716  1
  O2-  O573  1  0.83323852  0.93143443  -0.04738126  1
  O2-  O574  1  0.86378742  0.91834195  0.36902656  1
  O2-  O575  1  0.82753774  0.91352050  0.69401584  1
