# generated using pymatgen
data_H2O
_symmetry_space_group_name_H-M   'P 1'
_cell_length_a   17.98976923
_cell_length_b   17.99467957
_cell_length_c   22.00666648
_cell_angle_alpha   89.98374827
_cell_angle_beta   90.01866014
_cell_angle_gamma   119.98559159
_symmetry_Int_Tables_number   1
_chemical_formula_structural   H2O
_chemical_formula_sum   'H384 O192'
_cell_volume   6170.46100889
_cell_formula_units_Z   192
loop_
 _symmetry_equiv_pos_site_id
 _symmetry_equiv_pos_as_xyz
  1  'x, y, z'
loop_
 _atom_type_symbol
 _atom_type_oxidation_number
  H+  1.0
  O2-  -2.0
loop_
 _atom_site_type_symbol
 _atom_site_label
 _atom_site_symmetry_multiplicity
 _atom_site_fract_x
 _atom_site_fract_y
 _atom_site_fract_z
 _atom_site_occupancy
  H+  H0  1  0.77552509  0.76816595  0.62902685  1
  H+  H1  1  0.52717642  0.64162869  0.82898297  1
  H+  H2  1  0.43208418  0.87030422  0.59556758  1
  H+  H3  1  0.95534334  0.11550612  0.35748052  1
  H+  H4  1  0.88796880  0.35647836  0.52170538  1
  H+  H5  1  0.93172348  0.35794791  0.77702641  1
  H+  H6  1  0.14515299  0.86921863  0.33050286  1
  H+  H7  1  0.57527356  0.69493608  0.01470178  1
  H+  H8  1  0.17539405  0.43194105  1.03408085  1
  H+  H9  1  0.36031936  0.38135955  0.82429091  1
  H+  H10  1  0.86547509  0.90094893  0.82957191  1
  H+  H11  1  0.88154786  0.77932991  0.16870990  1
  H+  H12  1  0.37147860  0.89358545  0.00748663  1
  H+  H13  1  0.88456873  0.73999550  0.34091877  1
  H+  H14  1  0.09809477  0.37827046  0.16914956  1
  H+  H15  1  0.74584212  0.11662836  0.83624816  1
  H+  H16  1  0.96927353  0.61194118  0.50784623  1
  H+  H17  1  0.36575704  0.59707609  0.98652616  1
  H+  H18  1  0.10155892  0.62433485  0.49048553  1
  H+  H19  1  0.86847256  0.15882722  0.64705388  1
  H+  H20  1  0.39881242  0.27845776  0.84047768  1
  H+  H21  1  0.14946114  0.09874994  0.96786984  1
  H+  H22  1  0.18005656  0.51966186  1.03997392  1
  H+  H23  1  0.62426735  0.54273510  0.50367593  1
  H+  H24  1  0.50625736  0.37576117  0.14508795  1
  H+  H25  1  0.60004621  0.61989861  0.00555107  1
  H+  H26  1  0.13591700  0.28587064  0.84532685  1
  H+  H27  1  0.97663946  0.61406658  0.66383185  1
  H+  H28  1  0.42797150  0.82595460  0.25900404  1
  H+  H29  1  0.12401213  0.59610020  0.16373097  1
  H+  H30  1  0.58221308  0.16150335  0.83588001  1
  H+  H31  1  0.80375568  0.40415384  0.36496643  1
  H+  H32  1  0.54444101  0.02071421  0.29615279  1
  H+  H33  1  0.14768197  0.01155186  0.97850632  1
  H+  H34  1  0.77353177  0.89840941  0.00035689  1
  H+  H35  1  0.63986975  0.92374872  0.16799228  1
  H+  H36  1  0.22338572  0.35630100  -0.00139940  1
  H+  H37  1  0.13913427  0.29480029  0.49764657  1
  H+  H38  1  0.22516208  0.86270010  0.30660968  1
  H+  H39  1  0.06633277  0.18070835  0.77539610  1
  H+  H40  1  -0.02153229  0.61025198  0.15410801  1
  H+  H41  1  0.78643484  0.38580060  -0.00164697  1
  H+  H42  1  0.40216790  0.27324296  0.65835309  1
  H+  H43  1  0.24792207  0.13806739  0.82707157  1
  H+  H44  1  0.27567607  0.86242083  0.66681340  1
  H+  H45  1  0.11026145  0.40128869  0.86017457  1
  H+  H46  1  0.36122335  0.95948861  0.09892705  1
  H+  H47  1  0.77623279  0.39313367  0.15567026  1
  H+  H48  1  0.13000099  0.51708871  0.33177112  1
  H+  H49  1  0.47369771  0.62965607  0.50394595  1
  H+  H50  1  1.01551582  0.89925375  0.62668799  1
  H+  H51  1  0.64541706  0.34543663  0.50193554  1
  H+  H52  1  0.33935425  0.69157268  0.18139748  1
  H+  H53  1  0.35297493  0.87862406  0.49440941  1
  H+  H54  1  0.21606493  0.60086722  0.66680004  1
  H+  H55  1  0.35958645  0.63560024  0.82377047  1
  H+  H56  1  0.13400569  0.36959303  0.53442154  1
  H+  H57  1  0.61235228  0.51402378  0.32602535  1
  H+  H58  1  0.95454924  0.85182592  0.50911007  1
  H+  H59  1  0.46560480  0.85898098  0.50365930  1
  H+  H60  1  0.62005120  0.73447738  0.67546809  1
  H+  H61  1  0.38148974  0.35746715  0.31606788  1
  H+  H62  1  0.10289319  0.61595044  0.67698775  1
  H+  H63  1  0.62726236  0.40464832  0.86640365  1
  H+  H64  1  0.33855592  0.36177256  0.15866859  1
  H+  H65  1  0.11967117  0.15549124  0.82252288  1
  H+  H66  1  0.12743952  0.24421051  0.66861644  1
  H+  H67  1  0.65016634  0.81613277  0.16330354  1
  H+  H68  1  0.51088826  0.12422268  0.49457316  1
  H+  H69  1  0.08111859  0.95898398  0.74850821  1
  H+  H70  1  0.16814622  0.78877538  0.83380725  1
  H+  H71  1  0.49712758  0.08391810  0.81317166  1
  H+  H72  1  0.48400339  0.13087515  0.32721368  1
  H+  H73  1  0.12049410  0.65052386  0.82851119  1
  H+  H74  1  0.71932781  0.60503409  0.66056376  1
  H+  H75  1  0.58349359  0.42998000  0.92119474  1
  H+  H76  1  0.88327671  0.36890513  0.18329869  1
  H+  H77  1  0.91826489  0.85090119  0.90560918  1
  H+  H78  1  0.62871106  0.52716012  0.99653703  1
  H+  H79  1  0.47460935  0.62358001  0.66350788  1
  H+  H80  1  0.72978026  0.87821764  0.65985637  1
  H+  H81  1  0.77575653  0.15829671  0.35481322  1
  H+  H82  1  0.27173710  0.38389667  0.82491660  1
  H+  H83  1  0.45100887  0.59021766  0.98892188  1
  H+  H84  1  0.59819887  0.88321743  0.82022258  1
  H+  H85  1  0.62386181  0.59148335  0.17138428  1
  H+  H86  1  0.63962697  0.25471759  0.50740114  1
  H+  H87  1  0.34814865  0.46297355  0.00718978  1
  H+  H88  1  0.48254852  0.36427150  0.63360242  1
  H+  H89  1  0.62306788  0.23788307  0.67625028  1
  H+  H90  1  0.22599972  0.62181055  0.83644466  1
  H+  H91  1  0.14045015  0.53549266  0.62247862  1
  H+  H92  1  0.50702107  0.87641243  0.66293135  1
  H+  H93  1  0.61952051  0.87826917  0.34019969  1
  H+  H94  1  0.29286515  0.15625930  0.68054716  1
  H+  H95  1  0.12657574  -0.01287954  0.33639730  1
  H+  H96  1  0.73165109  0.86013332  0.32779211  1
  H+  H97  1  0.37289240  -0.01583016  1.00399301  1
  H+  H98  1  0.61434468  0.64301668  0.67676184  1
  H+  H99  1  0.38073060  0.14275541  0.35540923  1
  H+  H100  1  0.47056200  0.84910701  -0.02068125  1
  H+  H101  1  0.60340489  0.95943678  0.33943668  1
  H+  H102  1  0.77213729  0.64318406  0.00882834  1
  H+  H103  1  0.09768235  0.91437605  0.16884083  1
  H+  H104  1  0.40605128  0.82606261  0.15009950  1
  H+  H105  1  0.64260662  0.62411155  0.84235132  1
  H+  H106  1  0.54997638  0.15633576  0.16066639  1
  H+  H107  1  0.58419550  0.68372113  0.15407910  1
  H+  H108  1  0.98177505  0.11640580  0.85097142  1
  H+  H109  1  0.09876198  0.22120951  0.34566891  1
  H+  H110  1  0.64926071  0.33175010  0.98175289  1
  H+  H111  1  0.62504106  1.09993402  0.50470855  1
  H+  H112  1  0.14015982  0.87386484  0.70452259  1
  H+  H113  1  -0.02091498  0.61860628  -0.00805481  1
  H+  H114  1  0.59835520  0.42351919  0.52870383  1
  H+  H115  1  0.77999554  0.41514373  0.83612205  1
  H+  H116  1  0.72554039  0.87365128  0.50252692  1
  H+  H117  1  0.26313816  0.41030522  0.49212084  1
  H+  H118  1  0.25285982  0.32106753  0.67133148  1
  H+  H119  1  0.61341606  0.47906912  0.62786382  1
  H+  H120  1  0.62149021  0.39354628  0.62826460  1
  H+  H121  1  0.85284624  0.89372371  0.49315129  1
  H+  H122  1  0.50874655  0.38533854  0.33872687  1
  H+  H123  1  0.86930971  0.41112347  0.82764232  1
  H+  H124  1  0.35562225  0.64321661  0.49499990  1
  H+  H125  1  0.03557774  0.80990130  0.77960358  1
  H+  H126  1  0.60346849  0.97044033  0.49406229  1
  H+  H127  1  0.37455572  0.77185093  0.50754017  1
  H+  H128  1  0.89588819  0.36341150  -0.00094063  1
  H+  H129  1  0.85396132  0.98658661  0.49384196  1
  H+  H130  1  1.03568848  0.65906730  0.83092265  1
  H+  H131  1  0.85958377  0.88822179  0.15733588  1
  H+  H132  1  0.07945553  0.91329533  0.38706502  1
  H+  H133  1  0.78073496  0.37809653  0.50369869  1
  H+  H134  1  0.62950185  0.37100611  0.15215962  1
  H+  H135  1  0.11934052  0.63043699  -0.00788818  1
  H+  H136  1  0.25685117  0.12498960  0.33892063  1
  H+  H137  1  0.87779415  0.01310513  0.99854270  1
  H+  H138  1  0.10476150  0.39003146  0.43976143  1
  H+  H139  1  0.52849599  0.13130521  0.98360618  1
  H+  H140  1  0.66072054  0.14236671  0.18830723  1
  H+  H141  1  0.22399782  0.82157190  0.14798962  1
  H+  H142  1  0.15454197  0.89998335  0.67583753  1
  H+  H143  1  0.35243834  0.63379445  0.66982187  1
  H+  H144  1  -0.00397849  0.62585126  0.33598614  1
  H+  H145  1  0.21491545  0.36454360  0.17667351  1
  H+  H146  1  0.41743727  0.29403965  0.56115410  1
  H+  H147  1  0.40221574  0.88819806  0.33761343  1
  H+  H148  1  0.83937694  0.70572721  0.67713329  1
  H+  H149  1  0.91490271  0.34701787  0.24803736  1
  H+  H150  1  0.85482573  0.97688060  0.34342201  1
  H+  H151  1  0.02803218  0.76755994  0.19293200  1
  H+  H152  1  0.02997339  0.13357548  0.17272194  1
  H+  H153  1  0.35661819  0.72383640  0.82448514  1
  H+  H154  1  -0.01503268  0.38382836  0.83888664  1
  H+  H155  1  0.20905516  0.58952754  0.17071466  1
  H+  H156  1  0.09472199  0.35128741  0.33386248  1
  H+  H157  1  0.98608069  0.15690234  0.67682186  1
  H+  H158  1  0.47580457  0.37106930  0.99302232  1
  H+  H159  1  0.67287765  0.84103893  0.59771723  1
  H+  H160  1  0.37403992  0.13640481  0.82648954  1
  H+  H161  1  0.12735172  0.76200883  0.49930559  1
  H+  H162  1  0.12306047  0.72849508  0.34270042  1
  H+  H163  1  0.15183285  0.07275708  0.68154098  1
  H+  H164  1  0.99020849  0.37777568  0.34027683  1
  H+  H165  1  0.39107420  0.11879260  -0.00844944  1
  H+  H166  1  0.59553199  0.85623476  0.66979212  1
  H+  H167  1  0.88944061  1.02811824  0.84572330  1
  H+  H168  1  0.62150236  -0.00045989  0.97212318  1
  H+  H169  1  0.89304495  0.53971328  0.84422824  1
  H+  H170  1  0.11772374  0.72280402  -0.00166625  1
  H+  H171  1  0.27502932  0.38409998  0.33928738  1
  H+  H172  1  0.64153568  0.78759753  0.83896622  1
  H+  H173  1  0.80014919  0.14473052  0.18930029  1
  H+  H174  1  0.37440317  0.01129636  0.50204069  1
  H+  H175  1  0.84822185  0.12021167  0.49976620  1
  H+  H176  1  0.89423109  0.29022419  0.34357549  1
  H+  H177  1  0.36886650  0.13575917  0.67439557  1
  H+  H178  1  0.90253821  0.53567716  0.34538420  1
  H+  H179  1  0.08841439  0.84906132  0.47808207  1
  H+  H180  1  0.61231140  0.72454660  0.33023330  1
  H+  H181  1  0.76578108  0.62907242  0.83163667  1
  H+  H182  1  0.86456872  0.80710233  0.59670479  1
  H+  H183  1  0.77573447  0.90128710  0.82531430  1
  H+  H184  1  0.74680226  0.89215099  0.17076856  1
  H+  H185  1  0.76622840  0.63659084  0.49069880  1
  H+  H186  1  0.21288930  0.85498846  0.49506220  1
  H+  H187  1  0.61547636  0.61161995  0.32106416  1
  H+  H188  1  0.96155355  0.11827953  1.00305763  1
  H+  H189  1  0.45324116  0.58250503  0.17106843  1
  H+  H190  1  0.52562089  0.35698815  0.49002473  1
  H+  H191  1  0.87971282  0.03376661  0.65457994  1
  H+  H192  1  0.38644599  0.52221495  0.82951903  1
  H+  H193  1  0.65295362  0.13503532  0.65801783  1
  H+  H194  1  0.41069242  0.90046866  0.65905282  1
  H+  H195  1  0.16965759  1.05837798  0.17774810  1
  H+  H196  1  0.87337702  0.12063553  0.34221973  1
  H+  H197  1  0.26645361  0.62497118  0.33697001  1
  H+  H198  1  0.64360436  0.07783371  0.82320821  1
  H+  H199  1  0.45313752  0.23604905  0.53986231  1
  H+  H200  1  0.38438102  0.54099816  0.50934374  1
  H+  H201  1  0.26989115  0.15724529  0.18223671  1
  H+  H202  1  -0.01916059  0.87599235  0.31768417  1
  H+  H203  1  0.62480199  0.50539806  0.17210237  1
  H+  H204  1  0.85928088  0.62680358  0.67665704  1
  H+  H205  1  0.04005356  0.26996990  0.29062909  1
  H+  H206  1  0.61028035  0.23322164  0.33807463  1
  H+  H207  1  0.05979023  0.12173524  0.33290334  1
  H+  H208  1  0.61768691  0.41671762  0.01227745  1
  H+  H209  1  0.77283561  0.63320266  0.16146191  1
  H+  H210  1  0.40824709  0.07455352  0.16388317  1
  H+  H211  1  0.12568403  0.52112962  0.46980012  1
  H+  H212  1  0.39500814  0.18930518  0.16820864  1
  H+  H213  1  0.62223357  0.09675459  0.97192634  1
  H+  H214  1  0.63406095  0.63512962  0.50199523  1
  H+  H215  1  0.91177784  1.01602336  0.19189605  1
  H+  H216  1  0.36852886  0.20996499  0.45831360  1
  H+  H217  1  0.38898661  0.27449955  0.33110394  1
  H+  H218  1  0.38028126  0.60369909  0.32730238  1
  H+  H219  1  0.08516208  0.15032075  0.51588962  1
  H+  H220  1  0.61347014  0.36305014  0.31965399  1
  H+  H221  1  0.35815168  0.71084475  0.33248510  1
  H+  H222  1  0.36945024  0.22678945  0.00415117  1
  H+  H223  1  0.89197272  0.61434425  0.16245487  1
  H+  H224  1  0.94686603  0.10737657  0.50038096  1
  H+  H225  1  0.63255169  0.86752620  0.50736119  1
  H+  H226  1  0.62682515  0.21101090  0.97692421  1
  H+  H227  1  0.37453887  0.09676774  0.48788130  1
  H+  H228  1  0.85017504  0.89186603  0.67565934  1
  H+  H229  1  0.34331509  -0.03084390  0.84004599  1
  H+  H230  1  0.87684360  0.15147260  0.83863276  1
  H+  H231  1  0.26029601  0.63120952  0.99603111  1
  H+  H232  1  0.67093965  0.79874522  0.97199968  1
  H+  H233  1  0.86147509  0.64191501  1.00770742  1
  H+  H234  1  -0.02007676  0.86853741  0.00078161  1
  H+  H235  1  0.17485213  0.13572966  0.33624239  1
  H+  H236  1  0.60115803  0.13833350  0.34037032  1
  H+  H237  1  0.88906287  0.78156064  1.00094679  1
  H+  H238  1  0.28590522  0.13580121  -0.00442324  1
  H+  H239  1  0.86574530  0.62930584  0.83448497  1
  H+  H240  1  0.48100351  0.37061943  0.85626022  1
  H+  H241  1  0.12581433  0.71059202  0.13676855  1
  H+  H242  1  0.18942266  0.84692606  0.93315053  1
  H+  H243  1  0.00455016  0.80090467  0.43878702  1
  H+  H244  1  0.08702126  0.15440407  0.02029794  1
  H+  H245  1  0.65748996  0.32172833  0.82750492  1
  H+  H246  1  0.03821422  0.37640804  0.59523388  1
  H+  H247  1  0.18104330  0.11020311  0.51175893  1
  H+  H248  1  0.85456861  0.63319934  0.49658765  1
  H+  H249  1  0.12135893  0.39572744  0.63296547  1
  H+  H250  1  0.10154891  0.23316014  0.16369787  1
  H+  H251  1  0.01216468  0.24304766  0.71258557  1
  H+  H252  1  0.35937837  0.00799413  0.66116426  1
  H+  H253  1  0.00204232  0.88933947  0.65935021  1
  H+  H254  1  0.89091290  0.40281715  0.35472768  1
  H+  H255  1  0.11031180  0.49053796  0.85717768  1
  H+  H256  1  0.61487200  0.74286465  0.48921019  1
  H+  H257  1  0.35020066  0.84465167  0.83818319  1
  H+  H258  1  0.88548300  0.22876513  0.18121421  1
  H+  H259  1  0.24043858  0.87098609  0.99554435  1
  H+  H260  1  0.09818859  0.47090059  0.16623925  1
  H+  H261  1  0.66299309  1.05550318  0.18952026  1
  H+  H262  1  0.90227221  0.63355137  0.34147317  1
  H+  H263  1  0.70129935  0.37020197  0.30174736  1
  H+  H264  1  0.86066813  0.48157739  0.67762087  1
  H+  H265  1  0.11700884  0.63451018  0.33806644  1
  H+  H266  1  0.73321370  0.37587569  0.66482270  1
  H+  H267  1  0.34249114  0.40046231  0.50950852  1
  H+  H268  1  0.49862875  0.89822656  0.16985083  1
  H+  H269  1  0.89231721  0.27046693  0.61896578  1
  H+  H270  1  0.51812663  0.63636970  0.33309999  1
  H+  H271  1  0.48395610  0.83965039  0.31959196  1
  H+  H272  1  0.85052935  0.21297254  0.50539609  1
  H+  H273  1  0.88905584  0.86944056  0.32561182  1
  H+  H274  1  0.20754790  0.83714855  0.12209278  1
  H+  H275  1  0.36342386  0.47149157  0.33084548  1
  H+  H276  1  0.18447326  0.20299113  0.64763018  1
  H+  H277  1  0.30900217  0.89748326  0.73423341  1
  H+  H278  1  0.71553156  0.10201636  0.50490566  1
  H+  H279  1  0.12282281  0.28659817  1.00074846  1
  H+  H280  1  0.15252269  0.74360103  0.64776617  1
  H+  H281  1  0.39469233  0.94602247  0.16195973  1
  H+  H282  1  0.63648351  0.24131527  0.15304535  1
  H+  H283  1  0.96920319  0.86171816  0.84432549  1
  H+  H284  1  0.00082047  0.37864925  0.17887602  1
  H+  H285  1  0.84875477  0.21801444  1.03131897  1
  H+  H286  1  0.37707090  0.76660561  -0.01094824  1
  H+  H287  1  0.12506588  0.88857422  0.00701842  1
  H+  H288  1  0.33337727  0.91109947  0.43258075  1
  H+  H289  1  0.20508896  0.10902305  0.24599817  1
  H+  H290  1  0.42965779  0.00302725  0.87776612  1
  H+  H291  1  0.12598853  0.81249990  0.20624564  1
  H+  H292  1  0.91101315  0.83967708  0.22692223  1
  H+  H293  1  0.31706184  0.65312002  0.05659382  1
  H+  H294  1  0.35917524  0.37933186  1.00915435  1
  H+  H295  1  0.15403995  0.57099185  0.26875691  1
  H+  H296  1  0.12589761  0.53085155  0.96677111  1
  H+  H297  1  0.67134033  0.09169433  0.60098955  1
  H+  H298  1  0.78409471  0.16870614  0.64937684  1
  H+  H299  1  0.88236722  0.52277634  0.51628376  1
  H+  H300  1  0.85365152  0.42233986  0.45263775  1
  H+  H301  1  0.17314051  0.60641944  0.89978285  1
  H+  H302  1  0.91915598  0.60051943  0.90435281  1
  H+  H303  1  0.55359519  0.87457566  0.73526541  1
  H+  H304  1  0.07833863  0.44370299  0.72146860  1
  H+  H305  1  0.38680688  0.06508705  0.60021857  1
  H+  H306  1  0.67762844  0.85651410  0.89327504  1
  H+  H307  1  0.15377595  0.01370401  0.52150797  1
  H+  H308  1  0.11246337  0.16875150  0.44681976  1
  H+  H309  1  0.11534124  0.86922577  0.81917699  1
  H+  H310  1  0.40576353  0.57258643  0.89207506  1
  H+  H311  1  0.66600747  0.06635249  0.90900252  1
  H+  H312  1  0.57289581  0.41809986  0.39759972  1
  H+  H313  1  0.82945425  0.17312522  0.41630729  1
  H+  H314  1  0.86789660  0.47926399  0.15649986  1
  H+  H315  1  0.18912399  0.09203683  0.61121437  1
  H+  H316  1  0.40320131  0.07350021  0.93149701  1
  H+  H317  1  0.83504460  0.93287601  0.73549191  1
  H+  H318  1  0.21096486  0.60439685  0.49211653  1
  H+  H319  1  0.82852579  0.43180189  0.73980067  1
  H+  H320  1  0.91429786  0.07968776  0.93368377  1
  H+  H321  1  0.40833111  0.57317385  0.26695523  1
  H+  H322  1  0.05469923  0.39702479  0.73065543  1
  H+  H323  1  0.08492709  0.65251844  0.07846811  1
  H+  H324  1  0.66882816  0.60128123  0.59855807  1
  H+  H325  1  0.63918528  0.53351797  0.85973024  1
  H+  H326  1  0.82811419  0.91664033  0.40120923  1
  H+  H327  1  0.86459407  0.89622103  0.00937555  1
  H+  H328  1  0.66935725  0.60049387  0.94100605  1
  H+  H329  1  0.12733434  1.04963000  0.77698004  1
  H+  H330  1  0.64490033  0.56869779  0.25888839  1
  H+  H331  1  0.86676214  0.76662415  0.50496265  1
  H+  H332  1  0.32124360  0.66245243  0.72755813  1
  H+  H333  1  0.08279534  0.66368548  0.73147532  1
  H+  H334  1  0.17232294  0.34290937  0.90519771  1
  H+  H335  1  0.64798163  0.33979025  0.21455070  1
  H+  H336  1  0.05655828  0.17826723  0.08045253  1
  H+  H337  1  0.35753635  0.17499331  0.76517224  1
  H+  H338  1  0.57380489  0.89242326  0.03904979  1
  H+  H339  1  0.31652533  0.40106636  0.10089607  1
  H+  H340  1  0.58509248  0.16363554  0.72665718  1
  H+  H341  1  0.32195536  0.38626679  0.73276715  1
  H+  H342  1  0.50397688  0.87398280  0.81769471  1
  H+  H343  1  0.03839153  0.94996570  0.15288233  1
  H+  H344  1  0.17808884  0.80728014  0.59092254  1
  H+  H345  1  0.88916223  0.53048125  0.99331460  1
  H+  H346  1  0.15179557  0.33486433  0.23640431  1
  H+  H347  1  0.57691266  0.90703669  0.43578047  1
  H+  H348  1  0.58354313  0.68030409  0.42999285  1
  H+  H349  1  0.87309073  0.23766004  0.82630424  1
  H+  H350  1  0.55571609  0.62576730  0.09508793  1
  H+  H351  1  0.36337674  0.49666532  0.17539940  1
  H+  H352  1  0.83758386  0.41878668  0.06185518  1
  H+  H353  1  0.57281547  0.16079134  0.43644556  1
  H+  H354  1  0.67670975  0.84025384  0.26626359  1
  H+  H355  1  0.82447689  0.64870471  0.76686499  1
  H+  H356  1  0.90539722  0.08443130  0.58920626  1
  H+  H357  1  0.43405553  0.12400486  0.22729023  1
  H+  H358  1  0.40202308  0.03958536  0.32002097  1
  H+  H359  1  0.32659790  0.66746230  0.43335405  1
  H+  H360  1  0.36324266  0.36424766  0.67007536  1
  H+  H361  1  0.39593149  0.82723065  0.89513554  1
  H+  H362  1  0.64017544  0.07786380  0.27050693  1
  H+  H363  1  0.58928065  0.67568396  0.77167894  1
  H+  H364  1  0.45488192  0.95602880  0.38723893  1
  H+  H365  1  0.82881390  0.66835475  0.10087993  1
  H+  H366  1  0.62711328  0.97694126  0.11476059  1
  H+  H367  1  0.41050236  0.33341086  0.93665458  1
  H+  H368  1  0.84883581  0.67837409  0.40149359  1
  H+  H369  1  0.07432892  0.65972444  0.43415495  1
  H+  H370  1  0.91606823  0.58888633  0.60420048  1
  H+  H371  1  0.42052938  0.59897726  0.60272869  1
  H+  H372  1  0.68802923  0.33716978  0.91407195  1
  H+  H373  1  0.39974929  0.30039346  0.22812035  1
  H+  H374  1  0.10298343  0.93366651  0.06259463  1
  H+  H375  1  0.17881823  0.08614633  0.87784641  1
  H+  H376  1  0.56503235  0.42465484  0.08618878  1
  H+  H377  1  0.34507871  0.61023823  0.16394832  1
  H+  H378  1  0.83406503  0.92767683  0.09965386  1
  H+  H379  1  0.91740034  0.31696909  0.94811204  1
  H+  H380  1  0.83479235  0.16540502  0.09067340  1
  H+  H381  1  0.68273575  0.33057620  0.60281994  1
  H+  H382  1  0.62851539  0.87835622  0.98382949  1
  H+  H383  1  0.93399212  0.07329592  0.25070451  1
  O2-  O384  1  0.07628227  0.17555749  0.14501268  1
  O2-  O385  1  0.13415285  0.18253393  0.48901405  1
  O2-  O386  1  0.07951970  0.17845493  0.81903241  1
  O2-  O387  1  0.06206597  0.40585239  0.15788750  1
  O2-  O388  1  0.07390333  0.41933867  0.42420941  1
  O2-  O389  1  0.07474711  0.42830498  0.86773426  1
  O2-  O390  1  0.08558676  0.65111443  0.12592337  1
  O2-  O391  1  0.07163123  0.65833137  0.47927365  1
  O2-  O392  1  0.09381994  0.68539064  0.81298652  1
  O2-  O393  1  0.09828429  0.96388064  0.14749490  1
  O2-  O394  1  0.04260128  0.85739866  0.45624727  1
  O2-  O395  1  0.06107766  0.86318442  0.80271556  1
  O2-  O396  1  0.35498670  0.21461410  0.15936270  1
  O2-  O397  1  0.33673664  0.15371632  0.43690994  1
  O2-  O398  1  0.35401616  0.17451281  0.81154665  1
  O2-  O399  1  0.31364568  0.39774598  0.14691063  1
  O2-  O400  1  0.32697383  0.43796009  0.48807878  1
  O2-  O401  1  0.32909069  0.40783532  0.80423881  1
  O2-  O402  1  0.31730060  0.64483419  0.15210272  1
  O2-  O403  1  0.32263609  0.67035782  0.47822087  1
  O2-  O404  1  0.32638193  0.66314411  0.81005131  1
  O2-  O405  1  0.36897283  0.97691157  0.14255158  1
  O2-  O406  1  0.32250540  0.90846120  0.47658071  1
  O2-  O407  1  0.28422758  0.88556393  0.81647886  1
  O2-  O408  1  0.61103171  0.17816504  0.15134636  1
  O2-  O409  1  0.57250340  0.15423812  0.48127914  1
  O2-  O410  1  0.55969563  0.11759426  0.80443953  1
  O2-  O411  1  0.56592775  0.41461044  0.13176727  1
  O2-  O412  1  0.58568336  0.40552796  0.48498185  1
  O2-  O413  1  0.58734175  0.43024754  0.87635551  1
  O2-  O414  1  0.55731185  0.62405001  0.14147805  1
  O2-  O415  1  0.58357949  0.68112982  0.47495830  1
  O2-  O416  1  0.58908946  0.67419955  0.81732887  1
  O2-  O417  1  0.60776086  0.95433844  0.15557539  1
  O2-  O418  1  0.57212581  0.90796617  0.48068730  1
  O2-  O419  1  0.56057616  0.89960183  0.79744979  1
  O2-  O420  1  0.85955912  0.16650808  0.17528087  1
  O2-  O421  1  0.81961194  0.15625067  0.48429538  1
  O2-  O422  1  0.84367262  0.17507256  0.81903529  1
  O2-  O423  1  0.83752543  0.41643446  0.14479924  1
  O2-  O424  1  0.84408744  0.41627354  0.49722032  1
  O2-  O425  1  0.84241611  0.44706664  0.82000163  1
  O2-  O426  1  0.83208826  0.66932534  0.14652359  1
  O2-  O427  1  0.82774530  0.66551017  0.47814165  1
  O2-  O428  1  0.82621866  0.65218297  0.81337009  1
  O2-  O429  1  0.83355025  0.92488026  0.14527079  1
  O2-  O430  1  0.82444379  0.92377566  0.47539754  1
  O2-  O431  1  0.83756088  0.93318540  0.81243300  1
  O2-  O432  1  0.20688437  0.11509553  0.19965575  1
  O2-  O433  1  0.19480677  0.07163245  0.53486722  1
  O2-  O434  1  0.18552499  0.11193661  0.83696848  1
  O2-  O435  1  0.15419794  0.33931411  0.19147349  1
  O2-  O436  1  0.15321713  0.35501879  0.49515971  1
  O2-  O437  1  0.17281452  0.34604728  0.85950210  1
  O2-  O438  1  0.14892516  0.56478881  0.18615898  1
  O2-  O439  1  0.14776479  0.57004393  0.49820830  1
  O2-  O440  1  0.16691252  0.60044755  0.85354692  1
  O2-  O441  1  0.07698691  0.82166758  0.20614563  1
  O2-  O442  1  0.15237470  0.82454037  0.50975127  1
  O2-  O443  1  0.19979442  0.85031739  0.84804948  1
  O2-  O444  1  0.43785186  0.13426412  0.18289250  1
  O2-  O445  1  0.40378297  0.07378146  0.51315283  1
  O2-  O446  1  0.39863815  0.02735720  0.85697276  1
  O2-  O447  1  0.39743506  0.30351619  0.18225651  1
  O2-  O448  1  0.43220724  0.27259909  0.52325685  1
  O2-  O449  1  0.41664598  0.33668603  0.85679049  1
  O2-  O450  1  0.39505319  0.55844978  0.18903651  1
  O2-  O451  1  0.41534316  0.60304340  0.52169238  1
  O2-  O452  1  0.41518986  0.58081493  0.84725731  1
  O2-  O453  1  0.43705951  0.86688708  0.18260956  1
  O2-  O454  1  0.40598452  0.83395658  0.51997798  1
  O2-  O455  1  0.39405383  0.82810507  0.84982987  1
  O2-  O456  1  0.68676544  0.11101932  0.21126665  1
  O2-  O457  1  0.65404650  0.06810938  0.51849979  1
  O2-  O458  1  0.68507567  0.07181774  0.84857489  1
  O2-  O459  1  0.66443330  0.34818418  0.17133304  1
  O2-  O460  1  0.67535111  0.31672903  0.51909150  1
  O2-  O461  1  0.68566049  0.36824465  0.85666910  1
  O2-  O462  1  0.65509706  0.56466668  0.19064464  1
  O2-  O463  1  0.66206855  0.60162467  0.51761197  1
  O2-  O464  1  0.67616603  0.59831072  0.86025486  1
  O2-  O465  1  0.68391746  0.86721519  0.18780579  1
  O2-  O466  1  0.66602496  0.83921288  0.52049850  1
  O2-  O467  1  0.66973116  0.85018927  0.84759225  1
  O2-  O468  1  0.95974577  0.05597705  0.21823202  1
  O2-  O469  1  0.89118455  0.07383144  0.51964264  1
  O2-  O470  1  0.92142375  0.08577392  0.86684273  1
  O2-  O471  1  0.91620440  0.34317650  0.20275629  1
  O2-  O472  1  0.91159795  0.31726964  0.52950056  1
  O2-  O473  1  0.92359150  0.35319899  0.82092947  1
  O2-  O474  1  0.92188751  0.58297813  0.17454379  1
  O2-  O475  1  0.90943198  0.58571179  0.52469254  1
  O2-  O476  1  0.92002466  0.60258920  0.85835430  1
  O2-  O477  1  0.91034538  0.84061071  0.18163256  1
  O2-  O478  1  0.89428009  0.82606752  0.52265140  1
  O2-  O479  1  0.91456078  0.85302074  0.86085450  1
  O2-  O480  1  0.19944147  0.10237833  0.31820963  1
  O2-  O481  1  0.19329896  0.11782891  0.65211922  1
  O2-  O482  1  0.17969906  0.06861691  0.95682652  1
  O2-  O483  1  0.09675535  0.30066861  0.30960527  1
  O2-  O484  1  0.18188372  0.25803604  0.64701585  1
  O2-  O485  1  0.16568265  0.34145096  0.98197910  1
  O2-  O486  1  0.16015898  0.57747411  0.31359939  1
  O2-  O487  1  0.15131418  0.56530182  0.66136706  1
  O2-  O488  1  0.16521438  0.59217161  0.97215452  1
  O2-  O489  1  0.17434112  0.83444549  0.33205473  1
  O2-  O490  1  0.20140729  0.79128346  0.62574071  1
  O2-  O491  1  0.18096141  0.84180003  0.97778391  1
  O2-  O492  1  0.42328535  0.10049956  0.31074244  1
  O2-  O493  1  0.38126690  0.06686988  0.64450370  1
  O2-  O494  1  0.41780053  0.08404060  0.97520768  1
  O2-  O495  1  0.41490805  0.32690864  0.30579161  1
  O2-  O496  1  0.41829703  0.32772598  0.63481098  1
  O2-  O497  1  0.41320022  0.33401301  0.98199893  1
  O2-  O498  1  0.41574887  0.57832304  0.31211332  1
  O2-  O499  1  0.41563383  0.59163419  0.64748060  1
  O2-  O500  1  0.39242466  0.56307326  0.97146355  1
  O2-  O501  1  0.42392130  0.81385015  0.30321822  1
  O2-  O502  1  0.45784888  0.90208679  0.63391439  1
  O2-  O503  1  0.40794602  0.82726000  0.97389123  1
  O2-  O504  1  0.60404666  0.05184899  0.30996901  1
  O2-  O505  1  0.68825521  0.10897766  0.64359018  1
  O2-  O506  1  0.65120742  0.06062276  0.95728420  1
  O2-  O507  1  0.63962061  0.33097386  0.30012728  1
  O2-  O508  1  0.67397685  0.34365122  0.64499052  1
  O2-  O509  1  0.68898663  0.31820215  0.96142898  1
  O2-  O510  1  0.64132152  0.57334588  0.30596579  1
  O2-  O511  1  0.66183422  0.58787991  0.64281393  1
  O2-  O512  1  0.66394260  0.59512344  0.98609891  1
  O2-  O513  1  0.67113515  0.82927636  0.31075118  1
  O2-  O514  1  0.67100255  0.83825504  0.64332360  1
  O2-  O515  1  0.69087857  0.85961433  0.96816625  1
  O2-  O516  1  0.90484374  0.08937068  0.33115446  1
  O2-  O517  1  0.90988712  0.09187132  0.63598023  1
  O2-  O518  1  0.90627572  0.07656882  0.98091336  1
  O2-  O519  1  0.92534495  0.34940457  0.32637758  1
  O2-  O520  1  0.93354276  0.33345036  0.59446267  1
  O2-  O521  1  0.91981597  0.32498026  0.99189264  1
  O2-  O522  1  0.93045108  0.59518535  0.32696751  1
  O2-  O523  1  0.91507903  0.58846864  0.64954812  1
  O2-  O524  1  0.91699860  0.59194972  0.97970161  1
  O2-  O525  1  0.91867244  0.84002614  0.30778025  1
  O2-  O526  1  0.83628245  0.79100302  0.63779117  1
  O2-  O527  1  0.91900581  0.84317723  0.98832660  1
  O2-  O528  1  0.05236234  0.17937776  0.03261682  1
  O2-  O529  1  0.09338372  0.16630602  0.36283027  1
  O2-  O530  1  0.03220717  0.20262856  0.70459114  1
  O2-  O531  1  0.19214926  0.48002881  0.06254552  1
  O2-  O532  1  0.08212397  0.41950710  0.35740820  1
  O2-  O533  1  0.10288448  0.40351317  0.59318704  1
  O2-  O534  1  0.08469927  0.66159219  0.01016160  1
  O2-  O535  1  0.08801168  0.66630539  0.35407962  1
  O2-  O536  1  0.07576625  0.65281851  0.68704737  1
  O2-  O537  1  0.09535149  0.92135227  0.01852037  1
  O2-  O538  1  0.08920559  0.92455897  0.34250197  1
  O2-  O539  1  0.09487674  1.01815281  0.74007464  1
  O2-  O540  1  0.34239698  0.16506415  0.01568771  1
  O2-  O541  1  0.35233574  0.17552708  0.37193731  1
  O2-  O542  1  0.35436710  0.17973356  0.69303186  1
  O2-  O543  1  0.32492652  0.40502559  0.02612769  1
  O2-  O544  1  0.33686160  0.40828292  0.33744633  1
  O2-  O545  1  0.31664166  0.37479671  0.68692820  1
  O2-  O546  1  0.32232484  0.65957316  0.01217651  1
  O2-  O547  1  0.32731895  0.65295526  0.35147672  1
  O2-  O548  1  0.31665418  0.65925534  0.68275268  1
  O2-  O549  1  0.34346687  0.92555395  0.02332249  1
  O2-  O550  1  0.40688737  0.93949985  0.35927916  1
  O2-  O551  1  0.32668653  0.90713608  0.69101492  1
  O2-  O552  1  0.59015758  0.15035502  -0.00931367  1
  O2-  O553  1  0.57940373  0.17554783  0.35731503  1
  O2-  O554  1  0.59529667  0.17518207  0.68290280  1
  O2-  O555  1  0.57828616  0.43879266  0.01128400  1
  O2-  O556  1  0.57096885  0.41982503  0.35275599  1
  O2-  O557  1  0.58781579  0.41999444  0.61061424  1
  O2-  O558  1  0.55436181  0.63455906  0.02326866  1
  O2-  O559  1  0.58037781  0.66388387  0.34596439  1
  O2-  O560  1  0.58908472  0.67643817  0.69427395  1
  O2-  O561  1  0.58075355  0.89840950  -0.00479390  1
  O2-  O562  1  0.58099698  0.90004283  0.35492063  1
  O2-  O563  1  0.54360453  0.85363928  0.68924872  1
  O2-  O564  1  0.80950228  0.16227712  0.05042879  1
  O2-  O565  1  0.83444000  0.18175103  0.36929019  1
  O2-  O566  1  0.85050619  0.20243921  0.65382692  1
  O2-  O567  1  0.84376574  0.42507744  0.01688095  1
  O2-  O568  1  0.86494657  0.43829094  0.37324195  1
  O2-  O569  1  0.82610227  0.42324342  0.69511020  1
  O2-  O570  1  0.83276412  0.67330523  0.02382754  1
  O2-  O571  1  0.86440213  0.68113335  0.35763271  1
  O2-  O572  1  0.82088695  0.64813236  0.69485689  1
  O2-  O573  1  0.83435871  0.92767555  0.02221539  1
  O2-  O574  1  0.82990628  0.91555816  0.35510993  1
  O2-  O575  1  0.83120958  0.93182846  0.68978985  1
