# generated using pymatgen
data_H2O
_symmetry_space_group_name_H-M   'P 1'
_cell_length_a   17.97645032
_cell_length_b   17.97268456
_cell_length_c   21.99331203
_cell_angle_alpha   90.01329376
_cell_angle_beta   89.98407344
_cell_angle_gamma   120.01532826
_symmetry_Int_Tables_number   1
_chemical_formula_structural   H2O
_chemical_formula_sum   'H384 O192'
_cell_volume   6152.77506465
_cell_formula_units_Z   192
loop_
 _symmetry_equiv_pos_site_id
 _symmetry_equiv_pos_as_xyz
  1  'x, y, z'
loop_
 _atom_type_symbol
 _atom_type_oxidation_number
  H+  1.0
  O2-  -2.0
loop_
 _atom_site_type_symbol
 _atom_site_label
 _atom_site_symmetry_multiplicity
 _atom_site_fract_x
 _atom_site_fract_y
 _atom_site_fract_z
 _atom_site_occupancy
  H+  H0  1  0.42665448  0.84166735  1.02141180  1
  H+  H1  1  0.75052732  0.83878022  0.17524193  1
  H+  H2  1  0.26520661  0.37390238  0.00604926  1
  H+  H3  1  0.37815464  0.58597429  0.16859319  1
  H+  H4  1  0.96050699  0.56016070  0.37175488  1
  H+  H5  1  0.36379321  1.00515781  0.16446294  1
  H+  H6  1  0.88430612  1.02135158  0.64892851  1
  H+  H7  1  0.38090478  0.12524394  0.65738149  1
  H+  H8  1  0.38978639  0.50485932  0.84306569  1
  H+  H9  1  0.74490538  0.35442291  0.14802893  1
  H+  H10  1  0.61533785  0.70079549  0.15390423  1
  H+  H11  1  0.36318131  0.60296743  1.00101810  1
  H+  H12  1  0.13223952  0.39259086  0.67139432  1
  H+  H13  1  0.53472111  0.13298737  -0.02063059  1
  H+  H14  1  0.36856739  0.63547745  0.33585060  1
  H+  H15  1  0.21660928  0.34882762  0.18337415  1
  H+  H16  1  0.61134470  0.16299322  0.19788296  1
  H+  H17  1  0.12195322  0.50545088  0.00535492  1
  H+  H18  1  0.57992249  0.65951129  0.43460627  1
  H+  H19  1  0.10632649  0.38314690  0.00920401  1
  H+  H20  1  0.02800456  0.37761390  0.49576442  1
  H+  H21  1  0.09595171  1.00683030  0.31798618  1
  H+  H22  1  0.36887999  0.98875318  0.66504257  1
  H+  H23  1  0.35618934  0.86363405  1.00095904  1
  H+  H24  1  0.11668061  0.46543892  0.49176061  1
  H+  H25  1  0.60986278  0.57501957  0.16171281  1
  H+  H26  1  0.68529302  0.10526428  0.23832294  1
  H+  H27  1  0.63459143  0.35625727  -0.02571218  1
  H+  H28  1  0.20461520  0.80128102  0.50321786  1
  H+  H29  1  0.26967657  0.90575071  -0.00084836  1
  H+  H30  1  0.99442139  0.37371781  0.16671495  1
  H+  H31  1  0.02932382  0.89257131  0.00371368  1
  H+  H32  1  0.62713261  1.03628289  0.81806647  1
  H+  H33  1  0.07259145  0.36446061  0.32442381  1
  H+  H34  1  0.12954246  0.48720520  0.16534886  1
  H+  H35  1  0.36593032  0.91745120  0.15949480  1
  H+  H36  1  0.78417141  0.38854899  0.35654791  1
  H+  H37  1  0.89680080  0.11535406  0.98792988  1
  H+  H38  1  0.92148403  0.80016449  0.17898105  1
  H+  H39  1  0.63515943  0.03782478  0.65244828  1
  H+  H40  1  0.89199191  0.86056159  0.83653891  1
  H+  H41  1  0.91133673  0.68318720  0.19689953  1
  H+  H42  1  0.12199957  0.59769366  0.00507646  1
  H+  H43  1  0.33945037  0.37323765  0.34432848  1
  H+  H44  1  0.59894132  0.88030791  0.49306311  1
  H+  H45  1  0.35224861  0.31462504  0.17997698  1
  H+  H46  1  0.56226802  0.44136587  0.16052246  1
  H+  H47  1  0.14388986  0.60471910  0.32980106  1
  H+  H48  1  0.88374338  0.11004249  0.64903218  1
  H+  H49  1  0.67498378  0.57700048  0.91954645  1
  H+  H50  1  0.91146471  0.07162503  0.42615247  1
  H+  H51  1  0.93171046  0.33232475  0.57155653  1
  H+  H52  1  0.11400386  0.90303716  0.68270321  1
  H+  H53  1  0.43553020  0.59358242  1.03271895  1
  H+  H54  1  0.32116157  0.41882523  0.43513394  1
  H+  H55  1  0.03939361  0.15135289  0.00738639  1
  H+  H56  1  0.44973721  0.09872616  0.50300423  1
  H+  H57  1  0.51228189  0.88924802  0.65627456  1
  H+  H58  1  0.12257669  0.39358814  0.16987207  1
  H+  H59  1  0.64532447  0.11524767  0.96947042  1
  H+  H60  1  0.77641903  0.38973424  0.80457943  1
  H+  H61  1  0.58531929  0.91500097  0.26257608  1
  H+  H62  1  0.29443011  0.89619583  0.81507731  1
  H+  H63  1  0.70464688  0.85969099  0.50753497  1
  H+  H64  1  0.11005777  0.22648150  0.66969743  1
  H+  H65  1  0.73372837  0.13141294  0.17316073  1
  H+  H66  1  0.98271569  0.11753629  0.16532480  1
  H+  H67  1  0.81443656  0.56355958  0.13883846  1
  H+  H68  1  0.61736778  0.12183854  0.48081324  1
  H+  H69  1  0.61413923  0.23816678  0.81378386  1
  H+  H70  1  0.13357381  0.11380046  0.83404362  1
  H+  H71  1  0.52306217  0.62056104  0.82812004  1
  H+  H72  1  0.47566512  0.60014212  0.32591155  1
  H+  H73  1  0.26370734  0.14521180  0.67007070  1
  H+  H74  1  0.88036987  0.22149688  0.34003283  1
  H+  H75  1  0.34713858  0.13418892  0.35768274  1
  H+  H76  1  0.87811317  0.34719428  0.81368467  1
  H+  H77  1  0.58514477  0.07962156  0.34247111  1
  H+  H78  1  0.09151062  0.12869273  0.34143839  1
  H+  H79  1  0.31582469  0.16200141  0.41755264  1
  H+  H80  1  0.68370263  0.54981195  0.15467677  1
  H+  H81  1  0.36485234  0.26021917  0.34787339  1
  H+  H82  1  0.34330284  0.87325285  0.34497502  1
  H+  H83  1  0.47173044  0.12760083  0.65568788  1
  H+  H84  1  0.58619580  0.41888106  0.39765812  1
  H+  H85  1  0.65942811  0.85403350  0.97658316  1
  H+  H86  1  1.01728803  0.62000964  1.01201639  1
  H+  H87  1  0.24042891  0.14171040  0.18445923  1
  H+  H88  1  0.61848146  0.46445145  0.99153522  1
  H+  H89  1  0.14297300  0.48530245  0.82827222  1
  H+  H90  1  0.90506643  0.03109422  0.99000621  1
  H+  H91  1  0.83528693  0.97102777  0.49571794  1
  H+  H92  1  0.60261133  0.89222010  0.66532361  1
  H+  H93  1  0.13534465  0.35979012  0.50955919  1
  H+  H94  1  0.35915534  0.13519318  0.81914589  1
  H+  H95  1  0.22400011  0.11526327  0.83510283  1
  H+  H96  1  0.35086114  0.45668040  1.01871759  1
  H+  H97  1  0.42111054  0.71125811  0.13166082  1
  H+  H98  1  0.59475299  0.23143835  0.49673944  1
  H+  H99  1  0.11862331  0.26807347  0.33493358  1
  H+  H100  1  0.99418044  0.44585524  0.36994154  1
  H+  H101  1  0.38309449  0.79539853  0.16765290  1
  H+  H102  1  0.39010141  0.14079670  0.19673041  1
  H+  H103  1  0.37337129  0.13985244  -0.01136466  1
  H+  H104  1  0.64115345  0.36962708  0.82441844  1
  H+  H105  1  0.64007021  0.40507440  0.48604460  1
  H+  H106  1  0.59749911  0.49182785  0.67403502  1
  H+  H107  1  0.39267314  0.02839197  0.97900604  1
  H+  H108  1  1.01844691  0.13807522  0.66560006  1
  H+  H109  1  0.28262511  0.89885203  0.67629524  1
  H+  H110  1  0.36377872  0.63585870  0.49234132  1
  H+  H111  1  0.67427256  0.33857461  0.88145783  1
  H+  H112  1  0.04410474  0.91626209  0.16162045  1
  H+  H113  1  0.86860348  0.34918857  -0.02487195  1
  H+  H114  1  0.73861471  0.11510909  0.33138687  1
  H+  H115  1  0.86280269  0.71639102  0.33625269  1
  H+  H116  1  0.01883376  0.13258598  0.82260256  1
  H+  H117  1  0.46857523  0.59043935  0.16537082  1
  H+  H118  1  0.11568796  0.13466179  0.50608494  1
  H+  H119  1  0.94656904  0.32326632  0.25517214  1
  H+  H120  1  0.51855143  0.15628337  0.20524969  1
  H+  H121  1  0.57428932  0.42149758  0.76288639  1
  H+  H122  1  0.24456259  0.61660061  0.01148622  1
  H+  H123  1  0.14271752  0.77860973  0.82947550  1
  H+  H124  1  0.64103302  0.12850679  0.65316018  1
  H+  H125  1  0.63859806  0.61908191  0.50928364  1
  H+  H126  1  0.20591864  0.84849544  0.32132785  1
  H+  H127  1  0.86327134  0.13781133  0.15279444  1
  H+  H128  1  0.73039856  0.62358963  0.50979824  1
  H+  H129  1  0.88518213  0.27721380  0.51106717  1
  H+  H130  1  0.38602999  0.35369383  -0.00730683  1
  H+  H131  1  0.85802694  0.88688322  0.66300843  1
  H+  H132  1  0.63516209  0.84799137  0.31424171  1
  H+  H133  1  0.84597430  0.50196718  0.65937892  1
  H+  H134  1  0.22668299  0.61671862  0.65444049  1
  H+  H135  1  0.22123811  0.60249283  0.49978484  1
  H+  H136  1  0.86090820  0.96402605  0.36199137  1
  H+  H137  1  0.28009930  0.37566981  0.82266998  1
  H+  H138  1  0.61097810  0.62009120  0.33803200  1
  H+  H139  1  0.85748259  0.46740751  1.00351968  1
  H+  H140  1  0.61211221  0.29596095  0.08457560  1
  H+  H141  1  0.86078369  0.63315033  0.49072481  1
  H+  H142  1  0.87918076  0.26704191  0.97508068  1
  H+  H143  1  0.57868049  0.30914628  0.35419308  1
  H+  H144  1  0.16202639  0.57413038  0.55792368  1
  H+  H145  1  0.89755304  0.35917206  0.17065049  1
  H+  H146  1  0.42018118  0.08312380  0.91615842  1
  H+  H147  1  0.13650641  0.86686361  0.82435628  1
  H+  H148  1  0.61288676  0.71033759  0.33849419  1
  H+  H149  1  0.77875515  0.13294628  0.99249254  1
  H+  H150  1  0.14050167  0.26797484  0.83297555  1
  H+  H151  1  0.77361782  0.13027625  0.81050073  1
  H+  H152  1  0.64211056  0.51743253  0.83081167  1
  H+  H153  1  0.61836595  1.03200788  0.48217097  1
  H+  H154  1  0.10552487  0.22623805  0.16253179  1
  H+  H155  1  0.54102815  0.63874107  -0.01363242  1
  H+  H156  1  0.72271360  0.35720988  0.52629195  1
  H+  H157  1  0.55323241  0.87738997  -0.06091097  1
  H+  H158  1  0.87135835  0.72483184  0.82589749  1
  H+  H159  1  0.63768036  0.49269191  0.48761787  1
  H+  H160  1  0.88220832  0.63713795  0.65146007  1
  H+  H161  1  0.38465530  0.76962670  0.32730228  1
  H+  H162  1  0.83093053  0.66343389  0.43249800  1
  H+  H163  1  0.12910622  0.63546239  0.84326888  1
  H+  H164  1  0.35142020  0.00323848  0.33477702  1
  H+  H165  1  0.50589110  0.37855409  0.34908227  1
  H+  H166  1  0.26709296  0.39016815  0.49728102  1
  H+  H167  1  0.00840290  0.65000524  0.66425051  1
  H+  H168  1  0.38920498  0.72197234  0.86354234  1
  H+  H169  1  0.86659913  0.13088649  0.36376958  1
  H+  H170  1  -0.01479351  0.60719300  0.83816048  1
  H+  H171  1  0.16345562  0.57646606  0.91429383  1
  H+  H172  1  0.23318255  0.88343534  0.16591086  1
  H+  H173  1  0.60961823  0.37548447  0.66073627  1
  H+  H174  1  0.17924067  0.84843755  0.73925334  1
  H+  H175  1  0.88300875  0.10566455  0.83248081  1
  H+  H176  1  0.11335352  1.02877934  0.52055252  1
  H+  H177  1  0.41897226  0.32776673  0.89910913  1
  H+  H178  1  0.38505202  0.86614332  0.64704110  1
  H+  H179  1  0.47251302  0.60977161  0.50649094  1
  H+  H180  1  0.77596371  0.13927522  0.66353523  1
  H+  H181  1  0.46274706  0.85745623  0.49501157  1
  H+  H182  1  0.60195585  0.24031429  0.66535456  1
  H+  H183  1  0.12971462  0.73970639  0.15926863  1
  H+  H184  1  0.15636466  0.36595299  0.82996498  1
  H+  H185  1  0.64286667  0.60659171  0.82974889  1
  H+  H186  1  0.34773468  0.46581651  0.33913670  1
  H+  H187  1  0.72502406  0.35825939  -0.02251448  1
  H+  H188  1  0.57562999  0.90244990  0.00899840  1
  H+  H189  1  -0.01151285  0.84981124  0.50938487  1
  H+  H190  1  0.23636480  0.35132902  0.65733343  1
  H+  H191  1  0.98127916  0.86256205  0.83876105  1
  H+  H192  1  0.33080685  -0.05016546  0.49742519  1
  H+  H193  1  1.06123937  0.68477896  0.39544529  1
  H+  H194  1  0.38819523  0.26817494  0.83835976  1
  H+  H195  1  0.14264167  0.87821611  0.16344829  1
  H+  H196  1  0.63045620  0.72375118  -0.00162913  1
  H+  H197  1  0.75942533  0.14458281  0.48606834  1
  H+  H198  1  0.35384916  0.44343158  0.16372675  1
  H+  H199  1  0.37958517  0.52420014  0.50576265  1
  H+  H200  1  0.61949009  0.00530611  0.18372758  1
  H+  H201  1  0.11357241  0.98082917  0.82785918  1
  H+  H202  1  0.92826627  0.69039114  0.16469034  1
  H+  H203  1  0.38972016  0.30779629  0.28398642  1
  H+  H204  1  0.69413724  0.81376867  0.92919934  1
  H+  H205  1  0.62622297  0.77546403  0.66339189  1
  H+  H206  1  0.34214365  0.86787777  0.49125382  1
  H+  H207  1  0.40829887  0.41314760  0.52369476  1
  H+  H208  1  0.39344965  0.02712055  0.82496236  1
  H+  H209  1  0.77830413  0.62898089  -0.00964904  1
  H+  H210  1  0.24867443  0.12629783  0.50561206  1
  H+  H211  1  0.40109044  0.83251685  0.27065880  1
  H+  H212  1  0.64678617  0.60472533  0.98105465  1
  H+  H213  1  0.12707335  0.15153891  1.01019867  1
  H+  H214  1  0.78108970  0.73434287  0.11609465  1
  H+  H215  1  0.60171634  0.26357701  0.15524841  1
  H+  H216  1  1.05602821  0.64640060  0.18005682  1
  H+  H217  1  0.89861253  0.52598313  0.52121081  1
  H+  H218  1  0.33239286  0.11638299  0.50220945  1
  H+  H219  1  0.92908753  0.53766301  0.22484825  1
  H+  H220  1  0.65097518  0.02726925  0.96168015  1
  H+  H221  1  0.08883722  0.82341293  0.47066147  1
  H+  H222  1  0.62276792  0.22228880  -0.02345432  1
  H+  H223  1  0.57546173  0.23109378  0.31906206  1
  H+  H224  1  0.67125632  0.09399723  0.87760167  1
  H+  H225  1  0.35794714  0.72274043  0.65960652  1
  H+  H226  1  0.13617553  0.78639366  0.68410473  1
  H+  H227  1  0.57512155  0.65585907  0.76392538  1
  H+  H228  1  0.86656970  0.97813581  0.15990421  1
  H+  H229  1  0.48834454  0.87148171  0.85466084  1
  H+  H230  1  0.14055408  0.27214743  0.51076165  1
  H+  H231  1  0.18481443  0.86731524  -0.07947877  1
  H+  H232  1  0.13180734  0.11505735  0.66152601  1
  H+  H233  1  0.14257555  0.03590698  0.98982969  1
  H+  H234  1  0.71660351  0.86320502  0.65795347  1
  H+  H235  1  0.12505786  0.47847003  0.66888240  1
  H+  H236  1  0.82197107  0.74762947  0.09904440  1
  H+  H237  1  0.79361159  0.88746868  0.00527617  1
  H+  H238  1  0.23756629  0.61901039  0.86339729  1
  H+  H239  1  -0.02443940  0.10869213  0.37060388  1
  H+  H240  1  0.89463431  0.76906556  0.50812435  1
  H+  H241  1  0.13440661  1.00231795  0.15647406  1
  H+  H242  1  0.86826666  0.47330409  0.80786185  1
  H+  H243  1  0.65525318  1.02289589  0.31655448  1
  H+  H244  1  0.88649316  0.85457323  0.33103256  1
  H+  H245  1  0.36935654  0.62781392  0.84948840  1
  H+  H246  1  0.56265366  0.35278104  0.13598636  1
  H+  H247  1  0.54668325  0.06788670  0.40657522  1
  H+  H248  1  0.87202915  0.11787019  0.50418022  1
  H+  H249  1  0.86222634  0.74166072  0.67159226  1
  H+  H250  1  0.77343014  0.87625754  0.34451990  1
  H+  H251  1  0.78369048  0.63410085  0.82197985  1
  H+  H252  1  0.28450116  0.14066315  0.99460894  1
  H+  H253  1  0.89686916  0.85999240  -0.00621019  1
  H+  H254  1  0.47101165  0.88247383  0.18121642  1
  H+  H255  1  0.60859770  0.64249011  0.67315851  1
  H+  H256  1  0.24691596  0.62664569  0.17571889  1
  H+  H257  1  0.64041311  0.74445335  0.83522965  1
  H+  H258  1  0.14506779  0.12764812  0.17143112  1
  H+  H259  1  0.27943408  0.63595053  0.33691515  1
  H+  H260  1  0.62805323  0.50422102  0.32468752  1
  H+  H261  1  0.33019428  0.71177806  0.00547654  1
  H+  H262  1  -0.01795009  0.62053071  0.50356299  1
  H+  H263  1  0.51585858  0.63501145  0.67329954  1
  H+  H264  1  0.83632060  0.42058834  0.58806690  1
  H+  H265  1  0.64139224  0.83152773  0.84816402  1
  H+  H266  1  0.10569765  0.87642428  0.32752504  1
  H+  H267  1  0.37081890  0.37738695  0.82746156  1
  H+  H268  1  0.17904852  0.34898176  0.91894462  1
  H+  H269  1  0.15990078  0.63030707  0.17205080  1
  H+  H270  1  0.11705105  0.43123930  0.76549526  1
  H+  H271  1  0.35457371  0.63279766  0.66497806  1
  H+  H272  1  0.44652030  0.07482935  0.33985215  1
  H+  H273  1  0.81703395  0.40332933  0.33155581  1
  H+  H274  1  0.61397347  0.91805434  0.16018001  1
  H+  H275  1  0.52369802  0.38491531  0.82610918  1
  H+  H276  1  0.99418652  0.35910343  0.66024413  1
  H+  H277  1  0.87499212  0.23093835  0.15178998  1
  H+  H278  1  0.21250558  0.43846726  0.94894378  1
  H+  H279  1  0.61015064  0.91543868  0.79930439  1
  H+  H280  1  0.88642109  0.60186748  -0.01277556  1
  H+  H281  1  0.88198643  0.89828006  0.16291443  1
  H+  H282  1  0.13485834  0.61200811  0.65563726  1
  H+  H283  1  0.47736321  0.12186877  0.82543556  1
  H+  H284  1  0.78212836  0.87804591  0.82040381  1
  H+  H285  1  0.60294628  0.72311832  0.49222784  1
  H+  H286  1  0.90348334  0.27060841  0.65758851  1
  H+  H287  1  0.83198472  0.16292587  0.05549718  1
  H+  H288  1  0.52721893  0.37896622  -0.00548326  1
  H+  H289  1  0.32872043  0.93866093  0.06159479  1
  H+  H290  1  0.66521739  0.59421764  0.60203999  1
  H+  H291  1  0.52148775  0.87992221  0.31715893  1
  H+  H292  1  0.91593261  0.60710442  0.59174321  1
  H+  H293  1  0.92281026  0.82886122  0.93321787  1
  H+  H294  1  0.08209641  0.90298232  0.39126516  1
  H+  H295  1  0.46759175  0.33981217  0.16842621  1
  H+  H296  1  0.17470824  0.33162611  0.59914743  1
  H+  H297  1  0.07819065  0.65487699  0.07112724  1
  H+  H298  1  0.83254416  0.91697397  0.72337396  1
  H+  H299  1  0.76755509  0.28651931  0.12786329  1
  H+  H300  1  0.03879367  0.67676743  0.73018518  1
  H+  H301  1  0.40791638  0.83041956  0.58710090  1
  H+  H302  1  0.16970716  0.09392008  0.93038349  1
  H+  H303  1  0.08583788  0.17236421  0.09901059  1
  H+  H304  1  0.89905515  0.31882677  0.87703699  1
  H+  H305  1  0.35054200  0.40054478  0.73326522  1
  H+  H306  1  0.81215183  0.89959049  0.44499784  1
  H+  H307  1  0.02938183  0.14480075  0.49606237  1
  H+  H308  1  0.83225866  0.17920806  0.43760203  1
  H+  H309  1  0.82013767  0.39656280  0.05793333  1
  H+  H310  1  0.64341889  0.82714166  0.56594516  1
  H+  H311  1  0.56561242  0.98703453  0.06900885  1
  H+  H312  1  0.86275645  0.21895342  0.81232735  1
  H+  H313  1  0.43129755  0.84053702  0.91777282  1
  H+  H314  1  0.57826465  0.17767927  0.72210144  1
  H+  H315  1  0.72236124  0.62463431  0.66267830  1
  H+  H316  1  0.11280907  0.99181148  0.67169791  1
  H+  H317  1  0.35657322  0.92725114  0.75870544  1
  H+  H318  1  0.08782958  0.41253849  0.07345708  1
  H+  H319  1  0.13172272  0.07383700  0.26295654  1
  H+  H320  1  0.67789245  0.81128139  0.26824423  1
  H+  H321  1  0.83591350  0.15797986  0.72236723  1
  H+  H322  1  0.79501685  0.59988882  0.07948694  1
  H+  H323  1  0.41513468  0.57620371  0.59894228  1
  H+  H324  1  0.61421805  0.14910906  0.81245875  1
  H+  H325  1  0.98225234  0.60006784  0.27863551  1
  H+  H326  1  0.30169522  0.89257935  0.40261246  1
  H+  H327  1  0.50627269  0.07455289  0.09443608  1
  H+  H328  1  0.89795660  0.61085479  0.83424255  1
  H+  H329  1  0.65483830  0.55848097  0.26370241  1
  H+  H330  1  0.64627416  0.33505654  0.57112291  1
  H+  H331  1  0.92212045  0.83527234  0.59772555  1
  H+  H332  1  0.17786603  0.59041914  0.26695741  1
  H+  H333  1  0.31545400  0.38219493  0.10617984  1
  H+  H334  1  0.70345907  0.38428725  0.65678394  1
  H+  H335  1  0.33572696  0.66288082  0.43019117  1
  H+  H336  1  0.91822900  0.56917067  0.93073856  1
  H+  H337  1  0.55973002  0.92642640  0.74648350  1
  H+  H338  1  0.41812306  0.55883651  0.90532974  1
  H+  H339  1  0.93137194  0.84796342  0.24159498  1
  H+  H340  1  0.57580008  0.90672939  0.43017385  1
  H+  H341  1  0.86762555  0.71715019  0.00229894  1
  H+  H342  1  0.82492568  0.42828353  0.70805164  1
  H+  H343  1  0.16013653  0.83586459  0.25698288  1
  H+  H344  1  0.20391111  0.36028579  0.33327823  1
  H+  H345  1  0.34554421  0.24042261  0.67806414  1
  H+  H346  1  0.77820270  0.62330674  0.33569409  1
  H+  H347  1  0.52838396  0.94168780  0.07272960  1
  H+  H348  1  0.08009984  0.92723716  0.76591753  1
  H+  H349  1  0.87160059  0.38843448  0.53355094  1
  H+  H350  1  0.33627885  0.66911078  0.09130867  1
  H+  H351  1  0.14605970  0.92015799  0.48755243  1
  H+  H352  1  0.48748957  0.10320265  0.09001200  1
  H+  H353  1  0.83721533  0.67743656  0.72971743  1
  H+  H354  1  0.73047906  0.75478941  0.20995861  1
  H+  H355  1  0.85018940  0.92064754  0.06568407  1
  H+  H356  1  0.68282476  0.41157112  0.24431347  1
  H+  H357  1  0.41618898  0.56967940  0.26650115  1
  H+  H358  1  0.39981283  0.07130047  0.56576472  1
  H+  H359  1  0.37639114  0.76422635  0.49674865  1
  H+  H360  1  0.92272305  0.09027050  0.22416217  1
  H+  H361  1  0.39270636  0.51444064  0.65649974  1
  H+  H362  1  0.09271770  0.93211268  0.06124883  1
  H+  H363  1  0.97705903  0.85513208  0.32844331  1
  H+  H364  1  0.15323885  0.32545165  0.24147517  1
  H+  H365  1  0.97720218  0.46269123  0.43658173  1
  H+  H366  1  0.86585794  0.97246108  0.82186064  1
  H+  H367  1  0.70586963  0.38648753  0.24490482  1
  H+  H368  1  0.97631965  0.87331605  0.65973276  1
  H+  H369  1  0.57985772  0.65180062  0.09032168  1
  H+  H370  1  0.14667198  0.88832407  -0.02006315  1
  H+  H371  1  0.10935137  0.65318136  0.77738887  1
  H+  H372  1  0.50074478  0.40875866  0.68026568  1
  H+  H373  1  0.15788616  0.08716735  0.59692087  1
  H+  H374  1  0.90927632  0.08246606  0.55608978  1
  H+  H375  1  0.09048782  0.16964300  0.40870739  1
  H+  H376  1  0.39110314  0.26703548  0.98777277  1
  H+  H377  1  0.56073812  0.19767202  0.43155536  1
  H+  H378  1  0.32678018  0.17019718  0.76336775  1
  H+  H379  1  0.42524136  0.38988995  0.58842788  1
  H+  H380  1  0.07645217  0.16359443  0.76217753  1
  H+  H381  1  0.91726064  0.08084776  0.89330996  1
  H+  H382  1  0.92048166  0.62247898  0.35760979  1
  H+  H383  1  0.39910777  0.08494780  0.25147132  1
  O2-  O384  1  0.07866895  0.16670164  0.14550488  1
  O2-  O385  1  0.09002062  0.17100907  0.48389958  1
  O2-  O386  1  0.07965276  0.16317418  0.80780586  1
  O2-  O387  1  0.09612649  0.42625768  0.15168839  1
  O2-  O388  1  0.08726173  0.40314538  0.47930505  1
  O2-  O389  1  0.12736114  0.42932026  0.80980598  1
  O2-  O390  1  0.10440370  0.67686274  0.15070287  1
  O2-  O391  1  0.08480773  0.72562847  0.47867494  1
  O2-  O392  1  0.09964078  0.66324858  0.81956916  1
  O2-  O393  1  0.10048822  0.94144478  0.14077226  1
  O2-  O394  1  0.09105899  0.88001078  0.46919391  1
  O2-  O395  1  0.08318362  0.92038978  0.81123983  1
  O2-  O396  1  0.34736501  0.20165497  0.17552275  1
  O2-  O397  1  0.30920206  0.15333245  0.48939190  1
  O2-  O398  1  0.32816074  0.16710912  0.80903231  1
  O2-  O399  1  0.31849930  0.38218262  0.15175857  1
  O2-  O400  1  0.32640561  0.42649718  0.48000811  1
  O2-  O401  1  0.34246942  0.40914044  0.80994138  1
  O2-  O402  1  0.35865205  0.68100221  0.13539234  1
  O2-  O403  1  0.33282719  0.66487626  0.47543185  1
  O2-  O404  1  0.34350979  0.66507454  0.85038772  1
  O2-  O405  1  0.33690729  0.94789933  0.14335165  1
  O2-  O406  1  0.30186114  0.88987216  0.48115859  1
  O2-  O407  1  0.35580188  0.92743491  0.80405628  1
  O2-  O408  1  0.58267819  0.19699252  0.20463209  1
  O2-  O409  1  0.55881792  0.17664954  0.47371221  1
  O2-  O410  1  0.58039610  0.17682769  0.79936922  1
  O2-  O411  1  0.52478871  0.38054535  0.14343942  1
  O2-  O412  1  0.63656021  0.44844516  0.46024494  1
  O2-  O413  1  0.58277656  0.41773646  0.80801789  1
  O2-  O414  1  0.57282205  0.64493574  0.13534740  1
  O2-  O415  1  0.57822988  0.66168168  0.47973565  1
  O2-  O416  1  0.58186411  0.65272416  0.80967385  1
  O2-  O417  1  0.58397785  0.93938610  0.18520676  1
  O2-  O418  1  0.57037959  0.91125046  0.47387313  1
  O2-  O419  1  0.56484978  0.92928556  0.79321016  1
  O2-  O420  1  0.83497229  0.17035756  0.13878860  1
  O2-  O421  1  0.82354492  0.17383868  0.48263310  1
  O2-  O422  1  0.83519653  0.15522278  0.79948142  1
  O2-  O423  1  0.79452470  0.34762198  0.13752314  1
  O2-  O424  1  0.84131033  0.42194797  0.54308562  1
  O2-  O425  1  0.83528898  0.41750286  0.78637466  1
  O2-  O426  1  0.76753149  0.55986166  0.11451904  1
  O2-  O427  1  0.83196726  0.66558369  0.47783461  1
  O2-  O428  1  0.84478093  0.66579698  0.80788105  1
  O2-  O429  1  0.84207305  0.91716087  0.14615339  1
  O2-  O430  1  0.80092654  0.90851195  0.48761971  1
  O2-  O431  1  0.84135598  0.91271357  0.80462718  1
  O2-  O432  1  0.17663575  0.09977842  0.18831646  1
  O2-  O433  1  0.15035762  0.08792164  0.53309923  1
  O2-  O434  1  0.16360321  0.08395372  0.85106325  1
  O2-  O435  1  0.15583574  0.32707267  0.19564379  1
  O2-  O436  1  0.16915940  0.33256577  0.52688478  1
  O2-  O437  1  0.17930015  0.32817494  0.84718001  1
  O2-  O438  1  0.18646510  0.59591956  0.18781171  1
  O2-  O439  1  0.16087661  0.56708086  0.51326691  1
  O2-  O440  1  0.17357957  0.58675222  0.86932390  1
  O2-  O441  1  0.17153108  0.84609372  0.17767964  1
  O2-  O442  1  0.15330244  0.74976394  0.52268681  1
  O2-  O443  1  0.17600030  0.84240969  0.82787100  1
  O2-  O444  1  0.41172175  0.09991956  0.20681970  1
  O2-  O445  1  0.39259981  0.05941793  0.52109701  1
  O2-  O446  1  0.41663070  0.08798949  0.84039142  1
  O2-  O447  1  0.38724360  0.29054622  0.19839087  1
  O2-  O448  1  0.45453476  0.41803059  0.55025846  1
  O2-  O449  1  0.42108939  0.32919759  0.85318737  1
  O2-  O450  1  0.40952505  0.55745809  0.18288391  1
  O2-  O451  1  0.41273530  0.58490214  0.52244414  1
  O2-  O452  1  0.42293401  0.56481619  0.86101651  1
  O2-  O453  1  0.40765951  0.85180880  0.18772234  1
  O2-  O454  1  0.40266049  0.82620844  0.51063513  1
  O2-  O455  1  0.47295195  0.83466791  0.89138756  1
  O2-  O456  1  0.67595733  0.10648771  0.19292047  1
  O2-  O457  1  0.65100215  0.09313317  0.47072508  1
  O2-  O458  1  0.66649868  0.09598271  0.83213761  1
  O2-  O459  1  0.62104375  0.31603806  0.12661876  1
  O2-  O460  1  0.65929040  0.33076690  0.52722812  1
  O2-  O461  1  0.67401383  0.34015727  0.83569721  1
  O2-  O462  1  0.63020964  0.53668864  0.17807226  1
  O2-  O463  1  0.67142773  0.59344087  0.52762879  1
  O2-  O464  1  0.67619186  0.57943282  0.84461271  1
  O2-  O465  1  0.70215813  0.78569865  0.19535039  1
  O2-  O466  1  0.64159232  0.82638944  0.52056798  1
  O2-  O467  1  0.67710879  0.80535385  0.85294812  1
  O2-  O468  1  0.91945555  0.08560053  0.17996880  1
  O2-  O469  1  0.90332511  0.08517192  0.51061727  1
  O2-  O470  1  0.91317607  0.07484494  0.84801426  1
  O2-  O471  1  0.93335833  0.33395781  0.18127596  1
  O2-  O472  1  0.92399066  0.33695995  0.52570156  1
  O2-  O473  1  0.90204364  0.31344933  0.83187950  1
  O2-  O474  1  0.98566473  0.58456633  0.23539531  1
  O2-  O475  1  0.92205995  0.58985270  0.51790179  1
  O2-  O476  1  0.92338082  0.57595225  0.84925557  1
  O2-  O477  1  0.93872844  0.85701505  0.19526661  1
  O2-  O478  1  0.93055914  0.82695610  0.52645301  1
  O2-  O479  1  0.92042853  0.82955913  0.85387753  1
  O2-  O480  1  0.09451842  0.05635720  0.29951457  1
  O2-  O481  1  0.16296365  0.08600785  0.64598033  1
  O2-  O482  1  0.17485121  0.09676978  0.97563347  1
  O2-  O483  1  0.14361585  0.32753824  0.31732168  1
  O2-  O484  1  0.17594062  0.32980543  0.64546805  1
  O2-  O485  1  0.18895640  0.37830269  0.96011898  1
  O2-  O486  1  0.18095108  0.58555413  0.31183855  1
  O2-  O487  1  0.16398290  0.58200158  0.64081026  1
  O2-  O488  1  0.15464710  0.56778783  0.98996120  1
  O2-  O489  1  0.14910828  0.82711647  0.30138161  1
  O2-  O490  1  0.17361597  0.84839615  0.69452613  1
  O2-  O491  1  0.18271417  0.86422661  0.96501632  1
  O2-  O492  1  0.39006738  0.06524464  0.32472175  1
  O2-  O493  1  0.40966676  0.09337906  0.64299894  1
  O2-  O494  1  0.42681352  0.08717598  0.96164761  1
  O2-  O495  1  0.39307696  0.32045749  0.32772681  1
  O2-  O496  1  0.39459359  0.35527746  0.66841576  1
  O2-  O497  1  0.42018858  0.33029740  0.97410940  1
  O2-  O498  1  0.41490437  0.57412750  0.31126866  1
  O2-  O499  1  0.41599364  0.57521791  0.64471337  1
  O2-  O500  1  0.39944241  0.57455647  0.99649480  1
  O2-  O501  1  0.41146974  0.83188265  0.31481072  1
  O2-  O502  1  0.41264597  0.83291694  0.63266198  1
  O2-  O503  1  0.38130894  0.82406874  0.99117480  1
  O2-  O504  1  0.68129807  0.08571803  0.31041577  1
  O2-  O505  1  0.67277832  0.09882384  0.64139084  1
  O2-  O506  1  0.68149387  0.08935896  0.95337300  1
  O2-  O507  1  0.58362289  0.25669334  0.35929994  1
  O2-  O508  1  0.64129105  0.34631265  0.64610422  1
  O2-  O509  1  0.66736120  0.32819110  0.95741702  1
  O2-  O510  1  0.66163639  0.56503458  0.30829299  1
  O2-  O511  1  0.66173592  0.59513404  0.64799157  1
  O2-  O512  1  0.67703130  0.57550619  0.96541915  1
  O2-  O513  1  0.66890204  0.81744017  0.31206932  1
  O2-  O514  1  0.65467398  0.83477324  0.64596170  1
  O2-  O515  1  0.69079566  0.82121344  0.97413973  1
  O2-  O516  1  0.91153647  0.07181794  0.38127318  1
  O2-  O517  1  0.91578790  0.08127556  0.63271922  1
  O2-  O518  1  0.93135292  0.08959234  0.97227768  1
  O2-  O519  1  0.95363020  0.30718241  0.29777496  1
  O2-  O520  1  0.93566568  0.33055057  0.64207689  1
  O2-  O521  1  0.89555089  0.32090692  0.95313712  1
  O2-  O522  1  0.97221556  0.61651043  0.35417886  1
  O2-  O523  1  0.91373957  0.60698024  0.63733603  1
  O2-  O524  1  0.91463884  0.56783703  0.97599750  1
  O2-  O525  1  0.91565742  0.82546719  0.31155817  1
  O2-  O526  1  0.91637641  0.83994532  0.64356034  1
  O2-  O527  1  0.92396494  0.82654380  0.97870474  1
  O2-  O528  1  0.09581011  0.17899631  0.02819790  1
  O2-  O529  1  0.07604016  0.16822779  0.36409616  1
  O2-  O530  1  0.07618685  0.16618363  0.68550308  1
  O2-  O531  1  0.07804513  0.41159651  0.02898924  1
  O2-  O532  1  0.02911051  0.38424201  0.32044745  1
  O2-  O533  1  0.10019292  0.42027543  0.68763419  1
  O2-  O534  1  0.07763006  0.64788455  0.02642981  1
  O2-  O535  1  0.11577089  0.71384062  0.42082484  1
  O2-  O536  1  0.06260719  0.67616574  0.69039653  1
  O2-  O537  1  0.09061854  0.93039166  0.01586666  1
  O2-  O538  1  0.07454843  0.90538712  0.34687733  1
  O2-  O539  1  0.07910753  0.93101329  0.68982070  1
  O2-  O540  1  0.34617761  0.17136170  0.00641135  1
  O2-  O541  1  0.32052475  0.16766829  0.37143223  1
  O2-  O542  1  0.32420471  0.17841304  0.68670293  1
  O2-  O543  1  0.32065535  0.39486367  0.02854561  1
  O2-  O544  1  0.31057038  0.40704996  0.35558126  1
  O2-  O545  1  0.34941175  0.40115490  0.68735385  1
  O2-  O546  1  0.31021004  0.65340069  0.02247551  1
  O2-  O547  1  0.34123154  0.66829816  0.35121593  1
  O2-  O548  1  0.32380616  0.66354007  0.67592048  1
  O2-  O549  1  0.33021196  0.92994355  0.01700088  1
  O2-  O550  1  0.30539993  0.89605776  0.35717223  1
  O2-  O551  1  0.34638907  0.92794839  0.67871299  1
  O2-  O552  1  0.59680593  0.16143514  -0.00932210  1
  O2-  O553  1  0.52973936  0.05809047  0.36383484  1
  O2-  O554  1  0.57619237  0.17829485  0.67653611  1
  O2-  O555  1  0.58908470  0.40397578  0.00545064  1
  O2-  O556  1  0.56921334  0.40451683  0.35322022  1
  O2-  O557  1  0.56366794  0.43179716  0.69007139  1
  O2-  O558  1  0.59300934  0.66128390  0.01114517  1
  O2-  O559  1  0.58003514  0.64981450  0.35314752  1
  O2-  O560  1  0.57553911  0.66918963  0.69081238  1
  O2-  O561  1  0.60225368  0.90629992  -0.03043746  1
  O2-  O562  1  0.58458013  0.90692805  0.30741748  1
  O2-  O563  1  0.57092664  0.92299261  0.67578017  1
  O2-  O564  1  0.83743610  0.16013339  0.01081252  1
  O2-  O565  1  0.83864157  0.16730438  0.36078228  1
  O2-  O566  1  0.83710480  0.16130247  0.67676081  1
  O2-  O567  1  0.82115670  0.40469396  0.01362407  1
  O2-  O568  1  0.96832181  0.47310925  0.39447166  1
  O2-  O569  1  0.81133108  0.43863400  0.66585457  1
  O2-  O570  1  0.83535510  0.65428602  0.01150278  1
  O2-  O571  1  0.83673041  0.65701641  0.35323007  1
  O2-  O572  1  0.83017578  0.67942809  0.68476189  1
  O2-  O573  1  0.85367785  0.92110499  0.02041379  1
  O2-  O574  1  0.83156933  0.89987369  0.36269878  1
  O2-  O575  1  0.82625256  0.91595929  0.67834489  1
