# generated using pymatgen
data_H2O
_symmetry_space_group_name_H-M   'P 1'
_cell_length_a   17.98435707
_cell_length_b   17.98991176
_cell_length_c   22.00163919
_cell_angle_alpha   89.98742985
_cell_angle_beta   90.01324384
_cell_angle_gamma   119.99992519
_symmetry_Int_Tables_number   1
_chemical_formula_structural   H2O
_chemical_formula_sum   'H384 O192'
_cell_volume   6164.67140306
_cell_formula_units_Z   192
loop_
 _symmetry_equiv_pos_site_id
 _symmetry_equiv_pos_as_xyz
  1  'x, y, z'
loop_
 _atom_type_symbol
 _atom_type_oxidation_number
  H+  1.0
  O2-  -2.0
loop_
 _atom_site_type_symbol
 _atom_site_label
 _atom_site_symmetry_multiplicity
 _atom_site_fract_x
 _atom_site_fract_y
 _atom_site_fract_z
 _atom_site_occupancy
  H+  H0  1  0.13649442  0.76410506  0.51720082  1
  H+  H1  1  0.17316434  0.51024804  0.88043251  1
  H+  H2  1  0.64396786  0.52253531  0.34112579  1
  H+  H3  1  0.11057221  0.73602927  0.35496149  1
  H+  H4  1  0.85706332  0.35830297  0.49821082  1
  H+  H5  1  0.90182028  0.10843271  0.82927361  1
  H+  H6  1  0.60372018  0.13755455  0.68270139  1
  H+  H7  1  0.61607494  0.34046166  0.18118657  1
  H+  H8  1  0.64759858  0.87105458  0.49093844  1
  H+  H9  1  0.37790796  0.64673499  0.49540155  1
  H+  H10  1  0.25790731  0.12099500  0.85786699  1
  H+  H11  1  0.82436297  0.99745783  0.14339622  1
  H+  H12  1  0.37324822  -0.01728886  1.01223337  1
  H+  H13  1  0.88571806  -0.02039262  0.47925843  1
  H+  H14  1  0.62672895  0.74190907  0.47852553  1
  H+  H15  1  0.90908260  0.13496617  0.97718200  1
  H+  H16  1  0.77760165  0.87228911  0.33970259  1
  H+  H17  1  0.87716866  0.98952508  -0.00380504  1
  H+  H18  1  0.10372568  0.64550866  0.83244618  1
  H+  H19  1  0.14924726  0.10911901  0.66211467  1
  H+  H20  1  0.39757105  1.03258659  0.84164356  1
  H+  H21  1  0.95276895  0.11697679  0.49113828  1
  H+  H22  1  0.13745977  0.61762359  0.55074022  1
  H+  H23  1  0.96766746  0.34749340  0.83642236  1
  H+  H24  1  0.14922735  0.26236861  0.66977915  1
  H+  H25  1  0.34146075  0.17202314  0.77839425  1
  H+  H26  1  0.23947586  0.09549128  0.30058380  1
  H+  H27  1  0.35637698  0.50134224  1.00357462  1
  H+  H28  1  0.08316276  -0.00520709  0.16781741  1
  H+  H29  1  0.13649349  0.36308735  0.17549649  1
  H+  H30  1  0.62442456  0.97723163  0.33202065  1
  H+  H31  1  0.27773938  0.90119783  0.82152065  1
  H+  H32  1  0.09643251  0.22656697  0.15566543  1
  H+  H33  1  0.39106336  1.02129208  0.34927136  1
  H+  H34  1  0.36358075  0.39548059  0.83952104  1
  H+  H35  1  0.87979605  0.65349082  0.00864265  1
  H+  H36  1  0.12848791  0.60597849  0.64434568  1
  H+  H37  1  0.88094805  0.35813021  0.32912771  1
  H+  H38  1  0.35834032  0.47255321  0.68036447  1
  H+  H39  1  0.91794482  0.08309944  0.62829251  1
  H+  H40  1  0.71425290  0.11504459  0.51232220  1
  H+  H41  1  0.36105698  0.13631122  0.68102597  1
  H+  H42  1  0.27376947  0.36236152  0.34242168  1
  H+  H43  1  0.71483273  0.35194247  0.49645902  1
  H+  H44  1  0.81618851  0.18860660  0.99185087  1
  H+  H45  1  0.87818692  0.51794842  0.50242101  1
  H+  H46  1  0.31444241  0.91032599  0.09683341  1
  H+  H47  1  0.13134122  0.83437353  -0.02929623  1
  H+  H48  1  0.91197266  0.25902092  0.17893151  1
  H+  H49  1  0.56898501  0.03582440  0.27104009  1
  H+  H50  1  0.38989683  0.36656128  0.66740622  1
  H+  H51  1  0.13693584  -0.01163553  0.66896938  1
  H+  H52  1  0.32454823  0.09498169  0.17576336  1
  H+  H53  1  0.86934743  0.37889339  0.67545253  1
  H+  H54  1  0.46584458  0.10995128  0.50774300  1
  H+  H55  1  0.67499192  0.83500888  0.89711589  1
  H+  H56  1  0.34259883  0.71073569  0.16800761  1
  H+  H57  1  1.02665233  0.90264310  1.00776742  1
  H+  H58  1  0.02940391  0.14605297  -0.00363583  1
  H+  H59  1  0.63440538  0.57632875  0.14299714  1
  H+  H60  1  0.38107233  0.14660283  0.83532610  1
  H+  H61  1  0.59208387  0.66815526  0.39504675  1
  H+  H62  1  0.65345841  0.85997486  0.31562615  1
  H+  H63  1  0.65121678  0.78440465  0.66405020  1
  H+  H64  1  0.38788658  0.77939896  0.83718955  1
  H+  H65  1  0.27306299  0.38096054  0.68330896  1
  H+  H66  1  0.07883198  0.17596391  0.06086012  1
  H+  H67  1  0.50749898  0.38088109  0.00058459  1
  H+  H68  1  0.51816367  0.39539160  0.50077291  1
  H+  H69  1  0.91437183  0.31118770  0.89814587  1
  H+  H70  1  0.22610989  0.85347027  0.51351689  1
  H+  H71  1  0.87318290  0.83354332  0.69009914  1
  H+  H72  1  0.62438373  0.40505417  0.34952827  1
  H+  H73  1  0.12184448  0.62222318  0.17561176  1
  H+  H74  1  0.11948245  0.88751701  0.34773126  1
  H+  H75  1  0.38304029  0.09466427  0.26802838  1
  H+  H76  1  0.12871179  0.88645338  0.67135246  1
  H+  H77  1  0.26587397  0.61799568  0.15613034  1
  H+  H78  1  0.65388392  0.38616065  -0.00665765  1
  H+  H79  1  0.85887921  0.22219123  0.50743983  1
  H+  H80  1  0.36332893  0.13429619  0.50299622  1
  H+  H81  1  0.83943388  0.67448002  0.39796408  1
  H+  H82  1  0.73384544  0.35882709  0.66135326  1
  H+  H83  1  0.38084909  0.77254407  0.65758604  1
  H+  H84  1  0.37079853  0.61274865  0.99861204  1
  H+  H85  1  0.44017894  0.34520344  0.94653666  1
  H+  H86  1  0.48686431  0.87360630  0.13152887  1
  H+  H87  1  0.61616173  -0.02153519  0.83377657  1
  H+  H88  1  -0.02686818  0.33141449  0.00402590  1
  H+  H89  1  0.62213665  0.10867584  0.50782954  1
  H+  H90  1  0.02918884  0.38091997  0.17183172  1
  H+  H91  1  0.98269506  0.86553797  0.50199650  1
  H+  H92  1  0.64191467  0.86703875  0.67140722  1
  H+  H93  1  0.86164462  0.73667474  0.83076299  1
  H+  H94  1  0.65918541  0.63449657  0.99454979  1
  H+  H95  1  0.51966585  0.88163767  0.68030134  1
  H+  H96  1  0.12858547  0.02745012  1.00849509  1
  H+  H97  1  -0.02840073  0.11109072  0.52005824  1
  H+  H98  1  0.64182156  0.86577441  0.83993091  1
  H+  H99  1  0.86641434  0.88156707  0.83259606  1
  H+  H100  1  0.31400791  0.66215753  0.33998574  1
  H+  H101  1  0.37612122  1.02048320  0.51070006  1
  H+  H102  1  0.09552665  0.74195115  0.99536708  1
  H+  H103  1  0.85993027  0.00551754  0.31856284  1
  H+  H104  1  0.27214722  0.64326885  0.82077863  1
  H+  H105  1  0.11356698  0.72276822  0.67046686  1
  H+  H106  1  0.12232865  0.12136987  0.30334463  1
  H+  H107  1  0.73961838  0.62170150  0.33308561  1
  H+  H108  1  0.82205241  0.09630470  0.54902688  1
  H+  H109  1  0.02523748  0.08434661  0.82137444  1
  H+  H110  1  0.37039316  0.23052911  0.68299268  1
  H+  H111  1  -0.02582352  0.85350921  0.20265220  1
  H+  H112  1  0.60482517  0.97232099  0.67927154  1
  H+  H113  1  0.33455346  0.66739090  0.07474175  1
  H+  H114  1  0.63559284  0.73660678  0.01025317  1
  H+  H115  1  0.36060204  0.88907083  1.01049619  1
  H+  H116  1  0.64436123  0.61962464  0.33221501  1
  H+  H117  1  0.55052699  0.64118335  0.16434170  1
  H+  H118  1  0.85631230  0.47180342  0.15233494  1
  H+  H119  1  0.05360706  0.97454381  0.79843653  1
  H+  H120  1  0.12745406  0.26538151  0.82821830  1
  H+  H121  1  0.86810363  0.47756150  0.99508978  1
  H+  H122  1  0.86570434  0.64217461  0.33634470  1
  H+  H123  1  0.64675977  0.89756910  0.16738471  1
  H+  H124  1  0.78339042  0.89050938  0.67767839  1
  H+  H125  1  0.97535746  0.34654678  0.66084141  1
  H+  H126  1  0.63986656  0.23716924  0.16397014  1
  H+  H127  1  -0.02231088  0.60035036  0.18485631  1
  H+  H128  1  0.32828542  0.96181929  0.15962927  1
  H+  H129  1  0.39256501  0.23864842  0.01562442  1
  H+  H130  1  0.11380632  0.71011387  0.18059101  1
  H+  H131  1  0.83081553  0.41652077  0.05164848  1
  H+  H132  1  0.09569821  0.64204504  0.35196841  1
  H+  H133  1  0.72552895  0.62221279  0.83223338  1
  H+  H134  1  0.12720542  0.36839760  1.00591612  1
  H+  H135  1  0.01301892  0.63773948  0.82637780  1
  H+  H136  1  0.37542178  0.32342052  0.33156016  1
  H+  H137  1  0.36681781  0.01533060  0.66270723  1
  H+  H138  1  0.77190941  0.60193737  0.14925101  1
  H+  H139  1  0.65017791  0.86761914  -0.01246613  1
  H+  H140  1  0.17586156  0.07752309  0.56828256  1
  H+  H141  1  0.66702198  0.33433179  0.23859704  1
  H+  H142  1  0.36442555  0.34941873  0.17165321  1
  H+  H143  1  0.10527245  0.62580291  0.03227961  1
  H+  H144  1  0.11919573  0.09533370  0.83312944  1
  H+  H145  1  0.61560905  0.48086382  0.15649070  1
  H+  H146  1  0.22346381  0.60991776  1.01781335  1
  H+  H147  1  0.38757209  0.62012332  0.84033105  1
  H+  H148  1  0.64716508  0.11764264  0.84287426  1
  H+  H149  1  0.18503561  0.02507247  0.87270947  1
  H+  H150  1  0.08647858  0.46641389  0.80418030  1
  H+  H151  1  0.61463353  0.72978180  0.82771523  1
  H+  H152  1  0.59583502  0.21940156  0.49158061  1
  H+  H153  1  0.39383813  0.80595217  0.33611002  1
  H+  H154  1  0.65312658  0.63377262  0.49747804  1
  H+  H155  1  0.14756744  0.54629174  0.32634699  1
  H+  H156  1  0.73258277  0.37323095  0.33162371  1
  H+  H157  1  0.11916975  0.97393842  0.34194312  1
  H+  H158  1  0.64873852  1.06464747  0.10534498  1
  H+  H159  1  0.61494681  0.48408009  0.82928309  1
  H+  H160  1  0.61560392  0.19326925  0.06048262  1
  H+  H161  1  0.16216602  0.38447804  0.52505168  1
  H+  H162  1  0.72008008  0.36317251  0.83629034  1
  H+  H163  1  0.53790585  0.64926534  0.48242630  1
  H+  H164  1  0.04851807  0.50364504  0.46347864  1
  H+  H165  1  0.77598984  0.64402139  0.48676064  1
  H+  H166  1  0.79252864  0.80240254  0.21989617  1
  H+  H167  1  0.49769204  0.12351826  0.99528638  1
  H+  H168  1  0.11282618  0.56930519  0.26804136  1
  H+  H169  1  0.58887672  0.59494017  0.68866458  1
  H+  H170  1  0.61342502  -0.01939658  0.48890806  1
  H+  H171  1  0.38479527  0.35906132  0.51201834  1
  H+  H172  1  -0.02747232  0.62385631  0.33276439  1
  H+  H173  1  0.62056715  0.72142197  0.33206064  1
  H+  H174  1  0.20232217  0.85488458  0.17270840  1
  H+  H175  1  0.33433233  0.42284122  0.77890250  1
  H+  H176  1  0.86659205  0.61360252  0.82855464  1
  H+  H177  1  0.39178871  0.28359110  0.84826448  1
  H+  H178  1  0.36737702  0.44605702  0.33915489  1
  H+  H179  1  0.25597712  0.69695100  0.36266357  1
  H+  H180  1  0.39904099  0.58384777  0.32923933  1
  H+  H181  1  0.33106592  0.83474275  0.18131177  1
  H+  H182  1  0.10933120  0.46013101  0.65833675  1
  H+  H183  1  -0.00643849  0.87449865  0.80817802  1
  H+  H184  1  0.13312561  0.12796927  0.00146854  1
  H+  H185  1  0.22764558  0.85862666  0.66710910  1
  H+  H186  1  0.08985683  0.51572893  0.89195831  1
  H+  H187  1  0.61127735  0.39344857  0.82192764  1
  H+  H188  1  0.64067729  0.87338342  0.13829222  1
  H+  H189  1  0.86075224  0.56304689  0.88807090  1
  H+  H190  1  0.48355104  0.38266774  0.66361069  1
  H+  H191  1  0.48184064  0.34312644  0.16791762  1
  H+  H192  1  0.09077500  0.25479940  0.84951657  1
  H+  H193  1  0.76460454  0.39009218  0.14932560  1
  H+  H194  1  0.24561283  0.42655600  0.85592869  1
  H+  H195  1  0.11960800  0.47667372  0.16717010  1
  H+  H196  1  0.36184196  0.22868311  0.50720487  1
  H+  H197  1  0.87945143  0.26126862  0.66150181  1
  H+  H198  1  0.87954654  0.90162181  0.00135886  1
  H+  H199  1  0.47131603  0.85713936  -0.00669398  1
  H+  H200  1  0.91745956  0.58635033  0.26935866  1
  H+  H201  1  0.61775522  0.22741469  0.83438205  1
  H+  H202  1  0.73822256  0.37744289  0.98469687  1
  H+  H203  1  0.82704775  0.12286061  0.65625770  1
  H+  H204  1  0.39677952  0.78049357  0.51132591  1
  H+  H205  1  0.11431937  0.40115202  0.82277387  1
  H+  H206  1  0.65195341  0.71045856  0.17176457  1
  H+  H207  1  0.35725100  0.72541464  0.01283865  1
  H+  H208  1  0.52327443  0.64273007  0.83269040  1
  H+  H209  1  0.11032826  0.49931351  0.50990968  1
  H+  H210  1  0.87887769  0.86127954  0.32282001  1
  H+  H211  1  0.23812452  0.12243779  0.13805866  1
  H+  H212  1  0.60820143  0.40045235  0.49909968  1
  H+  H213  1  0.71015572  0.16826643  0.18967776  1
  H+  H214  1  0.12967365  0.87896502  0.81961418  1
  H+  H215  1  0.09348572  0.41653551  0.33732120  1
  H+  H216  1  0.29438389  0.40857525  0.50211709  1
  H+  H217  1  0.26031493  0.39742631  1.01001991  1
  H+  H218  1  0.34844518  0.25254302  0.16849878  1
  H+  H219  1  0.11926047  0.88219139  0.49862861  1
  H+  H220  1  0.48971221  0.11869408  0.84317613  1
  H+  H221  1  0.40510991  0.52943361  0.49965882  1
  H+  H222  1  0.49914902  0.63884526  0.65683932  1
  H+  H223  1  0.45530641  1.01080769  0.39061890  1
  H+  H224  1  0.09338351  0.08852304  0.16288158  1
  H+  H225  1  0.26919414  0.38912478  0.15975996  1
  H+  H226  1  0.64632721  0.54363096  0.50700810  1
  H+  H227  1  -0.04302387  0.33870358  0.34097510  1
  H+  H228  1  0.36715781  0.88740467  0.50120943  1
  H+  H229  1  0.47699421  0.37360398  0.84219449  1
  H+  H230  1  0.97968610  0.60260025  0.65270876  1
  H+  H231  1  0.91757418  0.31111341  0.23903879  1
  H+  H232  1  0.36272506  0.89268530  0.82946792  1
  H+  H233  1  0.90190412  0.08311463  0.27332657  1
  H+  H234  1  0.84689653  0.90973025  0.39588503  1
  H+  H235  1  0.13642976  0.28538890  0.99105622  1
  H+  H236  1  0.60521661  0.96006794  -0.03411310  1
  H+  H237  1  0.65264670  0.34045310  0.44458258  1
  H+  H238  1  0.88053351  0.76558788  0.32103128  1
  H+  H239  1  0.61720649  0.23182688  0.68434758  1
  H+  H240  1  0.13323805  0.79443608  0.82965299  1
  H+  H241  1  0.58252949  0.91803548  0.77464261  1
  H+  H242  1  0.48499826  0.70289620  0.61722738  1
  H+  H243  1  0.69994948  0.09623831  1.01475130  1
  H+  H244  1  0.70486822  0.52840779  0.66838329  1
  H+  H245  1  0.87908178  0.88709006  0.48647904  1
  H+  H246  1  0.78777332  0.31031509  0.44885845  1
  H+  H247  1  0.77940296  -0.11289000  0.82819789  1
  H+  H248  1  0.53995623  0.88958186  0.33360870  1
  H+  H249  1  0.39024817  0.53270247  0.84435672  1
  H+  H250  1  0.48384429  0.87154518  0.50536731  1
  H+  H251  1  0.86836959  0.74911843  0.66464226  1
  H+  H252  1  0.59202351  0.16992625  0.77417273  1
  H+  H253  1  0.36294897  0.47649364  0.15973074  1
  H+  H254  1  0.26852108  0.62846776  0.66092790  1
  H+  H255  1  0.74283717  0.87418932  0.98816510  1
  H+  H256  1  0.16191968  0.24881936  0.50516064  1
  H+  H257  1  0.15185996  0.26760375  0.47767153  1
  H+  H258  1  0.32646828  0.42792745  0.06908685  1
  H+  H259  1  0.10110395  0.07918863  0.45759342  1
  H+  H260  1  0.90663657  0.78916253  -0.00196725  1
  H+  H261  1  0.89424532  0.50837898  0.65667054  1
  H+  H262  1  0.01865494  0.62772959  0.50447391  1
  H+  H263  1  0.09766989  0.92034940  0.43822525  1
  H+  H264  1  0.24108135  0.11468093  0.66522134  1
  H+  H265  1  0.36114050  0.88372081  0.67403587  1
  H+  H266  1  0.89270853  0.01593297  0.83680687  1
  H+  H267  1  0.23325898  0.86470798  0.32653967  1
  H+  H268  1  0.64337896  0.50705097  0.00103494  1
  H+  H269  1  0.51660058  0.16179989  0.33759571  1
  H+  H270  1  0.70641248  0.10756796  0.66310766  1
  H+  H271  1  0.86410376  0.21329434  0.82025819  1
  H+  H272  1  0.49187461  0.59711323  0.32409840  1
  H+  H273  1  0.85815409  0.37760136  0.83123423  1
  H+  H274  1  0.63482366  0.61673090  0.84039581  1
  H+  H275  1  0.09838111  0.46611394  0.02406916  1
  H+  H276  1  0.97735065  0.37500756  0.51494666  1
  H+  H277  1  0.13545228  0.32791982  0.33684439  1
  H+  H278  1  0.48483127  0.83398309  0.14450075  1
  H+  H279  1  0.89285812  0.77839081  0.49718656  1
  H+  H280  1  0.63106296  0.25278421  1.00151203  1
  H+  H281  1  0.41842656  0.90295473  0.33085667  1
  H+  H282  1  0.86299081  0.63862858  0.48755145  1
  H+  H283  1  0.15078646  0.01330604  0.51004803  1
  H+  H284  1  0.85764870  0.46702171  0.82593888  1
  H+  H285  1  0.39489731  0.61263701  0.17250274  1
  H+  H286  1  0.64012907  0.28537703  0.33414926  1
  H+  H287  1  0.66917394  0.10214847  0.26839230  1
  H+  H288  1  0.69835204  0.82274531  0.26713389  1
  H+  H289  1  0.13976847  0.34762873  0.66701780  1
  H+  H290  1  0.83282909  0.79120957  0.88596264  1
  H+  H291  1  -0.00445213  0.83573769  0.13714228  1
  H+  H292  1  0.57058108  0.13854358  0.15757077  1
  H+  H293  1  0.90989137  0.56970546  0.56451996  1
  H+  H294  1  0.16644796  0.32538365  0.23145476  1
  H+  H295  1  0.53731462  0.35384352  0.10923010  1
  H+  H296  1  0.09011204  0.15747073  0.45019213  1
  H+  H297  1  0.76753018  0.85742035  0.17871224  1
  H+  H298  1  0.33903022  0.40874773  0.43743102  1
  H+  H299  1  0.88943728  0.60403193  0.17747525  1
  H+  H300  1  0.10141609  0.14136525  0.73414246  1
  H+  H301  1  0.93224213  0.09167503  0.92169421  1
  H+  H302  1  0.68439634  0.60362814  0.93175079  1
  H+  H303  1  0.16670628  0.83014193  0.27086826  1
  H+  H304  1  0.32236494  0.16078240  0.09160412  1
  H+  H305  1  0.83479037  0.93769899  0.09500948  1
  H+  H306  1  0.33302866  0.67898933  0.44849086  1
  H+  H307  1  0.84397795  0.66214123  0.10409003  1
  H+  H308  1  0.59114359  0.92341138  0.42778146  1
  H+  H309  1  0.91943809  0.33191625  0.57596920  1
  H+  H310  1  0.82518167  0.15238551  0.72620895  1
  H+  H311  1  0.07435915  0.40549344  0.08251508  1
  H+  H312  1  0.84177082  0.42249074  0.39667897  1
  H+  H313  1  0.88246309  0.17881179  0.08685807  1
  H+  H314  1  0.84990641  0.59632011  0.65966860  1
  H+  H315  1  0.66431609  0.34422725  0.89662924  1
  H+  H316  1  0.98105350  0.61325657  1.01470211  1
  H+  H317  1  0.63371283  0.47594211  0.06685930  1
  H+  H318  1  0.76770173  0.12447915  0.19809591  1
  H+  H319  1  0.27322241  0.01691264  0.22017328  1
  H+  H320  1  0.32684765  0.66573803  0.76022506  1
  H+  H321  1  0.40156536  0.58217612  0.93740883  1
  H+  H322  1  0.33437129  0.91568859  0.73463663  1
  H+  H323  1  0.43376570  0.09002667  0.93871079  1
  H+  H324  1  0.20161588  0.36834827  0.58357133  1
  H+  H325  1  0.82669109  0.15760372  0.44980695  1
  H+  H326  1  0.79281239  0.65715877  0.00513118  1
  H+  H327  1  0.39287344  0.30018901  0.26554055  1
  H+  H328  1  0.42095375  0.83818034  0.60158393  1
  H+  H329  1  0.37177845  0.20139430  0.32661926  1
  H+  H330  1  0.81755442  0.61784585  0.71948458  1
  H+  H331  1  0.07692112  0.91544072  0.72489729  1
  H+  H332  1  0.77824343  0.00575708  0.58393079  1
  H+  H333  1  0.16821527  0.83044583  0.60643282  1
  H+  H334  1  0.10746020  0.84179368  0.18746833  1
  H+  H335  1  0.08080390  0.65797923  0.72617415  1
  H+  H336  1  0.07537899  0.65331443  0.09255910  1
  H+  H337  1  0.18323160  0.09622353  0.94999450  1
  H+  H338  1  0.58789513  0.45512828  0.73722512  1
  H+  H339  1  0.61921705  0.96044913  0.03567570  1
  H+  H340  1  0.65552157  0.37300665  0.65394824  1
  H+  H341  1  0.43793033  0.59628131  0.55549712  1
  H+  H342  1  0.41570588  0.33186980  0.57322828  1
  H+  H343  1  0.40993987  0.82783473  0.93604918  1
  H+  H344  1  0.08261487  0.40740772  0.72106274  1
  H+  H345  1  0.84094194  0.11956515  0.35326408  1
  H+  H346  1  0.73954824  1.06450029  0.10632117  1
  H+  H347  1  0.77816512  0.12469018  0.82281557  1
  H+  H348  1  0.07926146  0.93573335  0.07101274  1
  H+  H349  1  0.33996553  0.92345109  0.44416118  1
  H+  H350  1  0.96109219  0.62550112  0.94861388  1
  H+  H351  1  0.16878017  0.06579171  0.24558423  1
  H+  H352  1  0.83920088  0.41135878  0.73366015  1
  H+  H353  1  0.58008328  0.65362044  0.73839646  1
  H+  H354  1  0.42695663  0.57819199  0.22818755  1
  H+  H355  1  0.84171640  0.71508696  0.76216546  1
  H+  H356  1  0.07738118  0.41012462  0.40836143  1
  H+  H357  1  0.08392127  0.66418791  0.44968173  1
  H+  H358  1  0.64593852  0.07453142  0.60476183  1
  H+  H359  1  0.73682672  0.87056583  0.48867920  1
  H+  H360  1  0.38587480  0.14626180  0.01382087  1
  H+  H361  1  0.26518798  0.12887127  0.50519543  1
  H+  H362  1  0.84956765  0.21180209  0.35681398  1
  H+  H363  1  0.04132812  0.12660619  0.67722741  1
  H+  H364  1  0.92995668  0.84129126  0.93492471  1
  H+  H365  1  0.59115277  0.43671123  0.40825868  1
  H+  H366  1  0.47708074  0.86712891  0.84313252  1
  H+  H367  1  0.83947576  0.91339717  0.73837215  1
  H+  H368  1  0.36480192  0.64401229  0.66441899  1
  H+  H369  1  0.61254788  0.67688352  0.06933515  1
  H+  H370  1  0.06923780  0.12385186  0.35745854  1
  H+  H371  1  0.91036832  0.01545708  0.67629862  1
  H+  H372  1  0.86983758  0.48786900  0.33948783  1
  H+  H373  1  -0.00099484  0.16042060  0.13896909  1
  H+  H374  1  0.68771183  0.09849356  0.90100443  1
  H+  H375  1  0.13909188  0.24547543  0.31492664  1
  H+  H376  1  0.19902876  0.57649252  0.22319874  1
  H+  H377  1  0.56767042  0.16116708  0.43346559  1
  H+  H378  1  0.16411278  0.58285403  0.96034854  1
  H+  H379  1  0.59246866  0.13971176  0.33319210  1
  H+  H380  1  0.67731496  0.16283195  0.98806713  1
  H+  H381  1  0.18057317  0.39241137  0.91256782  1
  H+  H382  1  0.37905225  0.82294161  0.23821078  1
  H+  H383  1  0.39656175  0.07795966  0.60519924  1
  O2-  O384  1  0.05805150  0.16973936  0.13579141  1
  O2-  O385  1  0.06655256  0.09868809  0.43551083  1
  O2-  O386  1  0.07284795  0.07851831  0.80271590  1
  O2-  O387  1  0.08840862  0.41255172  0.15286703  1
  O2-  O388  1  0.06886538  0.46501887  0.47682927  1
  O2-  O389  1  0.07019794  0.40621029  0.79761376  1
  O2-  O390  1  0.08465083  0.64976750  0.16661710  1
  O2-  O391  1  0.08114565  0.65395448  0.49460054  1
  O2-  O392  1  0.07173831  0.66663311  0.80934919  1
  O2-  O393  1  0.02537649  0.87325233  0.17152324  1
  O2-  O394  1  0.09595634  0.91912990  0.48454102  1
  O2-  O395  1  0.05069284  0.91760919  0.79319033  1
  O2-  O396  1  0.30146849  0.15293616  0.13690779  1
  O2-  O397  1  0.33120323  0.16654183  0.49122904  1
  O2-  O398  1  0.34578766  0.17401019  0.82388075  1
  O2-  O399  1  0.32906133  0.41695163  0.14265777  1
  O2-  O400  1  0.34949459  0.42092058  0.48199514  1
  O2-  O401  1  0.33625335  0.42890125  0.82392368  1
  O2-  O402  1  0.33006250  0.65557640  0.14774819  1
  O2-  O403  1  0.34729366  0.67977145  0.49158448  1
  O2-  O404  1  0.33097356  0.66991363  0.80570030  1
  O2-  O405  1  0.30210317  0.90340926  0.14257403  1
  O2-  O406  1  0.33161862  0.91426463  0.48841171  1
  O2-  O407  1  0.34008823  0.92807032  0.81108884  1
  O2-  O408  1  0.62736146  0.18128588  0.14313317  1
  O2-  O409  1  0.56598026  0.15802714  0.47886084  1
  O2-  O410  1  0.59282500  0.16665025  0.82099152  1
  O2-  O411  1  0.54267107  0.36455775  0.15292879  1
  O2-  O412  1  0.57817478  0.43106751  0.48563003  1
  O2-  O413  1  0.58218883  0.42632202  0.80938670  1
  O2-  O414  1  0.60874608  0.65843688  0.14940931  1
  O2-  O415  1  0.59687802  0.67906299  0.46471643  1
  O2-  O416  1  0.58216480  0.66785351  0.81507339  1
  O2-  O417  1  0.68208712  1.04622912  0.08106134  1
  O2-  O418  1  0.58558367  0.92053506  0.47289225  1
  O2-  O419  1  0.58337580  0.91715438  0.82031887  1
  O2-  O420  1  0.89398042  0.16527991  0.12839628  1
  O2-  O421  1  0.81995371  0.16164888  0.49576469  1
  O2-  O422  1  0.83712123  0.15341296  0.80455304  1
  O2-  O423  1  0.82018461  0.41965105  0.12815178  1
  O2-  O424  1  0.81463294  0.36490180  0.47077976  1
  O2-  O425  1  0.82915713  0.40663934  0.81205487  1
  O2-  O426  1  0.83422887  0.64386108  0.14722138  1
  O2-  O427  1  0.83753381  0.67129974  0.46968366  1
  O2-  O428  1  0.83167689  0.68281616  0.80126405  1
  O2-  O429  1  0.82997224  0.94523311  0.13901999  1
  O2-  O430  1  0.85020137  0.91953051  0.46762661  1
  O2-  O431  1  0.84074392  0.91659590  0.81476456  1
  O2-  O432  1  0.12488167  0.05721678  0.16996770  1
  O2-  O433  1  0.17904540  0.07638812  0.52287994  1
  O2-  O434  1  0.19891745  0.08447632  0.87839174  1
  O2-  O435  1  0.16597500  0.32886885  0.18630488  1
  O2-  O436  1  0.21618368  0.40498866  0.54660511  1
  O2-  O437  1  0.19464151  0.42671393  0.87400763  1
  O2-  O438  1  0.16781852  0.56938471  0.18562431  1
  O2-  O439  1  0.16378324  0.58225217  0.56236660  1
  O2-  O440  1  0.14885075  0.54984645  0.87715322  1
  O2-  O441  1  0.14905680  0.82283427  0.19828717  1
  O2-  O442  1  0.16647544  0.82541849  0.53025527  1
  O2-  O443  1  0.16901167  0.85722743  0.82789150  1
  O2-  O444  1  0.33115554  0.05323115  0.20436130  1
  O2-  O445  1  0.40502226  0.08250323  0.52266659  1
  O2-  O446  1  0.42881364  0.09198659  0.85867162  1
  O2-  O447  1  0.38446636  0.31038351  0.18768271  1
  O2-  O448  1  0.41231556  0.32573193  0.52775551  1
  O2-  O449  1  0.41879511  0.34476234  0.86116680  1
  O2-  O450  1  0.42733879  0.58258077  0.18326214  1
  O2-  O451  1  0.43416176  0.59180058  0.51061104  1
  O2-  O452  1  0.41792806  0.59323693  0.86015654  1
  O2-  O453  1  0.33824327  0.79185398  0.20518423  1
  O2-  O454  1  0.42485446  0.84323806  0.52349506  1
  O2-  O455  1  0.41539302  0.83682861  0.85653605  1
  O2-  O456  1  0.73782584  0.15088509  0.22080477  1
  O2-  O457  1  0.65222821  0.07914455  0.52404077  1
  O2-  O458  1  0.67681647  0.08544306  0.85689816  1
  O2-  O459  1  0.66088969  0.32623391  0.19384796  1
  O2-  O460  1  0.65345627  0.33300379  0.48853472  1
  O2-  O461  1  0.66006853  0.33871165  0.85104446  1
  O2-  O462  1  0.65709490  0.53622442  0.13779772  1
  O2-  O463  1  0.68445487  0.60569222  0.51419790  1
  O2-  O464  1  0.66891471  0.58905235  0.85307116  1
  O2-  O465  1  0.74024855  0.80552803  0.20645061  1
  O2-  O466  1  0.67594891  0.83743329  0.50111726  1
  O2-  O467  1  0.67245706  0.83429935  0.85140028  1
  O2-  O468  1  0.81226159  0.08785637  0.14719605  1
  O2-  O469  1  0.82404711  0.06537137  0.58655344  1
  O2-  O470  1  0.93066967  0.07871461  0.84770506  1
  O2-  O471  1  0.93257310  0.31695573  0.19542648  1
  O2-  O472  1  0.91914342  0.33329327  0.52972239  1
  O2-  O473  1  0.90888009  0.31808898  0.85373902  1
  O2-  O474  1  0.91669049  0.57337182  0.19863003  1
  O2-  O475  1  0.91024574  0.57606705  0.51859212  1
  O2-  O476  1  0.88892587  0.57833701  0.84838097  1
  O2-  O477  1  0.88986730  0.81636939  0.23765353  1
  O2-  O478  1  0.92082167  0.83852780  0.51229536  1
  O2-  O479  1  0.88972811  0.81662315  0.86733135  1
  O2-  O480  1  0.17756111  0.06626841  0.29015788  1
  O2-  O481  1  0.18143607  0.07901239  0.64727529  1
  O2-  O482  1  0.16465360  0.09325980  0.99388740  1
  O2-  O483  1  0.17105302  0.31159631  0.31280033  1
  O2-  O484  1  0.17828751  0.32434556  0.65688069  1
  O2-  O485  1  0.16366718  0.34837090  0.98353921  1
  O2-  O486  1  0.13104408  0.58641164  0.31066419  1
  O2-  O487  1  0.15611069  0.57205972  0.62935871  1
  O2-  O488  1  0.16120372  0.57707971  1.00482004  1
  O2-  O489  1  0.17229832  0.83172594  0.31693695  1
  O2-  O490  1  0.16571881  0.83042416  0.65223665  1
  O2-  O491  1  0.09439958  0.77442452  0.95954161  1
  O2-  O492  1  0.40385782  0.11021158  0.31171597  1
  O2-  O493  1  0.38700035  0.07509967  0.64941941  1
  O2-  O494  1  0.43590312  0.08962253  0.98409876  1
  O2-  O495  1  0.39930581  0.29188354  0.30957053  1
  O2-  O496  1  0.42389547  0.34120876  0.65090329  1
  O2-  O497  1  0.44659569  0.34076477  0.99074490  1
  O2-  O498  1  0.43067916  0.55983126  0.30940281  1
  O2-  O499  1  0.45420931  0.64352218  0.63147558  1
  O2-  O500  1  0.39469634  0.57613571  0.98263903  1
  O2-  O501  1  0.43279339  0.86007494  0.31461979  1
  O2-  O502  1  0.41631232  0.83435320  0.64710366  1
  O2-  O503  1  0.41000869  0.82639025  0.98151148  1
  O2-  O504  1  0.61725848  0.07096554  0.29786564  1
  O2-  O505  1  0.64533934  0.07232254  0.65003844  1
  O2-  O506  1  0.71228203  0.13445774  0.97828105  1
  O2-  O507  1  0.67023340  0.34656607  0.32099953  1
  O2-  O508  1  0.67346746  0.33015441  0.64718862  1
  O2-  O509  1  0.67437606  0.34982444  0.97338892  1
  O2-  O510  1  0.67622948  0.58708467  0.32066658  1
  O2-  O511  1  0.64908589  0.47405683  0.65839154  1
  O2-  O512  1  0.69177446  0.60621817  0.97666008  1
  O2-  O513  1  0.68042518  0.82378712  0.31083319  1
  O2-  O514  1  0.67946792  0.84577130  0.65503175  1
  O2-  O515  1  0.68191466  0.83878959  0.97360897  1
  O2-  O516  1  0.85559149  0.05462790  0.30267055  1
  O2-  O517  1  0.94537474  0.07800852  0.66555164  1
  O2-  O518  1  0.93286639  0.09697247  0.96753793  1
  O2-  O519  1  0.90104469  0.31674816  0.32058773  1
  O2-  O520  1  0.91446134  0.32291398  0.64764741  1
  O2-  O521  1  0.92254554  0.29533357  0.97672506  1
  O2-  O522  1  0.91359226  0.58940676  0.31594925  1
  O2-  O523  1  0.92014974  0.56691069  0.63682007  1
  O2-  O524  1  0.93066925  0.59606621  0.98560389  1
  O2-  O525  1  0.90938779  0.82702179  0.30348331  1
  O2-  O526  1  0.89116787  0.79011447  0.69817728  1
  O2-  O527  1  0.93675288  0.84936432  0.98116964  1
  O2-  O528  1  0.08866469  0.17718910  0.01552897  1
  O2-  O529  1  0.08535543  0.14546115  0.31523202  1
  O2-  O530  1  0.10495195  0.15804258  0.69061819  1
  O2-  O531  1  0.06997188  0.40447540  0.03587287  1
  O2-  O532  1  0.06701430  0.37603311  0.37059779  1
  O2-  O533  1  0.08304877  0.40163828  0.67590958  1
  O2-  O534  1  0.07207278  0.65295729  0.04680858  1
  O2-  O535  1  0.07497810  0.67732046  0.37257180  1
  O2-  O536  1  0.08476127  0.66013613  0.68110629  1
  O2-  O537  1  0.08648179  0.94126219  0.02705884  1
  O2-  O538  1  0.09408395  0.92007776  0.36556186  1
  O2-  O539  1  0.10061490  0.92346390  0.68148318  1
  O2-  O540  1  0.35624618  0.17707569  0.02820414  1
  O2-  O541  1  0.34391029  0.13544034  0.33726856  1
  O2-  O542  1  0.33587036  0.17140378  0.69923939  1
  O2-  O543  1  0.32270190  0.43157883  0.02317801  1
  O2-  O544  1  0.33343991  0.38998263  0.35970208  1
  O2-  O545  1  0.33473448  0.41571814  0.69852638  1
  O2-  O546  1  0.32812892  0.66513048  0.02876345  1
  O2-  O547  1  0.31349126  0.70476127  0.36715022  1
  O2-  O548  1  0.32471852  0.66169834  0.68167329  1
  O2-  O549  1  0.33490870  0.92271032  0.02609041  1
  O2-  O550  1  0.39923920  0.97676339  0.37134463  1
  O2-  O551  1  0.32659882  0.90947865  0.68930225  1
  O2-  O552  1  0.60909855  0.19162564  0.01571698  1
  O2-  O553  1  0.57326215  0.17663806  0.35494102  1
  O2-  O554  1  0.58638685  0.17451672  0.70444490  1
  O2-  O555  1  0.61847221  0.45169372  0.02508249  1
  O2-  O556  1  0.60058916  0.44184721  0.36317181  1
  O2-  O557  1  0.58285361  0.47708313  0.69547713  1
  O2-  O558  1  0.61024888  0.67643497  0.02430390  1
  O2-  O559  1  0.59090344  0.66098966  0.34848664  1
  O2-  O560  1  0.58018761  0.64449029  0.69342137  1
  O2-  O561  1  0.59027238  0.92104084  0.00037562  1
  O2-  O562  1  0.60112599  0.91772218  0.34694608  1
  O2-  O563  1  0.57926472  0.91288691  0.69685025  1
  O2-  O564  1  0.87825413  0.20940238  0.00421846  1
  O2-  O565  1  0.82781898  0.15707150  0.37907788  1
  O2-  O566  1  0.81542751  0.16070496  0.68248642  1
  O2-  O567  1  0.83362634  0.41643423  0.00610412  1
  O2-  O568  1  0.83983692  0.42542988  0.35196551  1
  O2-  O569  1  0.84286549  0.41380377  0.68832309  1
  O2-  O570  1  0.85235976  0.68668131  0.02285010  1
  O2-  O571  1  0.83658866  0.67459565  0.35138228  1
  O2-  O572  1  0.80460281  0.60776995  0.67612006  1
  O2-  O573  1  0.84575831  0.92998544  0.01247662  1
  O2-  O574  1  0.84098726  0.90390031  0.34979386  1
  O2-  O575  1  0.84340838  0.91239328  0.69294353  1
