# generated using pymatgen
data_H2O
_symmetry_space_group_name_H-M   'P 1'
_cell_length_a   17.98385984
_cell_length_b   17.99177247
_cell_length_c   21.98121285
_cell_angle_alpha   90.02979383
_cell_angle_beta   89.95920059
_cell_angle_gamma   120.02162518
_symmetry_Int_Tables_number   1
_chemical_formula_structural   H2O
_chemical_formula_sum   'H384 O192'
_cell_volume   6158.06610563
_cell_formula_units_Z   192
loop_
 _symmetry_equiv_pos_site_id
 _symmetry_equiv_pos_as_xyz
  1  'x, y, z'
loop_
 _atom_type_symbol
 _atom_type_oxidation_number
  H+  1.0
  O2-  -2.0
loop_
 _atom_site_type_symbol
 _atom_site_label
 _atom_site_symmetry_multiplicity
 _atom_site_fract_x
 _atom_site_fract_y
 _atom_site_fract_z
 _atom_site_occupancy
  H+  H0  1  0.35246592  0.62365312  0.49820180  1
  H+  H1  1  0.13581777  0.76082466  0.49013372  1
  H+  H2  1  0.37004472  0.28551404  0.33031440  1
  H+  H3  1  0.10131867  0.62619028  0.48591230  1
  H+  H4  1  0.83592877  0.17345198  0.43368836  1
  H+  H5  1  0.43069307  0.96233041  0.46131126  1
  H+  H6  1  0.88494939  0.50134195  0.16972243  1
  H+  H7  1  0.61378959  0.47742592  0.67123656  1
  H+  H8  1  0.36213675  0.14147297  0.34044014  1
  H+  H9  1  0.86114923  0.38121896  0.52170887  1
  H+  H10  1  0.33007740  0.39282910  0.09167267  1
  H+  H11  1  0.38951515  0.51659086  0.66858980  1
  H+  H12  1  0.77565490  0.63896354  0.67726307  1
  H+  H13  1  0.07279644  0.37696180  0.06792862  1
  H+  H14  1  0.58523908  0.92702873  0.43887355  1
  H+  H15  1  0.24546193  0.38285598  0.83113483  1
  H+  H16  1  0.52376331  0.60968245  0.15153181  1
  H+  H17  1  0.89492283  0.03519166  0.18479179  1
  H+  H18  1  0.11806132  0.12767623  -0.00880080  1
  H+  H19  1  0.98268696  0.85916461  0.15182766  1
  H+  H20  1  0.54412305  0.14873515  0.01456911  1
  H+  H21  1  0.51480700  0.12448633  0.67673207  1
  H+  H22  1  -0.01257823  0.59993471  0.31810447  1
  H+  H23  1  0.37471839  0.86002832  0.17643552  1
  H+  H24  1  0.98092836  0.36509531  0.17068606  1
  H+  H25  1  0.39290379  0.76669134  0.66382999  1
  H+  H26  1  0.15303604  0.50940993  0.85661521  1
  H+  H27  1  0.02359589  0.96807836  0.73682717  1
  H+  H28  1  0.52838980  0.88607353  0.66858739  1
  H+  H29  1  0.65324543  0.53366346  0.32238706  1
  H+  H30  1  0.79120686  0.64541576  0.33026327  1
  H+  H31  1  0.38641891  0.10868776  0.66596616  1
  H+  H32  1  0.39606704  0.28609712  0.50704246  1
  H+  H33  1  0.14173709  0.13153236  0.66343341  1
  H+  H34  1  0.43288024  0.43994858  0.36153838  1
  H+  H35  1  0.35210513  0.49791388  1.01186423  1
  H+  H36  1  0.52704781  0.15485946  0.85964069  1
  H+  H37  1  0.89260763  0.82984491  0.93190785  1
  H+  H38  1  0.13788484  1.02013214  0.32507532  1
  H+  H39  1  0.72522832  0.87485944  0.83627110  1
  H+  H40  1  0.36141835  0.88630987  0.33825159  1
  H+  H41  1  0.86372267  0.46926867  0.33960316  1
  H+  H42  1  0.21868071  0.35679321  0.51321857  1
  H+  H43  1  0.52131571  0.13382130  0.34071355  1
  H+  H44  1  0.59594277  0.34607828  0.64900025  1
  H+  H45  1  0.36582543  0.14833891  0.49853827  1
  H+  H46  1  0.38249371  0.36249464  0.66574717  1
  H+  H47  1  0.63066664  0.51592766  0.83019586  1
  H+  H48  1  0.26636301  0.44966944  0.04922914  1
  H+  H49  1  0.27580104  0.14512709  0.49810046  1
  H+  H50  1  0.36891691  0.84854789  0.50717711  1
  H+  H51  1  0.46759060  0.87254679  0.17340025  1
  H+  H52  1  0.60374672  0.17289706  0.76556259  1
  H+  H53  1  0.72472893  0.63763083  1.01746797  1
  H+  H54  1  0.12965778  0.29548175  0.81539765  1
  H+  H55  1  0.86385571  0.39586900  0.83972919  1
  H+  H56  1  0.45606592  0.85088853  0.50483578  1
  H+  H57  1  0.85875384  0.39430957  -0.01031699  1
  H+  H58  1  0.67878634  0.17133205  0.18322465  1
  H+  H59  1  0.33344419  0.37964792  0.84358196  1
  H+  H60  1  0.21179418  0.63968966  0.64652722  1
  H+  H61  1  0.38563702  1.02404346  0.32523394  1
  H+  H62  1  0.78192377  0.15609307  0.12964873  1
  H+  H63  1  0.60883907  0.13689577  0.66912913  1
  H+  H64  1  0.01274306  0.63836515  0.66418034  1
  H+  H65  1  0.85360594  0.88066351  0.67323532  1
  H+  H66  1  0.62314548  0.72959733  0.82443817  1
  H+  H67  1  0.63519051  0.61580172  0.83056462  1
  H+  H68  1  0.24223122  0.12241431  0.99077705  1
  H+  H69  1  0.16873018  0.90670331  0.80480336  1
  H+  H70  1  0.37827865  0.83931375  0.83743325  1
  H+  H71  1  0.14746256  0.76465076  0.32467459  1
  H+  H72  1  0.77266072  0.61722134  0.16888035  1
  H+  H73  1  0.10407879  0.22978459  0.67800015  1
  H+  H74  1  -0.00539266  0.66388438  0.82124223  1
  H+  H75  1  0.63558917  0.09363170  0.87483256  1
  H+  H76  1  -0.02492346  0.10939703  0.33625289  1
  H+  H77  1  0.62829020  0.26515739  0.16250071  1
  H+  H78  1  0.62196869  0.80279952  0.48289841  1
  H+  H79  1  -0.02418053  0.35250275  0.66717548  1
  H+  H80  1  0.12148967  0.35708247  0.31985105  1
  H+  H81  1  0.28226702  0.87700178  0.66518995  1
  H+  H82  1  0.37512344  0.21685670  0.16427320  1
  H+  H83  1  0.22120355  0.35428998  0.97682717  1
  H+  H84  1  0.68384282  0.59042658  0.60017340  1
  H+  H85  1  0.60921613  0.02881094  0.15528373  1
  H+  H86  1  0.65066233  0.62212133  0.31556485  1
  H+  H87  1  -0.03296515  0.87001963  0.66576164  1
  H+  H88  1  0.41577954  0.58073992  0.21264005  1
  H+  H89  1  0.61907190  0.14915390  0.49940265  1
  H+  H90  1  0.16281869  0.11185049  0.83329305  1
  H+  H91  1  0.88241758  0.36100486  0.31995034  1
  H+  H92  1  0.10349802  0.46866524  0.49838025  1
  H+  H93  1  0.63054643  0.39870661  0.33378370  1
  H+  H94  1  0.39604537  0.33843948  0.16756668  1
  H+  H95  1  0.87990436  0.64734236  0.32991307  1
  H+  H96  1  0.87043972  0.23919084  0.13738689  1
  H+  H97  1  0.88880037  1.01308294  -0.00869016  1
  H+  H98  1  0.88316946  0.53225202  0.84777093  1
  H+  H99  1  0.39232319  0.03754695  0.50725220  1
  H+  H100  1  0.34298033  0.17494462  0.06765075  1
  H+  H101  1  0.62863221  0.85076947  0.65409532  1
  H+  H102  1  0.50326998  0.87410195  0.83051483  1
  H+  H103  1  0.27029673  0.38547329  0.67932881  1
  H+  H104  1  0.11158388  0.47848667  0.68149310  1
  H+  H105  1  0.29065935  0.63116289  0.83869705  1
  H+  H106  1  0.11882417  0.88606840  0.34516728  1
  H+  H107  1  0.40528238  -0.00112732  0.79135687  1
  H+  H108  1  0.07053455  0.49510182  0.99556640  1
  H+  H109  1  0.89039091  0.27708794  0.32033507  1
  H+  H110  1  0.83714424  0.24980219  0.70278555  1
  H+  H111  1  0.86187615  0.13852262  0.49248971  1
  H+  H112  1  0.36359376  0.99826874  0.79762401  1
  H+  H113  1  0.86521970  0.70226025  0.17702090  1
  H+  H114  1  0.64063388  0.12163120  0.32748432  1
  H+  H115  1  0.11174565  0.13063804  0.33837471  1
  H+  H116  1  0.83067727  0.86368251  0.83862029  1
  H+  H117  1  -0.06396602  0.10704406  0.65902216  1
  H+  H118  1  0.26237817  0.13369552  0.83524467  1
  H+  H119  1  0.28650312  0.67466810  0.00829610  1
  H+  H120  1  0.59675682  0.25718481  0.64876017  1
  H+  H121  1  0.35168907  0.96373175  0.16210921  1
  H+  H122  1  0.11141920  0.74016176  0.01089728  1
  H+  H123  1  0.21300631  0.60246170  0.50604121  1
  H+  H124  1  0.02194779  0.13252575  0.49531394  1
  H+  H125  1  0.63948564  0.04182231  0.50827747  1
  H+  H126  1  0.77473035  0.38253616  0.33702343  1
  H+  H127  1  0.10982602  0.22194965  0.49933779  1
  H+  H128  1  0.96496837  0.84528492  0.50923023  1
  H+  H129  1  0.76292131  0.87599090  0.67194811  1
  H+  H130  1  0.37187651  0.23489392  0.00681252  1
  H+  H131  1  0.63009432  0.15214931  -0.00641035  1
  H+  H132  1  0.01573963  0.38026805  0.49855858  1
  H+  H133  1  0.87671009  0.01233811  0.83800979  1
  H+  H134  1  0.86709037  0.13781059  0.34365187  1
  H+  H135  1  0.64314933  0.61299008  0.65771795  1
  H+  H136  1  0.64337807  0.90367225  0.34555798  1
  H+  H137  1  0.61824138  0.64796300  0.00179704  1
  H+  H138  1  0.61357711  0.71812172  0.66851310  1
  H+  H139  1  0.12057531  0.99212213  -0.00259667  1
  H+  H140  1  0.38934778  0.27683761  0.66314009  1
  H+  H141  1  0.16106176  0.66221364  0.98922523  1
  H+  H142  1  0.34738436  0.70948879  0.49636329  1
  H+  H143  1  0.85330911  0.88250731  0.32678024  1
  H+  H144  1  0.73448695  0.12490995  0.50603611  1
  H+  H145  1  -0.01232499  0.11328143  0.18393542  1
  H+  H146  1  0.88198127  0.85352342  0.50467747  1
  H+  H147  1  0.83131858  0.40327628  0.09585299  1
  H+  H148  1  0.26033244  0.87686358  0.16402812  1
  H+  H149  1  0.39060042  0.62890609  1.00121008  1
  H+  H150  1  0.12893380  0.35602983  0.51247055  1
  H+  H151  1  0.36949397  -0.01538149  1.01337928  1
  H+  H152  1  0.39692235  0.16493452  0.83063158  1
  H+  H153  1  0.76148204  0.15414494  0.69817329  1
  H+  H154  1  0.35158712  0.47078720  0.50728697  1
  H+  H155  1  0.13908041  0.36763309  0.66743193  1
  H+  H156  1  0.61624080  0.39634282  0.00576979  1
  H+  H157  1  0.64016628  0.37554629  0.83773277  1
  H+  H158  1  0.60380195  0.59983542  0.47155301  1
  H+  H159  1  0.52868191  0.14741472  0.49904572  1
  H+  H160  1  0.18426510  1.00142846  0.80566441  1
  H+  H161  1  0.11866457  0.78091422  0.83448108  1
  H+  H162  1  0.62291330  0.73780887  0.32484370  1
  H+  H163  1  0.77819433  0.89586032  0.02328832  1
  H+  H164  1  0.52766170  0.62665543  0.67461795  1
  H+  H165  1  0.39761165  0.60909052  0.67082255  1
  H+  H166  1  0.77774484  0.39915074  0.83069624  1
  H+  H167  1  0.88116995  1.01791722  0.49865721  1
  H+  H168  1  0.11296823  0.10770198  0.15073203  1
  H+  H169  1  0.11986968  0.62650164  0.82835576  1
  H+  H170  1  0.23661480  0.40838539  0.19809137  1
  H+  H171  1  1.02365618  0.85709329  0.87029494  1
  H+  H172  1  0.72902231  0.61297801  0.83185478  1
  H+  H173  1  0.48818326  0.34703759  0.17551999  1
  H+  H174  1  0.35925108  0.38658089  0.50353752  1
  H+  H175  1  0.61655061  0.46190801  0.16316957  1
  H+  H176  1  0.77367402  0.39581388  1.00334482  1
  H+  H177  1  0.59369744  0.90790029  0.50801387  1
  H+  H178  1  0.10865827  -0.03040933  0.50070192  1
  H+  H179  1  0.52893014  0.39788633  1.00280370  1
  H+  H180  1  0.87111246  0.89814859  0.16087722  1
  H+  H181  1  0.28459453  0.61497562  0.69295999  1
  H+  H182  1  0.28391271  0.12544751  0.15899774  1
  H+  H183  1  0.14035123  0.87847268  -0.00925862  1
  H+  H184  1  0.83411511  0.72611443  0.83646100  1
  H+  H185  1  0.48328243  0.64539251  0.30039870  1
  H+  H186  1  0.62739424  0.96754034  0.67185456  1
  H+  H187  1  0.64858651  0.29028609  0.83662683  1
  H+  H188  1  0.38469631  0.01725167  0.66423798  1
  H+  H189  1  0.77474153  0.87313426  0.48381425  1
  H+  H190  1  0.62125855  0.90709536  0.02670139  1
  H+  H191  1  0.10902239  0.26188876  0.31832983  1
  H+  H192  1  0.90768597  0.38103193  0.66997570  1
  H+  H193  1  0.15618283  0.33173622  0.22953435  1
  H+  H194  1  0.39352848  0.60993390  0.84934854  1
  H+  H195  1  0.11105712  0.21255588  0.99134926  1
  H+  H196  1  0.73016269  0.32083635  0.16647402  1
  H+  H197  1  0.66626131  0.92013922  0.16984922  1
  H+  H198  1  -0.11066843  0.28152642  -0.03772914  1
  H+  H199  1  0.65053715  1.03840227  0.32625154  1
  H+  H200  1  0.64446340  0.28393082  0.99381226  1
  H+  H201  1  0.25674144  0.64787215  0.16319578  1
  H+  H202  1  0.14356796  0.94429006  0.61312562  1
  H+  H203  1  0.22802030  0.87502681  0.99353993  1
  H+  H204  1  0.64688815  0.54273514  1.00477711  1
  H+  H205  1  0.10718464  0.19706541  0.85082520  1
  H+  H206  1  0.90183104  0.50242633  0.68115565  1
  H+  H207  1  0.37508509  0.72600040  0.83706108  1
  H+  H208  1  0.90042787  0.07106236  0.56043031  1
  H+  H209  1  0.10948354  0.88156602  0.49577200  1
  H+  H210  1  0.77905566  0.13380448  0.85567058  1
  H+  H211  1  0.10824217  0.72101712  0.66388837  1
  H+  H212  1  0.22350001  0.11087450  0.32258068  1
  H+  H213  1  0.88540130  0.10732116  0.84246713  1
  H+  H214  1  0.63565892  0.26961756  0.32518401  1
  H+  H215  1  0.09770035  0.90884589  0.60971651  1
  H+  H216  1  0.74009646  0.89636243  0.16735653  1
  H+  H217  1  0.87163546  0.61520916  0.85037517  1
  H+  H218  1  0.64182550  0.73297436  0.50175174  1
  H+  H219  1  0.39296614  0.64000908  0.30600183  1
  H+  H220  1  0.39009898  0.36972401  -0.02122892  1
  H+  H221  1  0.12886450  0.77164340  0.17886575  1
  H+  H222  1  0.10114751  0.34267568  1.00863327  1
  H+  H223  1  0.15690184  0.85614470  0.64198699  1
  H+  H224  1  0.87873523  0.77491408  0.30939119  1
  H+  H225  1  0.88406981  0.59016752  0.17454262  1
  H+  H226  1  0.88318012  0.62160973  0.65725268  1
  H+  H227  1  0.11787883  0.48693436  0.34667958  1
  H+  H228  1  0.14592186  1.00368457  0.16617304  1
  H+  H229  1  0.86274522  0.72987276  0.67754755  1
  H+  H230  1  0.40059728  0.12409735  1.00692120  1
  H+  H231  1  0.85971138  0.75582234  1.02754761  1
  H+  H232  1  0.78090816  0.14493262  0.34059919  1
  H+  H233  1  0.88431705  0.80288251  0.12474681  1
  H+  H234  1  0.74116882  0.38180331  0.68480630  1
  H+  H235  1  0.11520579  0.48053270  0.15581896  1
  H+  H236  1  0.86898802  0.21118712  1.03698562  1
  H+  H237  1  0.13044989  0.62313118  0.17064906  1
  H+  H238  1  0.37220390  0.51318013  0.85407863  1
  H+  H239  1  0.16042303  0.59870600  0.23215742  1
  H+  H240  1  0.86498124  0.37372991  0.15438033  1
  H+  H241  1  0.13613883  0.11098707  0.50968956  1
  H+  H242  1  0.52700236  0.64797119  1.00379235  1
  H+  H243  1  0.02587585  0.64606734  0.00964974  1
  H+  H244  1  0.37652525  0.77421618  0.33433941  1
  H+  H245  1  0.13457338  0.04237352  0.66990595  1
  H+  H246  1  0.09963036  0.59301769  0.80387653  1
  H+  H247  1  0.39258334  0.25349889  0.82585940  1
  H+  H248  1  0.66988378  0.53812188  0.50342177  1
  H+  H249  1  0.64263825  0.59958811  0.16625479  1
  H+  H250  1  0.11622663  0.61182122  0.66041295  1
  H+  H251  1  0.97488080  0.87501549  0.98077221  1
  H+  H252  1  0.88147565  0.27176885  0.86060894  1
  H+  H253  1  0.02639326  0.89498622  0.85392630  1
  H+  H254  1  0.27103198  0.88622100  0.33955795  1
  H+  H255  1  0.64197082  0.28131333  0.50027238  1
  H+  H256  1  0.39504486  0.49547223  0.17617111  1
  H+  H257  1  0.77194819  0.06268078  0.64008131  1
  H+  H258  1  0.52407761  0.38794516  0.82847481  1
  H+  H259  1  0.02301283  0.39631447  0.84146606  1
  H+  H260  1  0.46895365  0.59730115  0.50782428  1
  H+  H261  1  0.78087158  0.76939508  0.89001407  1
  H+  H262  1  0.66584726  0.84209248  1.08655647  1
  H+  H263  1  0.10847529  0.38692640  0.83336232  1
  H+  H264  1  0.52107853  1.00999386  0.13401259  1
  H+  H265  1  0.25980651  0.64288725  0.34417460  1
  H+  H266  1  0.96265313  0.61197604  0.49046238  1
  H+  H267  1  0.03846512  0.48910065  -0.02856607  1
  H+  H268  1  0.53956498  0.40681753  0.49511085  1
  H+  H269  1  0.59712106  0.67145154  0.76413984  1
  H+  H270  1  0.39430987  1.10867892  0.16518036  1
  H+  H271  1  0.86072307  0.47882993  0.51251571  1
  H+  H272  1  0.64771008  1.03206163  -0.02411434  1
  H+  H273  1  0.28051487  0.14309359  0.67960563  1
  H+  H274  1  0.35718256  0.73948064  0.16455694  1
  H+  H275  1  0.25541393  0.82959084  0.82315635  1
  H+  H276  1  0.16856486  0.83496280  0.89586852  1
  H+  H277  1  0.12866738  0.86109167  0.17940352  1
  H+  H278  1  0.75276794  0.35844799  0.66176101  1
  H+  H279  1  0.91229744  0.83133651  0.60297023  1
  H+  H280  1  0.01889564  0.11718374  0.83315370  1
  H+  H281  1  0.68838523  0.20268870  0.80103463  1
  H+  H282  1  0.81580216  0.70009786  0.50580056  1
  H+  H283  1  0.87894984  0.27244986  0.51359416  1
  H+  H284  1  0.01725431  0.62766206  0.15961095  1
  H+  H285  1  0.89620490  0.53342639  1.00035440  1
  H+  H286  1  0.62418701  0.39947846  0.49390907  1
  H+  H287  1  0.41698476  0.37042083  0.81394889  1
  H+  H288  1  0.58170562  0.16630394  0.40034036  1
  H+  H289  1  0.44180207  0.10283921  0.95094628  1
  H+  H290  1  0.66940530  0.85228650  0.25816441  1
  H+  H291  1  0.67096913  0.31490348  0.26235124  1
  H+  H292  1  0.86827908  0.60317722  0.49657930  1
  H+  H293  1  0.86523697  0.89162378  0.00620318  1
  H+  H294  1  0.38704308  0.45402837  0.41697122  1
  H+  H295  1  0.86334398  1.00903487  0.65833394  1
  H+  H296  1  0.42277207  0.34208509  0.92044984  1
  H+  H297  1  0.81906150  0.17590258  0.79114865  1
  H+  H298  1  0.42504817  0.34249696  0.56747248  1
  H+  H299  1  0.08389299  0.86283301  0.10693082  1
  H+  H300  1  0.91139598  0.32761694  0.57674498  1
  H+  H301  1  0.34662374  0.66732611  0.74650812  1
  H+  H302  1  0.60713324  0.43286971  0.39340456  1
  H+  H303  1  0.08781416  0.16191692  0.40034633  1
  H+  H304  1  0.39754829  0.87919531  0.99488093  1
  H+  H305  1  0.83404109  0.90964099  0.42501046  1
  H+  H306  1  0.16388552  0.33377538  0.60682162  1
  H+  H307  1  0.41063625  0.58619681  0.94210959  1
  H+  H308  1  0.63755476  0.78199316  1.02829120  1
  H+  H309  1  0.26884689  0.33893287  0.14559222  1
  H+  H310  1  0.16940301  0.08790575  0.56992417  1
  H+  H311  1  0.83375353  0.68719179  0.08410192  1
  H+  H312  1  0.51701939  0.55842409  0.43112210  1
  H+  H313  1  0.90901452  0.59210908  0.59430795  1
  H+  H314  1  0.58278464  0.40918820  0.10267735  1
  H+  H315  1  0.87880942  0.44823966  0.74340710  1
  H+  H316  1  0.58478703  0.66763847  0.37816612  1
  H+  H317  1  0.17935664  0.81790983  0.58566265  1
  H+  H318  1  0.51896445  0.39381022  0.67515547  1
  H+  H319  1  0.09531259  0.94070680  0.73848127  1
  H+  H320  1  0.82036499  0.90800476  0.77212936  1
  H+  H321  1  0.19351902  0.09185769  0.92583588  1
  H+  H322  1  0.08356174  0.42229745  0.74229236  1
  H+  H323  1  0.07930653  0.93451593  0.05694160  1
  H+  H324  1  0.58779839  0.65339807  0.09670848  1
  H+  H325  1  0.08299530  0.65272180  0.42160690  1
  H+  H326  1  0.22413347  0.85056388  0.48853316  1
  H+  H327  1  0.42113792  0.58227817  0.57281255  1
  H+  H328  1  0.91831669  0.07103344  0.92395083  1
  H+  H329  1  0.58503179  0.95994099  0.06347291  1
  H+  H330  1  0.16681278  0.82976184  0.27027498  1
  H+  H331  1  0.07584333  0.16667193  0.73490621  1
  H+  H332  1  0.44082700  0.06984235  0.85325374  1
  H+  H333  1  0.99025547  0.10437751  0.98396080  1
  H+  H334  1  0.32491374  0.41251200  0.74110825  1
  H+  H335  1  0.32004394  0.65643117  0.40047352  1
  H+  H336  1  0.07727021  0.13609280  0.09462735  1
  H+  H337  1  0.58583413  0.42029067  0.76706861  1
  H+  H338  1  0.91524990  0.33055119  0.22789732  1
  H+  H339  1  0.57062206  0.90643814  0.76273505  1
  H+  H340  1  0.12246888  0.39581420  0.16214971  1
  H+  H341  1  -0.03587131  0.27341016  0.01313309  1
  H+  H342  1  0.64383472  0.32643517  0.56366754  1
  H+  H343  1  0.31565442  0.86092694  0.76359074  1
  H+  H344  1  0.66131080  0.84316404  0.89434573  1
  H+  H345  1  0.68806608  0.11174765  0.23090450  1
  H+  H346  1  0.70499482  0.07815594  0.60236809  1
  H+  H347  1  0.38134167  0.75028597  0.01788560  1
  H+  H348  1  0.17056313  0.06513329  0.22511967  1
  H+  H349  1  0.66960682  0.34462178  0.93489696  1
  H+  H350  1  0.65715910  0.81758573  0.59455488  1
  H+  H351  1  0.33035513  0.91527688  0.06707786  1
  H+  H352  1  0.05124889  0.68978743  0.76010262  1
  H+  H353  1  0.41836770  0.08778785  0.57082752  1
  H+  H354  1  0.67386652  0.57830517  0.22957375  1
  H+  H355  1  0.92276052  0.59486567  0.94328224  1
  H+  H356  1  0.73239237  0.87214074  0.31612749  1
  H+  H357  1  0.49055205  0.88571184  -0.00537592  1
  H+  H358  1  0.60645949  0.88353154  0.82556313  1
  H+  H359  1  0.19474055  0.62144780  0.93720068  1
  H+  H360  1  0.42901022  0.84405417  0.90399740  1
  H+  H361  1  0.86240105  0.97661506  0.33742748  1
  H+  H362  1  0.42202317  0.08469687  0.26740455  1
  H+  H363  1  0.41174182  0.83299632  0.27588782  1
  H+  H364  1  0.10389975  0.42798852  0.40332466  1
  H+  H365  1  0.34805482  0.17444686  0.73552675  1
  H+  H366  1  0.34836157  0.92958771  0.42137154  1
  H+  H367  1  0.41208754  0.81932585  0.60120117  1
  H+  H368  1  0.32530069  0.68211192  0.09842994  1
  H+  H369  1  0.08008515  0.67144169  0.10136229  1
  H+  H370  1  0.37297742  0.88328985  0.67098063  1
  H+  H371  1  0.92185737  0.08699715  0.27429293  1
  H+  H372  1  0.40980456  0.33991290  0.27217052  1
  H+  H373  1  0.14989624  0.57851706  0.56359978  1
  H+  H374  1  0.33084251  0.16878096  0.39989651  1
  H+  H375  1  0.75967959  0.38151035  0.51920541  1
  H+  H376  1  0.84880707  0.93706014  0.10425947  1
  H+  H377  1  0.15912512  0.32153351  0.91710459  1
  H+  H378  1  0.70274972  0.98002508  0.38815227  1
  H+  H379  1  0.22671231  0.52359858  0.90151706  1
  H+  H380  1  0.92200116  0.56887883  0.26339347  1
  H+  H381  1  0.08702495  0.91766212  0.40146899  1
  H+  H382  1  0.89464169  0.82815634  0.24748945  1
  H+  H383  1  0.82994524  0.67178813  0.77346585  1
  O2-  O384  1  0.07695748  0.13291001  0.13912593  1
  O2-  O385  1  0.08341358  0.16196313  0.48313307  1
  O2-  O386  1  0.08161749  0.14902172  0.82210777  1
  O2-  O387  1  0.08774523  0.41972280  0.14361805  1
  O2-  O388  1  0.07635191  0.40757623  0.48500502  1
  O2-  O389  1  0.07998463  0.42344015  0.82169004  1
  O2-  O390  1  0.07881932  0.66727029  0.14721381  1
  O2-  O391  1  0.07536714  0.65815420  0.46593588  1
  O2-  O392  1  0.03895126  0.71300074  0.79697240  1
  O2-  O393  1  0.07696758  0.89664223  0.13870734  1
  O2-  O394  1  0.07552649  0.90920842  0.48572454  1
  O2-  O395  1  0.17179611  0.95297764  0.77788826  1
  O2-  O396  1  0.34479431  0.15794241  0.14373658  1
  O2-  O397  1  0.33602407  0.17809354  0.48243147  1
  O2-  O398  1  0.36239698  0.18758953  0.81212873  1
  O2-  O399  1  0.32903188  0.36727437  0.13173247  1
  O2-  O400  1  0.32279394  0.41135972  0.49079980  1
  O2-  O401  1  0.31289485  0.41243720  0.82061791  1
  O2-  O402  1  0.31933245  0.67943547  0.14606388  1
  O2-  O403  1  0.31788926  0.64891441  0.48232315  1
  O2-  O404  1  0.34740911  0.66792395  0.81818795  1
  O2-  O405  1  0.32070637  0.90309178  0.14754181  1
  O2-  O406  1  0.36889055  0.93836592  0.46651375  1
  O2-  O407  1  0.30418138  0.82765465  0.80161867  1
  O2-  O408  1  0.49247569  0.09079898  0.15339940  1
  O2-  O409  1  0.58755628  0.17581834  0.48080265  1
  O2-  O410  1  0.62784759  0.18477876  0.80792707  1
  O2-  O411  1  0.58458910  0.40200139  0.14733228  1
  O2-  O412  1  0.60077096  0.43707233  0.48166442  1
  O2-  O413  1  0.58869869  0.42350881  0.81262165  1
  O2-  O414  1  0.58600529  0.64174743  0.14073631  1
  O2-  O415  1  0.55815509  0.61053360  0.45678846  1
  O2-  O416  1  0.59989788  0.67049162  0.80938146  1
  O2-  O417  1  0.55652601  0.98142310  0.13465163  1
  O2-  O418  1  0.56292774  0.92649052  0.48123213  1
  O2-  O419  1  0.56865023  0.90669492  0.80881673  1
  O2-  O420  1  0.83840729  0.18880606  0.11011445  1
  O2-  O421  1  0.83318611  0.17157234  0.48000913  1
  O2-  O422  1  0.83439190  0.16686725  0.83368901  1
  O2-  O423  1  0.82768539  0.39856583  0.14110113  1
  O2-  O424  1  0.82823191  0.41490366  0.52140642  1
  O2-  O425  1  0.84011199  0.42873749  0.81959818  1
  O2-  O426  1  0.83676138  0.64521621  0.15803193  1
  O2-  O427  1  0.78569420  0.63904742  0.49189711  1
  O2-  O428  1  0.81983574  0.66633154  0.81829417  1
  O2-  O429  1  0.84211683  0.93131938  0.14921251  1
  O2-  O430  1  0.83489772  0.90972747  0.47114257  1
  O2-  O431  1  0.81802322  0.91223193  0.81704980  1
  O2-  O432  1  0.17824072  0.06473170  0.18004954  1
  O2-  O433  1  0.16824390  0.08230920  0.52481216  1
  O2-  O434  1  0.20150567  0.09223037  0.84899980  1
  O2-  O435  1  0.18416275  0.35565987  0.18759539  1
  O2-  O436  1  0.15817363  0.32548895  0.52927213  1
  O2-  O437  1  0.15598860  0.33998953  0.84630254  1
  O2-  O438  1  0.16595670  0.59754630  0.18729128  1
  O2-  O439  1  0.15115357  0.57644090  0.51845482  1
  O2-  O440  1  0.20483238  0.55561213  0.87941088  1
  O2-  O441  1  0.16167232  0.83178942  0.19455209  1
  O2-  O442  1  0.16894272  0.81962796  0.50943117  1
  O2-  O443  1  0.17325928  0.83233560  0.85095314  1
  O2-  O444  1  0.41592855  0.07072822  0.18430716  1
  O2-  O445  1  0.42224325  0.09566602  0.52559323  1
  O2-  O446  1  0.46647551  0.12663828  0.87214836  1
  O2-  O447  1  0.42620494  0.31344094  0.19003645  1
  O2-  O448  1  0.42793032  0.34658644  0.52223119  1
  O2-  O449  1  0.43281057  0.34210034  0.84494059  1
  O2-  O450  1  0.41404026  0.55633658  0.17130700  1
  O2-  O451  1  0.41334560  0.58093020  0.52777611  1
  O2-  O452  1  0.40762377  0.57121131  0.87221681  1
  O2-  O453  1  0.40971228  0.83286784  0.18972706  1
  O2-  O454  1  0.39759282  0.81738783  0.52266145  1
  O2-  O455  1  0.42813932  0.83429776  0.85850445  1
  O2-  O456  1  0.68641304  0.12037680  0.18636522  1
  O2-  O457  1  0.67658037  0.09816117  0.52738383  1
  O2-  O458  1  0.67038291  0.06944876  0.89032545  1
  O2-  O459  1  0.67733012  0.27313926  0.18651726  1
  O2-  O460  1  0.66942775  0.33952068  0.51995323  1
  O2-  O461  1  0.67336669  0.34832416  0.85428934  1
  O2-  O462  1  0.67475082  0.57176762  0.18405477  1
  O2-  O463  1  0.69762993  0.60057205  0.51728211  1
  O2-  O464  1  0.66335668  0.57993158  0.84412852  1
  O2-  O465  1  0.67644703  0.87200888  0.17375190  1
  O2-  O466  1  0.65896475  0.79306239  0.51024450  1
  O2-  O467  1  0.66091412  0.84397091  0.85001600  1
  O2-  O468  1  0.93062170  0.09234537  0.20341577  1
  O2-  O469  1  0.90827026  0.07734197  0.51544847  1
  O2-  O470  1  0.91363949  0.07323876  0.85388012  1
  O2-  O471  1  0.91902427  0.33256660  0.18152383  1
  O2-  O472  1  0.90790665  0.33192687  0.53108580  1
  O2-  O473  1  0.90992674  0.33411833  0.87266503  1
  O2-  O474  1  0.91805650  0.56162190  0.18582592  1
  O2-  O475  1  0.90580089  0.58134292  0.51126288  1
  O2-  O476  1  0.90919600  0.59219359  0.86361690  1
  O2-  O477  1  0.91652114  0.83286774  0.16176333  1
  O2-  O478  1  0.90453212  0.81868401  0.52420657  1
  O2-  O479  1  0.83654197  0.80073992  0.86973349  1
  O2-  O480  1  0.16404996  0.07875658  0.30585265  1
  O2-  O481  1  0.17255870  0.10014947  0.65213652  1
  O2-  O482  1  0.18416987  0.09174501  0.97087779  1
  O2-  O483  1  0.11446902  0.30962418  0.29289036  1
  O2-  O484  1  0.16703527  0.33499047  0.65258005  1
  O2-  O485  1  0.16314117  0.31213869  0.96243754  1
  O2-  O486  1  0.14718183  0.60980428  0.31799883  1
  O2-  O487  1  0.15483872  0.58878511  0.64469203  1
  O2-  O488  1  0.21253758  0.66559944  0.96912969  1
  O2-  O489  1  0.17062118  0.82635407  0.31580095  1
  O2-  O490  1  0.18116350  0.81981401  0.63143892  1
  O2-  O491  1  0.16796288  0.84487404  0.97779630  1
  O2-  O492  1  0.41909899  0.08560854  0.31241481  1
  O2-  O493  1  0.41667064  0.07840173  0.65002848  1
  O2-  O494  1  0.43091505  0.09231521  0.99516750  1
  O2-  O495  1  0.39010052  0.34324081  0.31349008  1
  O2-  O496  1  0.41664516  0.33750661  0.64852320  1
  O2-  O497  1  0.41940692  0.33896653  0.96648057  1
  O2-  O498  1  0.43469049  0.64102695  0.27661577  1
  O2-  O499  1  0.42375812  0.57698259  0.65253114  1
  O2-  O500  1  0.41468765  0.59223140  0.98852952  1
  O2-  O501  1  0.40820187  0.83532390  0.32059430  1
  O2-  O502  1  0.42255598  0.82537366  0.64604825  1
  O2-  O503  1  0.42996873  0.85079556  0.97957838  1
  O2-  O504  1  0.67659323  0.09768844  0.31097434  1
  O2-  O505  1  0.71707217  0.06303784  0.64347595  1
  O2-  O506  1  0.67639208  0.09013551  0.95564654  1
  O2-  O507  1  0.66773306  0.32727176  0.30597768  1
  O2-  O508  1  0.59492887  0.30054915  0.62243208  1
  O2-  O509  1  0.66980968  0.34558783  0.98012250  1
  O2-  O510  1  0.68331867  0.59314377  0.30390750  1
  O2-  O511  1  0.67574477  0.58360684  0.64482647  1
  O2-  O512  1  0.67429000  0.60329671  0.99108647  1
  O2-  O513  1  0.67010020  0.84628631  0.30306260  1
  O2-  O514  1  0.65927166  0.82061793  0.63941632  1
  O2-  O515  1  0.66914157  0.84477076  1.04159936  1
  O2-  O516  1  0.91455525  0.08160797  0.32073711  1
  O2-  O517  1  0.88077211  0.06668488  0.63988284  1
  O2-  O518  1  0.92539508  0.07274860  0.97052151  1
  O2-  O519  1  0.91231521  0.33294893  0.29995969  1
  O2-  O520  1  0.91594129  0.33226627  0.65377984  1
  O2-  O521  1  0.88056116  0.33012627  0.93567660  1
  O2-  O522  1  0.92618450  0.57701903  0.30860686  1
  O2-  O523  1  0.91374101  0.59289821  0.63914550  1
  O2-  O524  1  0.92915228  0.59483729  0.98820406  1
  O2-  O525  1  0.88637881  0.82960345  0.29145522  1
  O2-  O526  1  0.90863899  0.83250324  0.64849796  1
  O2-  O527  1  0.91154660  0.84259011  0.97626865  1
  O2-  O528  1  0.08025721  0.15096226  0.00485787  1
  O2-  O529  1  0.08136459  0.15982648  0.35548592  1
  O2-  O530  1  0.07118552  0.16784660  0.69024798  1
  O2-  O531  1  0.05671108  0.35296446  0.02641274  1
  O2-  O532  1  0.13263960  0.44554760  0.36337098  1
  O2-  O533  1  0.08749185  0.41939744  0.69692213  1
  O2-  O534  1  0.08738371  0.68027769  0.02602073  1
  O2-  O535  1  0.10583707  0.64839688  0.33929078  1
  O2-  O536  1  0.07199499  0.66338444  0.68235651  1
  O2-  O537  1  0.08269823  0.93160825  0.01195360  1
  O2-  O538  1  0.09527554  0.92308129  0.35699490  1
  O2-  O539  1  0.05253350  0.94692897  0.71049887  1
  O2-  O540  1  0.34220365  0.17480770  0.02184309  1
  O2-  O541  1  0.32778973  0.16725273  0.35475198  1
  O2-  O542  1  0.34270987  0.16975802  0.68993318  1
  O2-  O543  1  0.30631223  0.43815932  0.02672987  1
  O2-  O544  1  0.43777377  0.48468425  0.39052596  1
  O2-  O545  1  0.33051744  0.41440283  0.69575909  1
  O2-  O546  1  0.34242098  0.68995954  0.03177376  1
  O2-  O547  1  0.32059972  0.66693991  0.35610463  1
  O2-  O548  1  0.34301640  0.66180372  0.70005815  1
  O2-  O549  1  0.33594465  0.92137573  0.02193058  1
  O2-  O550  1  0.33287363  0.92025649  0.35300246  1
  O2-  O551  1  0.33924089  0.91003020  0.68541073  1
  O2-  O552  1  0.60763710  0.18400331  0.01612234  1
  O2-  O553  1  0.58241753  0.16356922  0.35520553  1
  O2-  O554  1  0.57696136  0.15959013  0.69049862  1
  O2-  O555  1  0.58647831  0.42678227  0.02170562  1
  O2-  O556  1  0.60868417  0.43610722  0.34877758  1
  O2-  O557  1  0.57999952  0.41890328  0.68923222  1
  O2-  O558  1  0.58848037  0.68078368  0.01554547  1
  O2-  O559  1  0.59241366  0.67522188  0.33385093  1
  O2-  O560  1  0.58999968  0.65955830  0.68625727  1
  O2-  O561  1  0.59409412  0.94356812  0.02155827  1
  O2-  O562  1  0.64286088  0.94712663  0.37511603  1
  O2-  O563  1  0.58616135  0.90916112  0.68813726  1
  O2-  O564  1  0.90403083  0.23048262  -0.00147613  1
  O2-  O565  1  0.83862679  0.16986907  0.35990873  1
  O2-  O566  1  0.78944973  0.20299816  0.72673240  1
  O2-  O567  1  0.83511426  0.42137999  0.01672556  1
  O2-  O568  1  0.83326915  0.40929202  0.35481298  1
  O2-  O569  1  0.90885165  0.45894386  0.70377998  1
  O2-  O570  1  0.81724930  0.72303155  0.05980632  1
  O2-  O571  1  0.85242815  0.68057644  0.34271571  1
  O2-  O572  1  0.83566908  0.66987755  0.69364359  1
  O2-  O573  1  0.84254186  0.92897709  0.02348589  1
  O2-  O574  1  0.82704533  0.91407378  0.34911978  1
  O2-  O575  1  0.82196050  0.90962527  0.68891258  1
