# generated using pymatgen
data_H2O
_symmetry_space_group_name_H-M   'P 1'
_cell_length_a   17.94528811
_cell_length_b   17.94576788
_cell_length_c   21.97645326
_cell_angle_alpha   90.01059972
_cell_angle_beta   90.06204793
_cell_angle_gamma   119.99110068
_symmetry_Int_Tables_number   1
_chemical_formula_structural   H2O
_chemical_formula_sum   'H384 O192'
_cell_volume   6129.70039907
_cell_formula_units_Z   192
loop_
 _symmetry_equiv_pos_site_id
 _symmetry_equiv_pos_as_xyz
  1  'x, y, z'
loop_
 _atom_type_symbol
 _atom_type_oxidation_number
  H+  1.0
  O2-  -2.0
loop_
 _atom_site_type_symbol
 _atom_site_label
 _atom_site_symmetry_multiplicity
 _atom_site_fract_x
 _atom_site_fract_y
 _atom_site_fract_z
 _atom_site_occupancy
  H+  H0  1  0.61667944  0.02131066  0.17227888  1
  H+  H1  1  0.71540549  0.86138829  0.17235349  1
  H+  H2  1  0.97933453  0.09684882  0.83220919  1
  H+  H3  1  0.63857398  0.60796781  0.84437104  1
  H+  H4  1  0.86612439  0.72313257  1.00771395  1
  H+  H5  1  0.42403296  0.55751152  0.49578562  1
  H+  H6  1  0.41831691  0.07770538  0.91073728  1
  H+  H7  1  0.20715355  0.81490314  0.68508268  1
  H+  H8  1  0.96993084  0.84551558  0.67877398  1
  H+  H9  1  0.38970580  0.27690084  0.32556738  1
  H+  H10  1  0.32371477  0.67155522  0.10129280  1
  H+  H11  1  0.35273840  0.64420043  0.16232339  1
  H+  H12  1  0.35860916  0.63391084  0.01066416  1
  H+  H13  1  0.96169411  0.09356446  0.31918382  1
  H+  H14  1  0.61314049  0.72845337  0.32913392  1
  H+  H15  1  0.88116105  0.27271221  0.18808488  1
  H+  H16  1  0.11058872  0.49515176  0.49285495  1
  H+  H17  1  0.72435938  0.36181803  0.98914783  1
  H+  H18  1  0.88681144  0.75987608  0.84881295  1
  H+  H19  1  0.63516596  0.10921609  0.83683146  1
  H+  H20  1  0.16250786  0.08853667  0.25318895  1
  H+  H21  1  0.43420469  0.73905128  0.68705711  1
  H+  H22  1  0.87660594  0.28052888  0.64218441  1
  H+  H23  1  0.61279211  0.10869306  0.16705892  1
  H+  H24  1  0.90985162  0.12570949  -0.01882766  1
  H+  H25  1  0.52726397  0.64851126  0.00323166  1
  H+  H26  1  0.70898596  0.60875226  0.65764110  1
  H+  H27  1  0.13780185  0.27987861  0.17194046  1
  H+  H28  1  0.25403719  0.87110394  0.35699278  1
  H+  H29  1  0.52753090  0.12842388  0.83303229  1
  H+  H30  1  0.84379391  0.13220157  0.19345100  1
  H+  H31  1  0.71542120  0.34998061  0.16334264  1
  H+  H32  1  0.43354496  0.82813580  0.60846351  1
  H+  H33  1  0.81912348  0.64909291  0.59770931  1
  H+  H34  1  0.11038756  0.72542954  0.49563202  1
  H+  H35  1  0.37319855  -0.03380802  1.00710142  1
  H+  H36  1  0.35580126  0.48665766  0.16383353  1
  H+  H37  1  0.12786404  0.98280874  0.34000273  1
  H+  H38  1  0.39045846  0.51939173  0.85061135  1
  H+  H39  1  0.07667462  0.77687670  0.46023594  1
  H+  H40  1  0.13966524  0.86526024  0.32435915  1
  H+  H41  1  0.60462067  0.47912392  0.99526918  1
  H+  H42  1  0.64112620  0.86034415  0.32893253  1
  H+  H43  1  0.86919186  0.50260314  0.64718384  1
  H+  H44  1  0.53881717  0.10136660  -0.00581807  1
  H+  H45  1  0.54219958  0.15458158  0.09275200  1
  H+  H46  1  0.04118154  0.01438721  0.49084078  1
  H+  H47  1  0.09915737  0.11721140  0.32537903  1
  H+  H48  1  0.62436860  0.40321693  0.32347096  1
  H+  H49  1  0.77250913  0.15109977  0.48456200  1
  H+  H50  1  0.39467950  0.28080141  0.51382697  1
  H+  H51  1  0.49387443  0.36546646  0.84258749  1
  H+  H52  1  0.67441184  0.81656275  0.60751552  1
  H+  H53  1  0.90884076  0.28152656  0.96839020  1
  H+  H54  1  0.85591366  0.61571221  0.64799289  1
  H+  H55  1  0.64726470  0.28373874  0.32443486  1
  H+  H56  1  0.89007142  0.09405741  0.84817485  1
  H+  H57  1  0.13840895  0.53102613  0.33115509  1
  H+  H58  1  0.88742006  0.61003868  0.99821742  1
  H+  H59  1  0.35998933  0.72291048  0.00470629  1
  H+  H60  1  0.84693889  0.39847051  0.50701716  1
  H+  H61  1  0.85563187  0.38058409  0.16016871  1
  H+  H62  1  0.50962354  0.88334454  0.16214983  1
  H+  H63  1  0.14101038  0.26507017  0.65239896  1
  H+  H64  1  0.14639882  0.86496549  0.99978456  1
  H+  H65  1  0.52324927  0.63076346  0.83863603  1
  H+  H66  1  0.60715441  0.39539743  0.49856931  1
  H+  H67  1  0.74982451  0.82805102  0.69136725  1
  H+  H68  1  0.39969381  0.84562002  0.67180057  1
  H+  H69  1  0.84804829  0.98358059  0.65702444  1
  H+  H70  1  0.82157227  0.16990139  -0.00997434  1
  H+  H71  1  0.89869483  0.35551962  0.32795213  1
  H+  H72  1  0.85422471  0.72778288  0.33135333  1
  H+  H73  1  0.64739709  0.03041729  0.50581673  1
  H+  H74  1  0.83736102  0.66671664  1.06851713  1
  H+  H75  1  0.84591592  0.38385538  0.64870525  1
  H+  H76  1  0.37769631  0.38777532  0.83963603  1
  H+  H77  1  0.97185583  0.36108238  0.17102024  1
  H+  H78  1  0.38962582  0.10886542  0.85021999  1
  H+  H79  1  0.64517071  0.52304448  0.15926699  1
  H+  H80  1  0.66082294  0.02753406  0.65642780  1
  H+  H81  1  0.77923023  0.63298733  0.83637747  1
  H+  H82  1  0.07241412  0.03469560  0.46500255  1
  H+  H83  1  0.89308227  0.18437664  0.66888081  1
  H+  H84  1  0.16798735  0.57629296  0.56854255  1
  H+  H85  1  0.38802864  0.85872904  0.99051531  1
  H+  H86  1  0.62159527  1.03246038  0.00207724  1
  H+  H87  1  0.71140264  0.83931014  0.50547942  1
  H+  H88  1  0.88578178  0.37287562  0.42850701  1
  H+  H89  1  0.61048726  0.72469118  0.68317177  1
  H+  H90  1  0.61372592  0.63033807  0.32094900  1
  H+  H91  1  -0.03270596  0.32949010  0.79843131  1
  H+  H92  1  0.86973848  0.63711241  0.15396699  1
  H+  H93  1  0.37452661  0.22652152  0.83666408  1
  H+  H94  1  0.47603036  0.85509185  -0.00621640  1
  H+  H95  1  0.14801175  1.00975445  0.66801274  1
  H+  H96  1  0.74682739  0.62386969  0.48884160  1
  H+  H97  1  0.33903517  0.60717346  0.67462282  1
  H+  H98  1  0.36352759  0.97013626  0.51809225  1
  H+  H99  1  0.96849814  0.63925631  0.49555459  1
  H+  H100  1  0.17955546  0.34782517  0.26973959  1
  H+  H101  1  0.24421691  0.39646102  0.97959841  1
  H+  H102  1  0.86713444  0.63095958  0.83723623  1
  H+  H103  1  0.17795310  0.17135681  1.02377047  1
  H+  H104  1  1.03673299  0.89557442  1.02094437  1
  H+  H105  1  0.11575775  0.88186677  0.83817311  1
  H+  H106  1  0.86262907  -0.01226112  1.00984381  1
  H+  H107  1  0.36213839  0.11323985  0.01580935  1
  H+  H108  1  0.00369504  0.35977135  0.66070936  1
  H+  H109  1  0.54658060  0.21515015  0.64368727  1
  H+  H110  1  0.84764555  -0.03280771  0.16423922  1
  H+  H111  1  0.28228900  0.87837914  1.00188728  1
  H+  H112  1  0.77607560  0.13935424  0.32856782  1
  H+  H113  1  0.88618417  0.75321127  0.65933878  1
  H+  H114  1  0.95247629  0.10239207  0.17864060  1
  H+  H115  1  0.41565553  0.53897096  1.00663672  1
  H+  H116  1  0.22106856  0.61559940  0.17479644  1
  H+  H117  1  0.54846595  0.88864794  0.67183374  1
  H+  H118  1  0.50877137  0.65330517  0.50172398  1
  H+  H119  1  0.62411151  0.38278334  0.82647078  1
  H+  H120  1  0.53511651  0.88666124  0.49920338  1
  H+  H121  1  0.85386636  0.81035733  0.57409122  1
  H+  H122  1  0.39062017  0.52757438  0.32799102  1
  H+  H123  1  0.71787007  0.62357159  0.31512991  1
  H+  H124  1  0.87495430  0.10108100  0.32489612  1
  H+  H125  1  0.03522307  0.24859890  0.42357523  1
  H+  H126  1  0.28479394  0.38154552  0.83518468  1
  H+  H127  1  0.03223467  0.08890723  0.11301274  1
  H+  H128  1  0.87609668  0.12342474  0.49579889  1
  H+  H129  1  0.47657955  0.10814603  0.51142754  1
  H+  H130  1  0.11433269  0.72990211  0.68467898  1
  H+  H131  1  0.11897833  0.72769613  0.83277993  1
  H+  H132  1  1.00549728  0.15610292  0.64422786  1
  H+  H133  1  0.10362793  0.25869410  0.47097254  1
  H+  H134  1  0.22559309  0.61352946  0.99005459  1
  H+  H135  1  0.40011267  0.86426778  0.52217767  1
  H+  H136  1  0.39075060  0.12636400  0.32590459  1
  H+  H137  1  -0.02218732  0.61117678  -0.00161641  1
  H+  H138  1  0.38840042  0.61665706  0.32858810  1
  H+  H139  1  0.60497858  0.92088056  0.73147127  1
  H+  H140  1  0.11427001  0.63522519  0.00389730  1
  H+  H141  1  0.48376669  0.86630193  0.83567969  1
  H+  H142  1  0.91755449  0.55911542  0.26338992  1
  H+  H143  1  0.00173459  0.88274492  0.51636031  1
  H+  H144  1  0.29585209  0.50679118  0.67467017  1
  H+  H145  1  0.75864333  0.13983922  0.19170141  1
  H+  H146  1  0.14111995  0.38503984  0.50790210  1
  H+  H147  1  -0.07745363  0.83792424  0.26471768  1
  H+  H148  1  0.51435937  0.65854024  0.69684340  1
  H+  H149  1  0.27005294  0.02252528  0.54002397  1
  H+  H150  1  0.62976033  0.76773026  0.84551107  1
  H+  H151  1  0.87347020  -0.00933776  0.68579046  1
  H+  H152  1  0.17139588  0.83012502  0.90378127  1
  H+  H153  1  0.84991610  0.48729134  0.51608504  1
  H+  H154  1  0.63754633  0.62012069  0.99585553  1
  H+  H155  1  0.40326821  0.04394457  0.31311848  1
  H+  H156  1  -0.01911754  0.59687309  0.32017539  1
  H+  H157  1  0.10380283  0.86075017  0.68818041  1
  H+  H158  1  0.11394127  0.46566268  0.81604539  1
  H+  H159  1  0.11738576  0.21856118  0.82179944  1
  H+  H160  1  0.61633742  0.14170392  0.49495092  1
  H+  H161  1  0.37611726  0.77152773  0.32305667  1
  H+  H162  1  0.45878905  0.10809248  0.66433860  1
  H+  H163  1  0.01857680  0.40981529  0.47992938  1
  H+  H164  1  0.67155884  0.13349799  0.99279147  1
  H+  H165  1  0.11258813  0.63668431  0.16289337  1
  H+  H166  1  0.72749644  0.35237917  0.83858798  1
  H+  H167  1  0.18289285  0.97804543  0.50354802  1
  H+  H168  1  0.82710842  0.71657079  0.49034016  1
  H+  H169  1  1.02829050  0.39128025  1.00380810  1
  H+  H170  1  0.63584051  0.63478742  0.51513770  1
  H+  H171  1  0.88140332  0.51766590  0.16336065  1
  H+  H172  1  0.63165135  0.97892045  0.34173025  1
  H+  H173  1  0.18834708  0.30202879  1.00483149  1
  H+  H174  1  0.38675879  0.28724221  0.66522845  1
  H+  H175  1  0.48328039  0.50832200  0.07069118  1
  H+  H176  1  0.60832953  0.47649956  0.67839555  1
  H+  H177  1  0.87088346  0.23070111  0.72418384  1
  H+  H178  1  0.77236120  0.89501682  0.00550945  1
  H+  H179  1  0.99412077  0.59482838  0.67319134  1
  H+  H180  1  0.47577148  0.37376230  0.66482863  1
  H+  H181  1  0.33907085  0.93349152  0.67947412  1
  H+  H182  1  0.45277110  0.43081324  0.02123698  1
  H+  H183  1  0.06010790  0.88502823  0.48689956  1
  H+  H184  1  0.53400160  0.15356502  0.33788766  1
  H+  H185  1  0.17496920  0.64924238  0.52642997  1
  H+  H186  1  0.51767381  0.63522585  0.32857866  1
  H+  H187  1  0.16386602  0.08990279  0.37616128  1
  H+  H188  1  0.34674120  0.17210749  0.39877413  1
  H+  H189  1  1.02509459  0.88024728  0.83774698  1
  H+  H190  1  0.27535979  0.13097618  0.34410282  1
  H+  H191  1  0.13734898  0.86675473  0.17995020  1
  H+  H192  1  0.13204543  0.52490067  0.17583389  1
  H+  H193  1  0.24702062  0.15939857  0.16271266  1
  H+  H194  1  0.11726486  0.38987682  0.00893032  1
  H+  H195  1  0.84230969  0.97753851  0.48929148  1
  H+  H196  1  0.23034754  0.38223688  0.50555600  1
  H+  H197  1  0.33711386  0.67203565  0.39795315  1
  H+  H198  1  0.16683506  0.32611176  0.89551414  1
  H+  H199  1  0.14367823  1.02250280  0.84567632  1
  H+  H200  1  0.37238674  0.72749350  0.83206694  1
  H+  H201  1  0.36408800  0.41390677  0.67764162  1
  H+  H202  1  0.72132686  0.85423823  0.84574121  1
  H+  H203  1  0.66812787  0.57961417  0.90367017  1
  H+  H204  1  0.11109707  0.72503681  0.15999703  1
  H+  H205  1  0.73996364  0.12284146  0.65850456  1
  H+  H206  1  0.14249564  0.60868798  0.83534917  1
  H+  H207  1  0.61909101  0.60851791  0.66771887  1
  H+  H208  1  0.87047710  0.45826008  0.83310609  1
  H+  H209  1  0.37373182  0.78072509  0.17126436  1
  H+  H210  1  0.97295096  0.60602789  0.16516647  1
  H+  H211  1  0.29296486  0.14338420  0.67879765  1
  H+  H212  1  0.20411512  0.55404005  0.65452778  1
  H+  H213  1  0.37429548  0.28664630  0.17006752  1
  H+  H214  1  0.59092771  0.22044011  0.14896353  1
  H+  H215  1  0.22725430  0.36808590  0.16647503  1
  H+  H216  1  0.59991261  0.48860285  0.50133598  1
  H+  H217  1  0.09305317  0.44613477  0.66161941  1
  H+  H218  1  0.51813100  0.38510495  0.15355344  1
  H+  H219  1  0.78723777  0.37359345  0.34667228  1
  H+  H220  1  0.02396719  0.89000208  0.16846425  1
  H+  H221  1  0.64608933  0.87569192  0.99658954  1
  H+  H222  1  0.36650497  0.97530115  0.83579208  1
  H+  H223  1  0.36111456  0.89560884  0.17073782  1
  H+  H224  1  0.11652641  0.64518810  0.34228983  1
  H+  H225  1  0.62895955  0.35491310  0.16485146  1
  H+  H226  1  0.28456428  0.63655311  0.82460208  1
  H+  H227  1  0.38242511  0.65354037  0.48638070  1
  H+  H228  1  0.39994910  0.77626305  0.51158660  1
  H+  H229  1  0.40305262  0.83628059  0.23345608  1
  H+  H230  1  0.77901265  0.63583504  0.15279871  1
  H+  H231  1  0.71267936  0.37621144  0.51128581  1
  H+  H232  1  0.33334997  0.95828631  0.37934440  1
  H+  H233  1  0.61510384  0.21695397  0.82853993  1
  H+  H234  1  0.23417703  0.10246576  0.99979528  1
  H+  H235  1  0.23815520  0.81113314  0.53880484  1
  H+  H236  1  0.26564629  0.89265096  0.17267095  1
  H+  H237  1  0.11331650  0.34485341  0.65339939  1
  H+  H238  1  0.29727180  0.13773029  0.49493679  1
  H+  H239  1  0.39084454  0.61009559  0.84823614  1
  H+  H240  1  0.09289486  0.92722754  0.11461897  1
  H+  H241  1  -0.01980647  0.60540237  0.84877314  1
  H+  H242  1  0.36995870  0.88690407  0.83430696  1
  H+  H243  1  0.43435866  0.10990577  0.57631274  1
  H+  H244  1  0.59085478  0.73261209  0.15903455  1
  H+  H245  1  0.96276333  0.12522345  0.48668811  1
  H+  H246  1  0.65403351  0.86294764  0.66435805  1
  H+  H247  1  0.23187813  0.86071884  0.84464373  1
  H+  H248  1  0.86058662  0.86921694  0.83993908  1
  H+  H249  1  0.69261911  0.99217637  0.05309871  1
  H+  H250  1  0.61831565  0.73556604  0.00560181  1
  H+  H251  1  0.89328000  0.86555849  0.32546836  1
  H+  H252  1  0.23315016  0.11203916  0.84383413  1
  H+  H253  1  0.45753952  0.11276014  0.16488541  1
  H+  H254  1  0.37057908  0.39454166  0.34214844  1
  H+  H255  1  0.27412255  0.63746330  0.33989121  1
  H+  H256  1  0.36897836  0.85543374  0.32975679  1
  H+  H257  1  0.60762490  0.22675132  0.49331608  1
  H+  H258  1  0.12473084  -0.01681185  1.01719866  1
  H+  H259  1  0.28859505  0.64459948  0.49560288  1
  H+  H260  1  0.11068638  0.39127559  0.15892925  1
  H+  H261  1  0.10584906  0.16981190  0.72611348  1
  H+  H262  1  0.12045601  0.13153540  0.82316021  1
  H+  H263  1  0.85190084  0.16915448  -0.09818919  1
  H+  H264  1  0.60104984  0.88412830  0.16749009  1
  H+  H265  1  0.13755512  0.52406082  -0.00935056  1
  H+  H266  1  0.13657604  0.13905274  0.66706801  1
  H+  H267  1  0.62463242  0.47374032  0.82965903  1
  H+  H268  1  0.45296153  0.35005760  0.90815266  1
  H+  H269  1  0.84475909  0.82349008  0.69815105  1
  H+  H270  1  0.75801896  0.38627346  0.65136323  1
  H+  H271  1  0.36306827  0.39781466  0.49832087  1
  H+  H272  1  0.92892982  0.84729188  0.52324979  1
  H+  H273  1  0.94960375  0.37273074  0.92830168  1
  H+  H274  1  0.13549100  0.77229686  0.32404736  1
  H+  H275  1  0.15229523  0.37986105  0.32821886  1
  H+  H276  1  0.36145826  -0.00274704  0.17246266  1
  H+  H277  1  0.88054570  0.85750680  0.17019767  1
  H+  H278  1  0.64086973  0.11922343  0.32773529  1
  H+  H279  1  0.57165147  0.40745653  0.09157146  1
  H+  H280  1  0.12356921  0.57618898  0.66335493  1
  H+  H281  1  0.09241666  0.11514906  0.17103029  1
  H+  H282  1  0.38838265  0.15087061  0.49806160  1
  H+  H283  1  0.53172307  0.39570490  0.32589057  1
  H+  H284  1  0.86758262  0.38641235  0.00093289  1
  H+  H285  1  0.45960511  0.62163965  0.17009650  1
  H+  H286  1  0.91709271  0.57202204  0.90571374  1
  H+  H287  1  0.39313026  0.17116036  0.67195128  1
  H+  H288  1  0.89458894  0.06429559  0.23832047  1
  H+  H289  1  0.81234636  0.66562636  0.38788746  1
  H+  H290  1  0.34555305  0.43507891  0.74358449  1
  H+  H291  1  0.63024674  0.52954264  0.31199711  1
  H+  H292  1  0.67619253  0.33560926  0.26264691  1
  H+  H293  1  0.87812336  0.45844575  0.34296190  1
  H+  H294  1  0.16563764  0.58969895  0.27160627  1
  H+  H295  1  0.66926683  0.58811797  0.21423005  1
  H+  H296  1  0.60600086  0.92022538  0.40139329  1
  H+  H297  1  0.90402477  0.33503044  0.57953392  1
  H+  H298  1  0.97502191  0.95805559  0.60117070  1
  H+  H299  1  0.13843081  0.77190198  0.99655500  1
  H+  H300  1  0.08554216  0.66354130  0.06543711  1
  H+  H301  1  0.33807432  0.42701928  0.43692257  1
  H+  H302  1  0.35721304  0.43323075  0.10665954  1
  H+  H303  1  0.66425567  0.83867884  0.93413711  1
  H+  H304  1  0.80727995  0.85798862  0.75996770  1
  H+  H305  1  0.93132393  0.33691476  0.26538319  1
  H+  H306  1  0.32966421  0.89724748  0.74652925  1
  H+  H307  1  0.32684982  0.15153953  0.06898429  1
  H+  H308  1  0.32180947  0.90151982  0.46380928  1
  H+  H309  1  0.66539805  0.32649256  0.89665581  1
  H+  H310  1  0.16874650  0.76602411  0.59124222  1
  H+  H311  1  0.67897616  0.09041997  0.56479391  1
  H+  H312  1  0.16945230  0.83352892  0.23662210  1
  H+  H313  1  0.17072743  0.08482878  0.94247283  1
  H+  H314  1  0.86299864  0.47223538  0.00704053  1
  H+  H315  1  0.91715173  0.57719003  0.59318304  1
  H+  H316  1  0.79217286  0.15908400  0.08472880  1
  H+  H317  1  0.03303992  0.89006325  0.33463839  1
  H+  H318  1  0.87246193  0.62021713  0.49973172  1
  H+  H319  1  0.94340354  0.13785820  0.58728492  1
  H+  H320  1  0.87112045  0.22369030  0.32901305  1
  H+  H321  1  0.88826529  0.77205674  0.16881189  1
  H+  H322  1  0.09154192  0.43004716  0.40011081  1
  H+  H323  1  0.96803082  0.98494855  0.57824136  1
  H+  H324  1  0.60127548  0.93458376  0.08161575  1
  H+  H325  1  0.58009614  0.66184555  0.77786634  1
  H+  H326  1  0.40140811  0.68148952  0.74702250  1
  H+  H327  1  0.72465113  0.84941445  0.32482521  1
  H+  H328  1  0.82219174  0.91312755  0.10245849  1
  H+  H329  1  0.85142788  -0.03603165  0.33709841  1
  H+  H330  1  0.02312875  0.55843917  0.72754319  1
  H+  H331  1  0.40707281  0.09485765  0.22775460  1
  H+  H332  1  0.82159073  0.90644985  0.39708848  1
  H+  H333  1  0.08380239  0.90279429  0.74549890  1
  H+  H334  1  0.34837827  0.17425113  0.77428050  1
  H+  H335  1  0.39102346  0.38009406  0.17809934  1
  H+  H336  1  0.58754734  0.41613447  0.73834955  1
  H+  H337  1  0.82753710  0.40550999  0.09737958  1
  H+  H338  1  0.16997558  0.57578182  0.89263861  1
  H+  H339  1  0.08108869  0.42151435  0.10007939  1
  H+  H340  1  0.64045134  0.33659749  0.56020052  1
  H+  H341  1  0.87658460  0.29363764  0.46771177  1
  H+  H342  1  0.82807326  0.17174811  0.42218669  1
  H+  H343  1  0.03348092  0.39181086  0.33944829  1
  H+  H344  1  0.61645569  0.97950570  0.82434684  1
  H+  H345  1  0.50742984  0.38978393  0.50659074  1
  H+  H346  1  0.41546838  0.33634748  0.26608884  1
  H+  H347  1  0.58827096  0.17488258  0.39967647  1
  H+  H348  1  0.41761731  0.58316427  0.94135377  1
  H+  H349  1  0.61973601  0.36505114  0.66021685  1
  H+  H350  1  0.65008703  0.07140422  0.89775228  1
  H+  H351  1  0.26554654  0.21857716  0.10485243  1
  H+  H352  1  0.07778062  0.66346295  0.77551798  1
  H+  H353  1  0.72454615  0.61456860  0.99856366  1
  H+  H354  1  0.13257592  0.02513793  0.19554005  1
  H+  H355  1  0.83722860  0.88588048  0.49538796  1
  H+  H356  1  0.18765587  0.05529635  0.60559068  1
  H+  H357  1  0.86202503  0.36848066  0.80987320  1
  H+  H358  1  0.97637546  0.94086600  0.96153952  1
  H+  H359  1  0.41872247  0.34159711  0.57487770  1
  H+  H360  1  0.16059726  0.33159848  0.58988444  1
  H+  H361  1  0.61547645  0.88907989  0.82604571  1
  H+  H362  1  0.07818004  0.68355866  0.39348174  1
  H+  H363  1  0.10330733  0.90098805  0.41857907  1
  H+  H364  1  0.91796437  0.82938514  0.90548141  1
  H+  H365  1  0.77675183  0.12317298  0.85044790  1
  H+  H366  1  0.65969837  0.83184928  0.23364830  1
  H+  H367  1  0.42719355  0.83458399  0.89749231  1
  H+  H368  1  0.61709932  0.87708669  0.49958155  1
  H+  H369  1  0.64649910  0.58354672  0.57075862  1
  H+  H370  1  0.56606379  0.67487586  0.09922565  1
  H+  H371  1  0.89199878  0.89167147  -0.00163241  1
  H+  H372  1  0.65800284  0.08547511  0.26559428  1
  H+  H373  1  0.63508603  0.36083803  0.98522590  1
  H+  H374  1  0.86375143  0.96040889  0.82895909  1
  H+  H375  1  0.14142323  0.35567315  0.83398396  1
  H+  H376  1  0.93481372  0.07264376  0.93830146  1
  H+  H377  1  0.40496042  0.58842933  0.23234227  1
  H+  H378  1  0.14325753  0.19963106  0.08045667  1
  H+  H379  1  0.07610395  0.17378135  0.36809371  1
  H+  H380  1  0.28264952  0.39755294  0.34107104  1
  H+  H381  1  0.80052947  0.12177339  0.08411979  1
  H+  H382  1  0.88178852  0.24334678  0.81834414  1
  H+  H383  1  0.08584655  0.40405117  0.75727056  1
  O2-  O384  1  0.06180336  0.13540891  0.14244410  1
  O2-  O385  1  0.05849982  0.21586621  0.44320778  1
  O2-  O386  1  0.08973319  0.15941867  0.80397491  1
  O2-  O387  1  0.07877032  0.42071696  0.14570519  1
  O2-  O388  1  0.08220117  0.43392827  0.47906771  1
  O2-  O389  1  0.08707694  0.40459873  0.80250658  1
  O2-  O390  1  0.08239347  0.66538568  0.14376365  1
  O2-  O391  1  0.06656977  0.71696694  0.46408195  1
  O2-  O392  1  0.08751072  0.66547763  0.81969517  1
  O2-  O393  1  0.08745646  0.92380890  0.15998042  1
  O2-  O394  1  0.11112561  0.88833835  0.46283886  1
  O2-  O395  1  0.08586679  0.91281511  0.82288443  1
  O2-  O396  1  0.29374881  0.19989562  0.13524651  1
  O2-  O397  1  0.35643212  0.17963636  0.48164883  1
  O2-  O398  1  0.34221632  0.16728585  0.81953655  1
  O2-  O399  1  0.33237479  0.42590749  0.14833415  1
  O2-  O400  1  0.33495920  0.42924320  0.48244072  1
  O2-  O401  1  0.34684325  0.41805266  0.82520164  1
  O2-  O402  1  0.32271358  0.67520479  0.14671288  1
  O2-  O403  1  0.34553832  0.68039057  0.47610327  1
  O2-  O404  1  0.34778726  0.66691625  0.81719026  1
  O2-  O405  1  0.32914451  0.92791646  0.16015908  1
  O2-  O406  1  0.33218473  0.90714565  0.50839635  1
  O2-  O407  1  0.33629154  0.91435914  0.81954048  1
  O2-  O408  1  0.55454499  0.15806160  0.13694048  1
  O2-  O409  1  0.58122867  0.16656002  0.47856187  1
  O2-  O410  1  0.58633360  0.15520629  0.81601806  1
  O2-  O411  1  0.57748402  0.41004503  0.13650469  1
  O2-  O412  1  0.57104476  0.42565504  0.48859935  1
  O2-  O413  1  0.59405541  0.41474630  0.81157335  1
  O2-  O414  1  0.55317047  0.67346009  0.14315040  1
  O2-  O415  1  0.62010652  0.71743594  0.50284496  1
  O2-  O416  1  0.58414480  0.66332836  0.82333080  1
  O2-  O417  1  0.57155845  0.91428288  0.14914932  1
  O2-  O418  1  0.59579834  0.91483272  0.48430576  1
  O2-  O419  1  0.58650422  0.91856975  0.80744682  1
  O2-  O420  1  0.82063860  0.17102556  0.20196805  1
  O2-  O421  1  0.83232993  0.18323979  0.46727452  1
  O2-  O422  1  0.84038514  0.15245575  0.85552656  1
  O2-  O423  1  0.82341970  0.40794023  0.14273648  1
  O2-  O424  1  0.81474285  0.42486173  0.52457731  1
  O2-  O425  1  0.83058199  0.39904607  0.81922303  1
  O2-  O426  1  0.84171432  0.67035984  0.13899887  1
  O2-  O427  1  0.80741543  0.65777334  0.47418636  1
  O2-  O428  1  0.84107782  0.66627415  0.82470845  1
  O2-  O429  1  0.82006595  0.90683789  0.14776391  1
  O2-  O430  1  0.81044206  0.91655318  0.47520682  1
  O2-  O431  1  0.82738204  0.89600537  0.82196277  1
  O2-  O432  1  0.15452802  0.08615148  0.20833090  1
  O2-  O433  1  0.22052394  0.02899342  0.53007006  1
  O2-  O434  1  0.17240520  0.08390018  0.85885015  1
  O2-  O435  1  0.16711945  0.34052577  0.18330504  1
  O2-  O436  1  0.16832524  0.35025741  0.51962143  1
  O2-  O437  1  0.17029823  0.32454443  0.85060354  1
  O2-  O438  1  0.16135911  0.58502447  0.19221771  1
  O2-  O439  1  0.17834874  0.59602170  0.52499451  1
  O2-  O440  1  0.17166676  0.57592708  0.84710416  1
  O2-  O441  1  0.16896220  0.83557084  0.19066244  1
  O2-  O442  1  0.18661039  0.75625108  0.55055440  1
  O2-  O443  1  0.17012187  0.82926210  0.85801962  1
  O2-  O444  1  0.39804433  0.08150150  0.18343360  1
  O2-  O445  1  0.41930783  0.08441224  0.53162217  1
  O2-  O446  1  0.41647555  0.07506889  0.86474400  1
  O2-  O447  1  0.41701318  0.34367246  0.18826296  1
  O2-  O448  1  0.42108377  0.34174401  0.52831482  1
  O2-  O449  1  0.43694041  0.33864742  0.86423483  1
  O2-  O450  1  0.39856058  0.58813847  0.18718003  1
  O2-  O451  1  0.44439701  0.61854057  0.50320731  1
  O2-  O452  1  0.42080892  0.58048639  0.86585194  1
  O2-  O453  1  0.40608409  0.84133101  0.18704110  1
  O2-  O454  1  0.43273985  0.83433682  0.53192143  1
  O2-  O455  1  0.42339998  0.83437706  0.85200541  1
  O2-  O456  1  0.64432321  0.08226000  0.18614090  1
  O2-  O457  1  0.67403459  0.09155765  0.51868615  1
  O2-  O458  1  0.66325300  0.07526672  0.85387026  1
  O2-  O459  1  0.65486599  0.31993102  0.17903662  1
  O2-  O460  1  0.64725496  0.34310154  0.51454176  1
  O2-  O461  1  0.66527928  0.32526457  0.85073979  1
  O2-  O462  1  0.68035892  0.58453317  0.17058280  1
  O2-  O463  1  0.64817767  0.58686099  0.52521223  1
  O2-  O464  1  0.66993448  0.57819055  0.85824798  1
  O2-  O465  1  0.65531753  0.83620862  0.18838845  1
  O2-  O466  1  0.65708133  0.80457750  0.52944896  1
  O2-  O467  1  0.66019549  0.82991037  0.85867010  1
  O2-  O468  1  0.89222094  0.06780492  0.19203372  1
  O2-  O469  1  0.90779439  0.09330474  0.50907310  1
  O2-  O470  1  0.92175471  0.06096797  0.85112365  1
  O2-  O471  1  0.91438425  0.33771430  0.19054181  1
  O2-  O472  1  0.90448320  0.35810629  0.46738135  1
  O2-  O473  1  0.90498534  0.29472443  0.79006264  1
  O2-  O474  1  0.91203328  0.57807822  0.17910398  1
  O2-  O475  1  0.91213730  0.60070039  0.51558253  1
  O2-  O476  1  0.91857898  0.57125660  0.86024062  1
  O2-  O477  1  0.91628251  0.83265843  0.18473214  1
  O2-  O478  1  0.86122538  0.81425904  0.52972712  1
  O2-  O479  1  0.91702356  0.82430949  0.86064326  1
  O2-  O480  1  0.17504377  0.07708438  0.33506999  1
  O2-  O481  1  0.18023743  0.06725720  0.64850744  1
  O2-  O482  1  0.17134784  0.08303379  0.98772858  1
  O2-  O483  1  0.18525734  0.35201783  0.31439615  1
  O2-  O484  1  0.15529561  0.32490105  0.63650609  1
  O2-  O485  1  0.18598156  0.34711555  0.97908939  1
  O2-  O486  1  0.16857407  0.59256053  0.31706040  1
  O2-  O487  1  0.14362893  0.54236987  0.64034906  1
  O2-  O488  1  0.16573903  0.58332825  0.97284690  1
  O2-  O489  1  0.17262621  0.83501673  0.31194624  1
  O2-  O490  1  0.14802643  0.78804637  0.66749154  1
  O2-  O491  1  0.17140684  0.83223526  0.98064394  1
  O2-  O492  1  0.42810797  0.10501036  0.30477561  1
  O2-  O493  1  0.45767800  0.15093726  0.63767615  1
  O2-  O494  1  0.41737605  0.07001864  0.98851619  1
  O2-  O495  1  0.41833560  0.33768827  0.31168561  1
  O2-  O496  1  0.41645240  0.34675759  0.64741356  1
  O2-  O497  1  0.48325690  0.38491323  0.98673365  1
  O2-  O498  1  0.41935937  0.58780456  0.31091664  1
  O2-  O499  1  0.28566022  0.55400901  0.66143292  1
  O2-  O500  1  0.42043726  0.59161503  0.98676313  1
  O2-  O501  1  0.39623931  0.82970653  0.30544009  1
  O2-  O502  1  0.43996158  0.82915829  0.65406353  1
  O2-  O503  1  0.41935276  0.82623820  0.97482692  1
  O2-  O504  1  0.66880358  0.08795982  0.31024336  1
  O2-  O505  1  0.68375966  0.08574374  0.63888668  1
  O2-  O506  1  0.62333462  0.08022535  0.97740241  1
  O2-  O507  1  0.68180279  0.34297680  0.30756024  1
  O2-  O508  1  0.64814917  0.33904760  0.63357190  1
  O2-  O509  1  0.66559807  0.33104018  0.97155094  1
  O2-  O510  1  0.65631996  0.59251901  0.29836659  1
  O2-  O511  1  0.64652916  0.57769684  0.64846802  1
  O2-  O512  1  0.66505156  0.58629758  0.98175703  1
  O2-  O513  1  0.66344614  0.82265728  0.31021108  1
  O2-  O514  1  0.67810394  0.82412388  0.65279967  1
  O2-  O515  1  0.66999332  0.84084337  0.97991558  1
  O2-  O516  1  0.89760642  0.06314770  0.30988912  1
  O2-  O517  1  0.96519422  0.17145401  0.62544481  1
  O2-  O518  1  0.92825716  0.08068710  0.98207809  1
  O2-  O519  1  0.93355601  0.33039517  0.31081428  1
  O2-  O520  1  0.90822828  0.34104722  0.62367140  1
  O2-  O521  1  0.93670023  0.35224139  0.97012312  1
  O2-  O522  1  0.92521456  0.54816263  0.30630816  1
  O2-  O523  1  0.91073443  0.56954605  0.63817893  1
  O2-  O524  1  0.91662925  0.57834159  0.98408159  1
  O2-  O525  1  0.92680263  0.83870006  0.31000752  1
  O2-  O526  1  0.90893820  0.81673466  0.66364345  1
  O2-  O527  1  0.93922184  0.88382593  0.97876927  1
  O2-  O528  1  0.18890722  0.22257797  0.04925532  1
  O2-  O529  1  0.06334189  0.14501645  0.32817446  1
  O2-  O530  1  0.11162202  0.17487149  0.68055063  1
  O2-  O531  1  0.08824433  0.42152030  0.02258874  1
  O2-  O532  1  0.09409993  0.42833946  0.35481711  1
  O2-  O533  1  0.06330240  0.38421516  0.67721063  1
  O2-  O534  1  0.08454697  0.66588255  0.01990081  1
  O2-  O535  1  0.08275432  0.67514689  0.34895659  1
  O2-  O536  1  0.04695783  0.60759723  0.69985316  1
  O2-  O537  1  0.09701347  0.92324069  0.03507729  1
  O2-  O538  1  0.09405907  0.91544282  0.34853912  1
  O2-  O539  1  0.07929583  0.89746405  0.69987073  1
  O2-  O540  1  0.32401013  0.13800873  0.02546201  1
  O2-  O541  1  0.34076536  0.16725710  0.35372769  1
  O2-  O542  1  0.35089301  0.18541645  0.69402295  1
  O2-  O543  1  0.43219522  0.46880346  0.04734742  1
  O2-  O544  1  0.34345486  0.42757504  0.35810527  1
  O2-  O545  1  0.33920824  0.44389902  0.69992207  1
  O2-  O546  1  0.32618494  0.66383203  0.02233636  1
  O2-  O547  1  0.33614434  0.66750982  0.35243710  1
  O2-  O548  1  0.42898918  0.68659172  0.70677133  1
  O2-  O549  1  0.34287242  0.90231916  0.01524876  1
  O2-  O550  1  0.30922446  0.89642760  0.38240395  1
  O2-  O551  1  0.32060307  0.88010148  0.70176914  1
  O2-  O552  1  0.50522366  0.12530598  0.01312641  1
  O2-  O553  1  0.59329477  0.17878631  0.35424452  1
  O2-  O554  1  0.61460527  0.25096236  0.65460676  1
  O2-  O555  1  0.57273342  0.41660673  0.00750906  1
  O2-  O556  1  0.59379675  0.43448876  0.33451463  1
  O2-  O557  1  0.58103575  0.41550861  0.69230878  1
  O2-  O558  1  0.58755487  0.67446566  0.01935695  1
  O2-  O559  1  0.58140872  0.66377350  0.34036854  1
  O2-  O560  1  0.57285479  0.66552586  0.69963923  1
  O2-  O561  1  0.63265427  0.95595684  0.04066278  1
  O2-  O562  1  0.60940008  0.91943664  0.35643884  1
  O2-  O563  1  0.60952840  0.91765532  0.68607061  1
  O2-  O564  1  0.87449744  0.19403745  -0.03324914  1
  O2-  O565  1  0.83536966  0.16423191  0.34632639  1
  O2-  O566  1  0.85053042  0.20054712  0.68414086  1
  O2-  O567  1  0.83290151  0.41023812  0.01914045  1
  O2-  O568  1  0.84729998  0.39860681  0.36148846  1
  O2-  O569  1  0.81849060  0.41545022  0.66590253  1
  O2-  O570  1  0.83348699  0.66372544  0.02167440  1
  O2-  O571  1  0.81162418  0.66786199  0.34307408  1
  O2-  O572  1  0.82385144  0.64917600  0.64200198  1
  O2-  O573  1  0.83051268  0.92557952  0.02521098  1
  O2-  O574  1  0.82630290  0.90307715  0.35196189  1
  O2-  O575  1  0.79112397  0.82077332  0.72047656  1
