# generated using pymatgen
data_H2O
_symmetry_space_group_name_H-M   'P 1'
_cell_length_a   17.99253806
_cell_length_b   17.98477766
_cell_length_c   21.98935866
_cell_angle_alpha   90.02092223
_cell_angle_beta   90.00779191
_cell_angle_gamma   119.99152816
_symmetry_Int_Tables_number   1
_chemical_formula_structural   H2O
_chemical_formula_sum   'H384 O192'
_cell_volume   6162.79480751
_cell_formula_units_Z   192
loop_
 _symmetry_equiv_pos_site_id
 _symmetry_equiv_pos_as_xyz
  1  'x, y, z'
loop_
 _atom_type_symbol
 _atom_type_oxidation_number
  H+  1.0
  O2-  -2.0
loop_
 _atom_site_type_symbol
 _atom_site_label
 _atom_site_symmetry_multiplicity
 _atom_site_fract_x
 _atom_site_fract_y
 _atom_site_fract_z
 _atom_site_occupancy
  H+  H0  1  1.05083415  0.12302339  0.66383311  1
  H+  H1  1  0.96946766  0.61058287  0.15225319  1
  H+  H2  1  0.47804435  0.62163827  0.66195939  1
  H+  H3  1  0.10784352  0.13828107  0.17330972  1
  H+  H4  1  0.35433033  0.63862339  0.33613335  1
  H+  H5  1  0.18460559  0.36367384  0.84296802  1
  H+  H6  1  0.97917239  0.86450139  0.17485172  1
  H+  H7  1  0.46089907  0.86202512  0.84191953  1
  H+  H8  1  0.82616198  0.92785346  0.43544869  1
  H+  H9  1  0.73333180  0.36734664  0.49574351  1
  H+  H10  1  0.57714412  0.41703850  0.70484044  1
  H+  H11  1  0.58819772  0.94990907  0.34619668  1
  H+  H12  1  0.03333865  0.89582659  0.82091850  1
  H+  H13  1  0.86477872  0.26384713  0.67399140  1
  H+  H14  1  0.15897004  0.34740076  0.66839707  1
  H+  H15  1  0.46944990  0.11696919  0.50272274  1
  H+  H16  1  0.25261816  0.11673473  0.65970394  1
  H+  H17  1  0.88393037  0.85987279  0.67785877  1
  H+  H18  1  0.62828556  0.36846533  0.85706862  1
  H+  H19  1  0.77392949  0.61660665  0.00642944  1
  H+  H20  1  0.37991021  0.34446620  0.65191536  1
  H+  H21  1  0.98959787  0.19846562  0.83974171  1
  H+  H22  1  0.35813366  0.62924200  0.16901290  1
  H+  H23  1  0.72764734  0.87297806  0.66501721  1
  H+  H24  1  0.97592761  0.36314111  0.17013168  1
  H+  H25  1  0.36943639  0.63606705  1.01768468  1
  H+  H26  1  0.60936129  0.22452017  0.33979631  1
  H+  H27  1  0.61348628  0.22899903  0.48947283  1
  H+  H28  1  0.25169598  0.35109079  0.66288072  1
  H+  H29  1  0.63446605  0.51717316  0.98803745  1
  H+  H30  1  0.97562385  0.00576559  0.61095744  1
  H+  H31  1  0.66234798  0.83334763  0.23331332  1
  H+  H32  1  0.39125626  0.10629120  0.69616199  1
  H+  H33  1  0.11786717  0.80119248  0.65668866  1
  H+  H34  1  0.76547477  0.62272164  0.15887501  1
  H+  H35  1  0.50523283  0.37470105  0.99289553  1
  H+  H36  1  0.35474469  0.68519297  0.73712583  1
  H+  H37  1  0.68413641  0.59579086  0.79675756  1
  H+  H38  1  0.61006863  0.13871580  0.49415153  1
  H+  H39  1  0.73100403  0.36751214  0.32397501  1
  H+  H40  1  0.38383703  0.38280029  0.83008389  1
  H+  H41  1  0.02907797  0.63132254  0.83527910  1
  H+  H42  1  0.85629340  0.72930019  0.68655869  1
  H+  H43  1  0.13035640  0.76319712  0.84971879  1
  H+  H44  1  0.38411916  0.85352083  1.07530077  1
  H+  H45  1  0.12024785  0.74542182  0.33417926  1
  H+  H46  1  0.62762887  0.90658392  0.66992686  1
  H+  H47  1  0.84153330  0.92997002  0.00803145  1
  H+  H48  1  0.38520486  0.01378633  0.69783034  1
  H+  H49  1  0.13001130  0.85115242  0.84301311  1
  H+  H50  1  0.71141119  0.27976827  0.97034368  1
  H+  H51  1  1.02849132  0.64843039  1.04360638  1
  H+  H52  1  0.46880574  0.61241095  0.32208066  1
  H+  H53  1  0.13976408  0.87955396  0.50520835  1
  H+  H54  1  0.88126605  0.11021641  0.31639784  1
  H+  H55  1  0.71845158  0.10767046  0.17114663  1
  H+  H56  1  0.35796424  0.38830253  1.01654124  1
  H+  H57  1  0.80532521  0.66132024  0.84171946  1
  H+  H58  1  0.77094641  0.85464380  0.83239093  1
  H+  H59  1  0.25723238  0.86840848  0.83739943  1
  H+  H60  1  0.48358792  0.36976190  0.49766298  1
  H+  H61  1  0.04951511  0.37273418  0.67538110  1
  H+  H62  1  0.59737020  -0.00842355  0.82315950  1
  H+  H63  1  0.36182654  0.73412034  0.33472773  1
  H+  H64  1  0.87031881  0.48068453  0.32979241  1
  H+  H65  1  0.89132523  0.52401409  0.84692345  1
  H+  H66  1  0.60485395  0.22069997  0.66531643  1
  H+  H67  1  0.13544819  0.46160322  0.68165768  1
  H+  H68  1  0.63204766  1.01497647  0.17153026  1
  H+  H69  1  0.35507987  0.88699752  0.49646976  1
  H+  H70  1  1.03455760  0.65304447  0.33040950  1
  H+  H71  1  0.11576939  0.60271209  0.01524861  1
  H+  H72  1  0.52494439  0.38914736  0.20515557  1
  H+  H73  1  0.36449513  0.73299764  0.02989858  1
  H+  H74  1  0.38149846  1.02912855  0.50257385  1
  H+  H75  1  0.46377759  0.60907287  1.00393777  1
  H+  H76  1  0.63485721  1.01188552  0.66134338  1
  H+  H77  1  0.34955839  0.95084503  0.83444931  1
  H+  H78  1  0.37640840  0.65983362  0.67133378  1
  H+  H79  1  0.72385032  0.61599018  0.65970685  1
  H+  H80  1  0.62802225  1.02232862  0.50634049  1
  H+  H81  1  0.90375120  0.07350696  0.22419349  1
  H+  H82  1  0.35898568  0.63948544  0.48640761  1
  H+  H83  1  0.59484992  0.95838280  0.00781191  1
  H+  H84  1  0.88820467  0.62257513  0.49229725  1
  H+  H85  1  0.33728888  0.17607713  0.24706126  1
  H+  H86  1  0.99753029  0.65326844  0.64785811  1
  H+  H87  1  0.47017463  0.34880714  0.64269462  1
  H+  H88  1  0.35134812  0.47382159  0.16758298  1
  H+  H89  1  0.85845891  0.22354428  0.33864518  1
  H+  H90  1  0.25096372  0.37773118  0.16656886  1
  H+  H91  1  0.85917975  0.22303830  0.49182753  1
  H+  H92  1  0.31999901  0.41271018  0.10401347  1
  H+  H93  1  0.62861471  0.78243486  0.51572294  1
  H+  H94  1  0.15748310  0.61448110  0.82035609  1
  H+  H95  1  0.57356640  0.65192702  0.10673023  1
  H+  H96  1  0.56522036  0.41469545  0.91163377  1
  H+  H97  1  0.02139420  0.13970288  0.16466200  1
  H+  H98  1  0.88184845  0.02265732  0.31807608  1
  H+  H99  1  0.22256872  0.36318232  0.32647183  1
  H+  H100  1  0.59601818  0.88863210  0.49701240  1
  H+  H101  1  0.84654520  0.67086857  0.77684436  1
  H+  H102  1  0.14718329  0.86803647  0.17166085  1
  H+  H103  1  0.63405135  0.12671905  0.84382225  1
  H+  H104  1  0.09245455  0.50821356  0.99708528  1
  H+  H105  1  0.60061537  0.21048306  0.01422687  1
  H+  H106  1  0.61247975  0.87716164  0.16364602  1
  H+  H107  1  0.36632389  0.83116855  0.85590513  1
  H+  H108  1  0.64342763  0.52968183  0.49974005  1
  H+  H109  1  0.91179668  0.88192546  0.84396634  1
  H+  H110  1  0.36902942  0.39046442  0.48818345  1
  H+  H111  1  0.87960418  0.47707185  0.00500598  1
  H+  H112  1  0.36268802  -0.03402897  0.96982659  1
  H+  H113  1  0.73571934  0.08332206  0.32131853  1
  H+  H114  1  0.37513069  0.76882752  0.66369433  1
  H+  H115  1  0.38246906  0.14159963  0.32537032  1
  H+  H116  1  0.13194512  0.26936270  0.17524620  1
  H+  H117  1  0.85691759  0.88831326  0.34092987  1
  H+  H118  1  1.04043256  0.90644244  0.50059789  1
  H+  H119  1  0.40834917  0.56082891  0.80604539  1
  H+  H120  1  0.36370361  0.85844477  0.65946705  1
  H+  H121  1  0.60974619  0.48108397  0.65022298  1
  H+  H122  1  0.70612193  0.34700016  0.65761139  1
  H+  H123  1  0.11172672  0.47893556  0.15816305  1
  H+  H124  1  0.03593873  0.14064343  -0.00025101  1
  H+  H125  1  0.38102364  0.09750284  0.18106240  1
  H+  H126  1  0.13622666  0.11936940  0.97297503  1
  H+  H127  1  0.61715090  0.38749141  0.33345080  1
  H+  H128  1  1.03189792  0.91903800  0.33433045  1
  H+  H129  1  0.36985797  0.44421814  0.64642425  1
  H+  H130  1  0.72086799  0.84935479  0.17466618  1
  H+  H131  1  0.02883033  0.64644024  0.48287213  1
  H+  H132  1  0.59253965  0.71956684  0.82157942  1
  H+  H133  1  0.60523016  0.71197379  0.16641029  1
  H+  H134  1  0.39776872  0.82828772  0.59501880  1
  H+  H135  1  0.59721378  0.70771203  0.01293455  1
  H+  H136  1  0.90393173  0.06161541  1.04855102  1
  H+  H137  1  0.61450093  0.64481412  0.66796311  1
  H+  H138  1  0.37279382  0.26834189  0.99032007  1
  H+  H139  1  0.97074147  0.86081633  0.69504779  1
  H+  H140  1  0.85900283  0.10830630  0.70381429  1
  H+  H141  1  0.89007415  0.77429811  0.17615527  1
  H+  H142  1  0.77463596  0.65071034  0.49273082  1
  H+  H143  1  0.86174371  0.88167852  0.16319435  1
  H+  H144  1  0.66354198  0.86427177  0.85921820  1
  H+  H145  1  0.10881686  0.88610585  0.01844298  1
  H+  H146  1  0.11972493  0.62235107  0.67807381  1
  H+  H147  1  0.12297511  0.47847240  0.49020054  1
  H+  H148  1  0.61751282  0.84212878  1.00111961  1
  H+  H149  1  0.51194810  0.39426081  0.85040649  1
  H+  H150  1  0.37721056  0.77020030  0.50691813  1
  H+  H151  1  0.00305971  0.21568966  0.87158701  1
  H+  H152  1  0.62007212  0.11402645  1.00240417  1
  H+  H153  1  0.36510411  -0.02592800  0.33961488  1
  H+  H154  1  0.60913462  0.64122631  0.33135965  1
  H+  H155  1  0.36000969  0.12828653  -0.00747330  1
  H+  H156  1  0.34642955  0.23842295  0.82842113  1
  H+  H157  1  0.97107089  0.11370676  0.50500510  1
  H+  H158  1  0.11674245  0.49930206  0.32712068  1
  H+  H159  1  0.10775970  0.63882683  0.14151355  1
  H+  H160  1  0.16187213  0.85879310  0.59994606  1
  H+  H161  1  0.62489434  0.35676621  0.64180387  1
  H+  H162  1  0.10287868  -0.02992618  0.16645588  1
  H+  H163  1  0.85768124  0.22619298  0.16091141  1
  H+  H164  1  0.72121798  0.11989511  0.99499278  1
  H+  H165  1  0.01707564  0.87689783  0.01444936  1
  H+  H166  1  0.63677286  0.28439121  0.84094502  1
  H+  H167  1  0.48336950  0.10786658  0.32627246  1
  H+  H168  1  0.84773826  0.20841430  0.84048079  1
  H+  H169  1  0.88827163  0.36185462  0.99041450  1
  H+  H170  1  0.22143297  0.61714153  0.16576033  1
  H+  H171  1  0.26262678  0.15338918  0.50430795  1
  H+  H172  1  0.65210230  0.08763162  0.93425734  1
  H+  H173  1  0.53759323  0.15871509  0.82093005  1
  H+  H174  1  0.64019088  0.53135026  0.32153463  1
  H+  H175  1  0.90743889  0.79009649  0.52415212  1
  H+  H176  1  0.57899613  0.67289049  0.72606954  1
  H+  H177  1  0.13659189  0.78762438  0.50819782  1
  H+  H178  1  0.63788305  0.60945702  0.16921818  1
  H+  H179  1  0.60685189  0.42208465  0.24449338  1
  H+  H180  1  0.17929737  0.32808596  0.57297956  1
  H+  H181  1  0.95926427  0.40494834  0.63862809  1
  H+  H182  1  0.85598716  0.96863133  0.15755655  1
  H+  H183  1  0.37407341  0.23037913  0.47585834  1
  H+  H184  1  1.00143959  0.56084498  0.97810704  1
  H+  H185  1  0.63400973  0.11656864  0.65518925  1
  H+  H186  1  0.16178812  0.71897059  0.69079375  1
  H+  H187  1  0.02030729  0.37320473  0.00820134  1
  H+  H188  1  0.92518948  0.58691203  0.25544679  1
  H+  H189  1  0.82279829  0.62082563  0.38668375  1
  H+  H190  1  0.12562694  0.20839107  0.33825168  1
  H+  H191  1  0.16567448  0.53022001  0.81663175  1
  H+  H192  1  0.36350294  0.13663098  0.48353392  1
  H+  H193  1  0.16656474  0.26812126  0.84319860  1
  H+  H194  1  0.85888411  0.13449848  0.49699747  1
  H+  H195  1  0.11277974  0.38955527  0.16241255  1
  H+  H196  1  0.46546466  0.86168176  0.51168709  1
  H+  H197  1  0.76426657  0.90179922  0.49309137  1
  H+  H198  1  0.93583053  0.06953634  0.88343788  1
  H+  H199  1  0.91795891  0.56354449  0.65057210  1
  H+  H200  1  0.26836334  0.38657695  0.01455391  1
  H+  H201  1  0.40121858  0.13931757  0.83022546  1
  H+  H202  1  0.94190880  0.34049990  0.58545478  1
  H+  H203  1  0.27781681  0.38571815  0.49340927  1
  H+  H204  1  0.38545129  0.54756082  0.68105293  1
  H+  H205  1  0.12278932  0.22875782  -0.01430012  1
  H+  H206  1  0.59252711  0.37280339  1.00657365  1
  H+  H207  1  0.88878901  0.75405355  -0.01169605  1
  H+  H208  1  0.71403150  0.10963566  0.85025389  1
  H+  H209  1  0.46620864  0.59584819  0.17588014  1
  H+  H210  1  0.13229866  0.35874050  0.32544117  1
  H+  H211  1  0.29888343  0.63641178  0.80993730  1
  H+  H212  1  0.85908223  0.64472518  0.67634477  1
  H+  H213  1  0.60051653  0.62092246  1.01188700  1
  H+  H214  1  0.14740738  0.09894200  0.83078751  1
  H+  H215  1  0.94689356  0.85441874  0.90132069  1
  H+  H216  1  0.58104712  0.66873632  0.57063450  1
  H+  H217  1  0.63961778  0.52064308  0.18263805  1
  H+  H218  1  0.21436034  0.10494360  0.19583918  1
  H+  H219  1  0.98293568  0.36250188  0.49464751  1
  H+  H220  1  0.58426477  0.89836483  0.81494842  1
  H+  H221  1  0.86333671  0.61585796  0.00989989  1
  H+  H222  1  0.10933545  0.22734414  0.49594143  1
  H+  H223  1  0.87955206  0.51716183  0.16041870  1
  H+  H224  1  0.63571074  0.78670765  0.66298966  1
  H+  H225  1  0.87631514  0.10478861  0.16468993  1
  H+  H226  1  0.87136221  0.96914600  0.67476803  1
  H+  H227  1  0.05573384  0.14634611  0.81452918  1
  H+  H228  1  0.15846587  0.11395525  0.65762108  1
  H+  H229  1  0.63666915  0.61522449  0.51110760  1
  H+  H230  1  0.22991531  0.62527896  0.31805158  1
  H+  H231  1  0.47262876  0.84830397  0.18441998  1
  H+  H232  1  0.13586709  0.60948381  0.49717163  1
  H+  H233  1  0.62237582  0.86437199  0.33009809  1
  H+  H234  1  0.26927806  0.89224135  0.49558108  1
  H+  H235  1  0.84808894  0.22802820  -0.00028033  1
  H+  H236  1  0.84274834  0.94991383  0.84096933  1
  H+  H237  1  0.60406818  0.72565542  0.33092734  1
  H+  H238  1  0.22690084  0.10947120  -0.01756945  1
  H+  H239  1  0.76772854  0.39201470  0.84250946  1
  H+  H240  1  1.07436982  0.39224420  0.84332227  1
  H+  H241  1  0.14133515  0.77941728  1.01548673  1
  H+  H242  1  0.89242998  0.61488456  0.31345804  1
  H+  H243  1  0.23744011  0.60624533  0.66792383  1
  H+  H244  1  0.51533421  0.63476816  0.51746033  1
  H+  H245  1  0.90204182  0.78640016  0.32936444  1
  H+  H246  1  0.33108519  0.67186256  0.42624725  1
  H+  H247  1  0.11406110  0.14340779  0.49659438  1
  H+  H248  1  0.60564606  0.12366028  0.16011962  1
  H+  H249  1  0.14370558  0.63110663  0.31704279  1
  H+  H250  1  0.85527981  0.07982222  0.87443617  1
  H+  H251  1  0.28394532  0.88120833  0.15585760  1
  H+  H252  1  0.37886579  0.52347878  0.32603652  1
  H+  H253  1  0.14708990  0.00908635  0.82930248  1
  H+  H254  1  0.14641865  0.88543017  0.32718817  1
  H+  H255  1  0.94003668  0.33779790  0.81556966  1
  H+  H256  1  0.37169338  0.52572308  1.00629629  1
  H+  H257  1  0.70485620  0.83689935  1.00652464  1
  H+  H258  1  0.42259874  0.08289604  0.78877240  1
  H+  H259  1  0.13884384  0.36345661  0.99495029  1
  H+  H260  1  0.77096901  0.38271954  0.15779616  1
  H+  H261  1  0.88701564  0.36379859  0.17023606  1
  H+  H262  1  0.62201008  0.39489782  0.48559940  1
  H+  H263  1  0.87385546  0.83265530  0.99566183  1
  H+  H264  1  0.11388061  0.90766273  0.71103118  1
  H+  H265  1  0.29883572  0.32885977  0.86424638  1
  H+  H266  1  0.26032913  0.88867016  0.67648023  1
  H+  H267  1  0.86573883  0.38919101  0.33140125  1
  H+  H268  1  0.23133489  0.87683801  0.33016201  1
  H+  H269  1  0.86650997  0.35226279  0.84017042  1
  H+  H270  1  0.84657693  0.13936674  0.01289185  1
  H+  H271  1  0.89578021  0.36763130  0.49697129  1
  H+  H272  1  0.47173486  0.10636290  0.98516688  1
  H+  H273  1  0.14597629  0.36322702  0.51742671  1
  H+  H274  1  0.78321279  0.39380528  1.00594320  1
  H+  H275  1  0.63331700  0.35027191  0.18109718  1
  H+  H276  1  0.84167229  0.41011327  0.68245425  1
  H+  H277  1  0.83437875  0.09272140  0.67443021  1
  H+  H278  1  0.77070277  0.89504529  0.33889620  1
  H+  H279  1  0.79648454  0.31352239  0.70488890  1
  H+  H280  1  0.86888904  0.48039392  0.48420008  1
  H+  H281  1  0.18180407  0.84868900  0.23124399  1
  H+  H282  1  0.58918037  0.63192614  0.81668232  1
  H+  H283  1  0.97449672  0.36612221  0.31880715  1
  H+  H284  1  0.37062519  0.22199367  0.66816341  1
  H+  H285  1  0.77143825  0.63179258  0.33265004  1
  H+  H286  1  0.49199477  0.86253718  0.34234436  1
  H+  H287  1  0.90012303  0.61780434  0.84751824  1
  H+  H288  1  0.89528474  0.06446296  0.97469203  1
  H+  H289  1  0.38542456  0.00990601  0.16764946  1
  H+  H290  1  0.12139082  0.07224092  0.34337853  1
  H+  H291  1  0.72180194  0.10903833  0.50480445  1
  H+  H292  1  0.08060719  0.41024976  0.06708561  1
  H+  H293  1  0.83055645  0.91618501  0.73790030  1
  H+  H294  1  0.93998284  0.57985250  0.93714701  1
  H+  H295  1  0.38724438  0.33217711  0.93482918  1
  H+  H296  1  0.33029968  0.91583501  0.39936595  1
  H+  H297  1  0.84111760  0.42029676  0.42548932  1
  H+  H298  1  0.16934974  0.07306256  0.91792042  1
  H+  H299  1  0.18114567  0.33833258  0.93821319  1
  H+  H300  1  0.52480793  0.13040576  0.68910793  1
  H+  H301  1  0.93803472  0.06384692  0.59094670  1
  H+  H302  1  0.82851958  0.65165309  0.09669085  1
  H+  H303  1  0.41302699  0.81887221  0.24773824  1
  H+  H304  1  0.39832815  0.57748532  0.56579038  1
  H+  H305  1  0.27844499  0.13819112  0.82573306  1
  H+  H306  1  0.50461596  0.87672505  0.02521717  1
  H+  H307  1  0.67459740  0.44059205  0.76393710  1
  H+  H308  1  0.27405615  0.88012121  -0.02093762  1
  H+  H309  1  0.65940958  0.80742208  0.91358098  1
  H+  H310  1  0.82415948  0.13989494  0.78947930  1
  H+  H311  1  0.14105381  0.05564226  0.24369452  1
  H+  H312  1  0.33568484  0.66339429  0.08550131  1
  H+  H313  1  0.40658770  0.57153899  0.23591214  1
  H+  H314  1  0.92028107  0.83898016  0.26804355  1
  H+  H315  1  0.13736947  0.21974984  0.66771834  1
  H+  H316  1  0.66612033  0.32046762  0.93499926  1
  H+  H317  1  0.67127243  0.33619037  0.55423577  1
  H+  H318  1  0.77001588  0.18426867  0.67753385  1
  H+  H319  1  0.08634987  0.66581599  0.77542094  1
  H+  H320  1  0.23927506  0.21483239  0.54330019  1
  H+  H321  1  0.94176279  0.84123002  0.58529299  1
  H+  H322  1  0.83135553  0.16378079  0.39809713  1
  H+  H323  1  0.38456779  0.72232980  0.82624941  1
  H+  H324  1  0.67312604  0.59326824  0.26346437  1
  H+  H325  1  0.57119844  0.14865551  0.07482088  1
  H+  H326  1  0.11440264  0.16462984  0.75740654  1
  H+  H327  1  0.33650825  0.17589565  0.73409057  1
  H+  H328  1  0.35898582  0.39288654  0.33175574  1
  H+  H329  1  0.20417064  0.11316686  0.59158862  1
  H+  H330  1  0.11054545  0.40983785  0.43858637  1
  H+  H331  1  0.57954879  0.90589801  0.10593219  1
  H+  H332  1  0.32409552  0.14724232  0.05323481  1
  H+  H333  1  0.38111360  0.43358903  0.73565611  1
  H+  H334  1  0.09491668  0.16244685  0.40215473  1
  H+  H335  1  0.81701915  0.40654741  0.78057285  1
  H+  H336  1  0.86517254  0.61685996  0.15693335  1
  H+  H337  1  0.82018641  0.17136460  0.10065457  1
  H+  H338  1  0.07274641  0.91090406  0.10584143  1
  H+  H339  1  0.62868255  0.52912435  0.84600474  1
  H+  H340  1  0.91207640  0.32929467  0.26200308  1
  H+  H341  1  0.51564485  0.12438529  0.15918748  1
  H+  H342  1  0.69214655  0.93933374  0.29623906  1
  H+  H343  1  0.81872569  0.88821347  0.07453525  1
  H+  H344  1  0.67379637  0.59180689  0.59521990  1
  H+  H345  1  0.57888055  0.16445351  0.39769152  1
  H+  H346  1  0.18078954  0.56920418  0.60785510  1
  H+  H347  1  0.83330889  0.41400029  0.09885937  1
  H+  H348  1  0.42703396  0.09203754  0.91972877  1
  H+  H349  1  0.16473257  0.33304697  0.23390892  1
  H+  H350  1  0.38048646  0.85010122  0.32425346  1
  H+  H351  1  0.67363364  0.59062032  0.93830140  1
  H+  H352  1  0.41835619  0.32859671  0.55417862  1
  H+  H353  1  0.38053530  0.52114376  0.50517802  1
  H+  H354  1  0.60351135  0.18509637  0.76558642  1
  H+  H355  1  0.37512533  0.86124745  1.00500599  1
  H+  H356  1  0.42374292  0.07079168  0.26649072  1
  H+  H357  1  0.87876914  0.02530518  0.50557785  1
  H+  H358  1  0.05822132  0.45405793  0.38329751  1
  H+  H359  1  0.22560602  0.61221411  0.49516666  1
  H+  H360  1  0.33648235  0.17909300  0.36516417  1
  H+  H361  1  0.15083386  0.81976418  0.94839257  1
  H+  H362  1  0.59042053  0.42550538  0.42785863  1
  H+  H363  1  0.09387780  0.94091527  0.43881177  1
  H+  H364  1  0.35386916  0.22433166  0.18552033  1
  H+  H365  1  0.63369813  0.26174489  0.16956234  1
  H+  H366  1  0.09363163  0.68203452  0.42749140  1
  H+  H367  1  0.67118158  0.32809694  0.26554112  1
  H+  H368  1  0.91593029  0.32970134  0.93062335  1
  H+  H369  1  0.10858218  0.40267984  0.77420974  1
  H+  H370  1  0.33116599  0.41541826  0.39581652  1
  H+  H371  1  0.65968430  0.47301038  0.76546417  1
  H+  H372  1  0.92213645  0.59843453  0.55045220  1
  H+  H373  1  0.36809775  0.87616313  0.16956861  1
  H+  H374  1  0.16030819  0.59360359  0.22216913  1
  H+  H375  1  0.31105080  0.89345006  0.73899063  1
  H+  H376  1  0.55811905  0.90935919  0.43753032  1
  H+  H377  1  0.52974674  0.39339226  0.32948065  1
  H+  H378  1  0.84071108  0.71279261  0.44238357  1
  H+  H379  1  0.36513633  0.72381952  0.17238517  1
  H+  H380  1  0.58828772  0.94215012  0.72468535  1
  H+  H381  1  0.67372667  0.05380068  0.26333663  1
  H+  H382  1  0.66792147  0.08822652  0.59380357  1
  H+  H383  1  0.66238876  0.84973462  0.56886986  1
  O2-  O384  1  0.08380905  0.17275361  0.15578922  1
  O2-  O385  1  0.07813952  0.16667889  0.48134221  1
  O2-  O386  1  0.11514911  0.16584539  0.80345104  1
  O2-  O387  1  0.08120367  0.41725840  0.14514467  1
  O2-  O388  1  0.09480656  0.41440786  0.48043555  1
  O2-  O389  1  0.12559566  0.41354678  0.81824183  1
  O2-  O390  1  0.06969851  0.66196696  0.12714270  1
  O2-  O391  1  0.09096864  0.67706602  0.47293097  1
  O2-  O392  1  0.08960855  0.66546545  0.82019236  1
  O2-  O393  1  0.07197713  0.90918703  0.15216762  1
  O2-  O394  1  0.09933895  0.93588674  0.48295349  1
  O2-  O395  1  0.09090311  0.91115123  0.79803949  1
  O2-  O396  1  0.32852132  0.16615761  0.20205100  1
  O2-  O397  1  0.33452929  0.16888869  0.46623357  1
  O2-  O398  1  0.33704656  0.18256118  0.81185063  1
  O2-  O399  1  0.31590035  0.41202451  0.15055142  1
  O2-  O400  1  0.33639148  0.41976971  0.47539826  1
  O2-  O401  1  0.41209083  0.45982259  0.77909743  1
  O2-  O402  1  0.33197869  0.66304413  0.15321217  1
  O2-  O403  1  0.32990426  0.67109195  0.47264319  1
  O2-  O404  1  0.36220739  0.66884630  0.80116882  1
  O2-  O405  1  0.34574734  0.90596837  0.14313356  1
  O2-  O406  1  0.32905392  0.91959138  0.47918427  1
  O2-  O407  1  0.31498636  0.89364525  0.81680218  1
  O2-  O408  1  0.57647420  0.15471544  0.14253281  1
  O2-  O409  1  0.57910296  0.16731583  0.47814197  1
  O2-  O410  1  0.60080532  0.18724106  0.81125222  1
  O2-  O411  1  0.58982689  0.41568969  0.20157149  1
  O2-  O412  1  0.59180960  0.42676953  0.47302807  1
  O2-  O413  1  0.57046175  0.42167487  0.86639842  1
  O2-  O414  1  0.57607910  0.65077042  0.15220396  1
  O2-  O415  1  0.57887434  0.66733313  0.52621698  1
  O2-  O416  1  0.56336662  0.66448690  0.79939864  1
  O2-  O417  1  0.58272805  0.90905230  0.15097415  1
  O2-  O418  1  0.56371306  0.91760924  0.48361154  1
  O2-  O419  1  0.56632690  0.93733080  0.79866870  1
  O2-  O420  1  0.82413783  0.16595962  0.14498364  1
  O2-  O421  1  0.82660629  0.16174818  0.47947445  1
  O2-  O422  1  0.81805917  0.14477303  0.83343616  1
  O2-  O423  1  0.83249002  0.41750856  0.14428405  1
  O2-  O424  1  0.84178061  0.41920620  0.47117143  1
  O2-  O425  1  0.82672594  0.41415626  0.82540169  1
  O2-  O426  1  0.82868012  0.65132358  0.14312673  1
  O2-  O427  1  0.83709817  0.68310412  0.48041935  1
  O2-  O428  1  0.85904022  0.67562188  0.82123674  1
  O2-  O429  1  0.82710526  0.90603356  0.14514203  1
  O2-  O430  1  0.82512125  0.93285584  0.48046211  1
  O2-  O431  1  0.82802264  0.89826120  0.81645770  1
  O2-  O432  1  0.15070262  0.07128061  0.19987952  1
  O2-  O433  1  0.21537099  0.15393542  0.53404096  1
  O2-  O434  1  0.17550910  0.06793951  0.84881142  1
  O2-  O435  1  0.16458932  0.33330532  0.18798064  1
  O2-  O436  1  0.17535771  0.33038669  0.52736683  1
  O2-  O437  1  0.19986900  0.32415236  0.86412517  1
  O2-  O438  1  0.15926593  0.58945337  0.17659041  1
  O2-  O439  1  0.16526057  0.57793376  0.51124630  1
  O2-  O440  1  0.19255605  0.59080192  0.80436353  1
  O2-  O441  1  0.18499833  0.84668562  0.18632903  1
  O2-  O442  1  0.16609098  0.84668045  0.52523060  1
  O2-  O443  1  0.15734133  0.82372202  0.86570752  1
  O2-  O444  1  0.41725305  0.07061684  0.18385183  1
  O2-  O445  1  0.40840249  0.09027627  0.51524060  1
  O2-  O446  1  0.43041833  0.10427672  0.83198825  1
  O2-  O447  1  0.42675956  0.35579730  0.22939161  1
  O2-  O448  1  0.42161784  0.33746341  0.50908604  1
  O2-  O449  1  0.35632363  0.33326598  0.86016041  1
  O2-  O450  1  0.40502252  0.56749008  0.18935023  1
  O2-  O451  1  0.40692547  0.58148633  0.52123915  1
  O2-  O452  1  0.36312679  0.50038007  0.80161268  1
  O2-  O453  1  0.41228502  0.81655106  0.19837443  1
  O2-  O454  1  0.40435919  0.82796328  0.52745803  1
  O2-  O455  1  0.41146479  0.81641871  0.86350754  1
  O2-  O456  1  0.65779422  0.07600040  0.18568239  1
  O2-  O457  1  0.66265212  0.08244818  0.52278447  1
  O2-  O458  1  0.65275463  0.08723439  0.86288896  1
  O2-  O459  1  0.66876940  0.32207254  0.18457881  1
  O2-  O460  1  0.67213300  0.33990324  0.50900842  1
  O2-  O461  1  0.66313597  0.34018047  0.86416999  1
  O2-  O462  1  0.67520722  0.58523663  0.18339697  1
  O2-  O463  1  0.67404857  0.58941029  0.51729298  1
  O2-  O464  1  0.66476618  0.59223236  0.83875215  1
  O2-  O465  1  0.66010335  0.81883215  0.18899898  1
  O2-  O466  1  0.65594566  0.84495226  0.52392094  1
  O2-  O467  1  0.66793650  0.81358171  0.86793972  1
  O2-  O468  1  0.90509379  0.07248465  0.17745021  1
  O2-  O469  1  0.91354822  0.08544054  0.52494168  1
  O2-  O470  1  0.87528950  0.04326842  0.89463723  1
  O2-  O471  1  0.91493776  0.33119076  0.18467502  1
  O2-  O472  1  0.92408544  0.33521971  0.51230244  1
  O2-  O473  1  0.89677389  0.31805920  0.84765679  1
  O2-  O474  1  0.91001513  0.58129831  0.17112302  1
  O2-  O475  1  0.91715418  0.59052708  0.50590647  1
  O2-  O476  1  0.92705327  0.58352045  0.86249292  1
  O2-  O477  1  0.91630246  0.83369413  0.19066350  1
  O2-  O478  1  0.94547757  0.84766895  0.54072728  1
  O2-  O479  1  0.96428540  0.88741902  0.86272296  1
  O2-  O480  1  0.13791049  0.03208038  0.32248075  1
  O2-  O481  1  0.19373473  0.08973970  0.63739783  1
  O2-  O482  1  0.16756847  0.08319842  0.96406696  1
  O2-  O483  1  0.16256689  0.33005375  0.30992800  1
  O2-  O484  1  0.18699211  0.31766511  0.64903840  1
  O2-  O485  1  0.17361383  0.33590306  0.98348302  1
  O2-  O486  1  0.16928348  0.59672813  0.30076389  1
  O2-  O487  1  0.17797465  0.56654941  0.65270813  1
  O2-  O488  1  0.09087476  0.55976027  0.98253002  1
  O2-  O489  1  0.17034603  0.84926130  0.31386034  1
  O2-  O490  1  0.16039850  0.86000423  0.64628823  1
  O2-  O491  1  0.16473925  0.83342966  0.99218854  1
  O2-  O492  1  0.42170801  0.07427297  0.31137187  1
  O2-  O493  1  0.42139994  0.07523228  0.71021539  1
  O2-  O494  1  0.41600668  0.08537438  0.96388577  1
  O2-  O495  1  0.43166518  0.36829004  0.28837512  1
  O2-  O496  1  0.40848526  0.31198007  0.63242425  1
  O2-  O497  1  0.40134354  0.32996423  0.97881898  1
  O2-  O498  1  0.40766628  0.58204776  0.30759270  1
  O2-  O499  1  0.41539468  0.59278216  0.65064663  1
  O2-  O500  1  0.40223450  0.58706749  0.99347718  1
  O2-  O501  1  0.41084966  0.81945078  0.31212360  1
  O2-  O502  1  0.39687146  0.83061917  0.64272303  1
  O2-  O503  1  0.39959089  0.83671255  1.03644548  1
  O2-  O504  1  0.68586099  0.03318139  0.30183548  1
  O2-  O505  1  0.66917736  0.08995373  0.64085621  1
  O2-  O506  1  0.65612045  0.08730954  0.98117972  1
  O2-  O507  1  0.66990036  0.33777453  0.31004509  1
  O2-  O508  1  0.65292568  0.32207988  0.63268345  1
  O2-  O509  1  0.67677172  0.30675068  0.97800383  1
  O2-  O510  1  0.67250642  0.59297301  0.30881428  1
  O2-  O511  1  0.66545563  0.58826082  0.64054783  1
  O2-  O512  1  0.67096657  0.58060812  0.98230934  1
  O2-  O513  1  0.67394743  0.87746367  0.30430591  1
  O2-  O514  1  0.66681722  0.84840588  0.65033676  1
  O2-  O515  1  0.64638557  0.80961757  0.98774091  1
  O2-  O516  1  0.90523596  0.07780813  0.29580608  1
  O2-  O517  1  0.95841840  0.04488800  0.62841167  1
  O2-  O518  1  0.91554676  0.09845960  1.01297767  1
  O2-  O519  1  0.91291450  0.33234641  0.30761103  1
  O2-  O520  1  0.95242858  0.34843904  0.63114291  1
  O2-  O521  1  0.91254361  0.32547833  0.97553352  1
  O2-  O522  1  0.92566202  0.58689689  0.30036078  1
  O2-  O523  1  0.93710782  0.62088491  0.63462967  1
  O2-  O524  1  0.94976871  0.57000911  0.98086715  1
  O2-  O525  1  0.92393902  0.84471098  0.31359472  1
  O2-  O526  1  0.91831038  0.83116473  0.66962591  1
  O2-  O527  1  0.91221471  0.81469034  0.97648964  1
  O2-  O528  1  0.09144128  0.16496818  -0.02134516  1
  O2-  O529  1  0.11035716  0.15518101  0.36026089  1
  O2-  O530  1  0.10934275  0.15729011  0.68251046  1
  O2-  O531  1  0.08084449  0.40853007  0.02140852  1
  O2-  O532  1  0.08154708  0.44064073  0.34758359  1
  O2-  O533  1  0.10567861  0.40079745  0.69641330  1
  O2-  O534  1  0.08695110  0.67606504  0.06137734  1
  O2-  O535  1  0.09343748  0.68356659  0.34750819  1
  O2-  O536  1  0.10519639  0.66738723  0.68952238  1
  O2-  O537  1  0.07418049  0.91133709  0.03329761  1
  O2-  O538  1  0.09099256  0.94834583  0.35256664  1
  O2-  O539  1  0.07403357  0.92081764  0.73348040  1
  O2-  O540  1  0.32608218  0.15493715  0.00914836  1
  O2-  O541  1  0.36033198  0.18256366  0.32457363  1
  O2-  O542  1  0.33927144  0.16409611  0.68974319  1
  O2-  O543  1  0.32810775  0.41811986  0.03282730  1
  O2-  O544  1  0.32587694  0.41750343  0.35065619  1
  O2-  O545  1  0.34503587  0.39983362  0.67754560  1
  O2-  O546  1  0.33848285  0.66904292  0.03812866  1
  O2-  O547  1  0.32481308  0.66902090  0.35155198  1
  O2-  O548  1  0.34521362  0.68753297  0.68923947  1
  O2-  O549  1  0.33438705  0.90323643  -0.03499632  1
  O2-  O550  1  0.32852393  0.91336923  0.35408371  1
  O2-  O551  1  0.31762950  0.90316875  0.69372733  1
  O2-  O552  1  0.57157280  0.14899336  0.02682088  1
  O2-  O553  1  0.57967485  0.16385180  0.35249169  1
  O2-  O554  1  0.58927915  0.16641938  0.68796119  1
  O2-  O555  1  0.56996027  0.40747405  -0.01072039  1
  O2-  O556  1  0.59057298  0.42387716  0.34351790  1
  O2-  O557  1  0.57824100  0.41781723  0.66043662  1
  O2-  O558  1  0.56778030  0.64715968  0.02847630  1
  O2-  O559  1  0.57325824  0.66608040  0.34412691  1
  O2-  O560  1  0.58367799  0.67597473  0.67980918  1
  O2-  O561  1  0.56885717  0.90039263  0.02482425  1
  O2-  O562  1  0.55341110  0.89266771  0.36485206  1
  O2-  O563  1  0.60061575  0.94371233  0.67988465  1
  O2-  O564  1  0.81088023  0.16761527  0.01603689  1
  O2-  O565  1  0.83128857  0.16324151  0.35283026  1
  O2-  O566  1  0.81367905  0.23397494  0.70085799  1
  O2-  O567  1  0.84221070  0.41629615  0.02128901  1
  O2-  O568  1  0.83785571  0.42172723  0.34732390  1
  O2-  O569  1  0.79284986  0.36852725  0.70631495  1
  O2-  O570  1  0.83352440  0.64582486  0.02405033  1
  O2-  O571  1  0.83148884  0.65367429  0.34931856  1
  O2-  O572  1  0.82393873  0.66575216  0.69630723  1
  O2-  O573  1  0.80956257  0.87493428  0.02867742  1
  O2-  O574  1  0.82950807  0.92066332  0.35626007  1
  O2-  O575  1  0.82804248  0.91293505  0.69257598  1
