# generated using pymatgen
data_H2O
_symmetry_space_group_name_H-M   'P 1'
_cell_length_a   17.98034039
_cell_length_b   17.98952467
_cell_length_c   22.00735265
_cell_angle_alpha   90.01077310
_cell_angle_beta   89.98965825
_cell_angle_gamma   119.96238705
_symmetry_Int_Tables_number   1
_chemical_formula_structural   H2O
_chemical_formula_sum   'H384 O192'
_cell_volume   6167.09304200
_cell_formula_units_Z   192
loop_
 _symmetry_equiv_pos_site_id
 _symmetry_equiv_pos_as_xyz
  1  'x, y, z'
loop_
 _atom_type_symbol
 _atom_type_oxidation_number
  H+  1.0
  O2-  -2.0
loop_
 _atom_site_type_symbol
 _atom_site_label
 _atom_site_symmetry_multiplicity
 _atom_site_fract_x
 _atom_site_fract_y
 _atom_site_fract_z
 _atom_site_occupancy
  H+  H0  1  0.38332472  0.86364624  0.19879455  1
  H+  H1  1  0.83385120  0.16361796  0.72904828  1
  H+  H2  1  0.87263096  0.23546912  0.35317294  1
  H+  H3  1  0.66616252  1.05434803  0.85769926  1
  H+  H4  1  0.64640493  0.27716156  0.00349850  1
  H+  H5  1  0.96711932  0.61233950  0.85827692  1
  H+  H6  1  0.64040741  0.38789641  0.27640886  1
  H+  H7  1  0.12085437  0.08998748  1.00400945  1
  H+  H8  1  0.01269144  0.39338643  0.66470666  1
  H+  H9  1  0.85586876  0.21050401  -0.00581677  1
  H+  H10  1  0.63818244  0.61729216  0.51283867  1
  H+  H11  1  0.12714800  0.51512678  0.16664192  1
  H+  H12  1  0.63101264  0.72850748  0.00191250  1
  H+  H13  1  0.86696750  0.01932687  0.99695980  1
  H+  H14  1  0.63554929  0.77344926  0.83667523  1
  H+  H15  1  0.65176808  1.03692223  -0.00035943  1
  H+  H16  1  0.29775424  0.47567560  0.83799845  1
  H+  H17  1  0.12654061  0.86049923  0.32761142  1
  H+  H18  1  0.11301026  0.42878445  0.08779183  1
  H+  H19  1  0.37214234  0.49830609  0.34801564  1
  H+  H20  1  0.38503641  0.62841385  0.16444845  1
  H+  H21  1  0.36528659  0.16855666  0.32974593  1
  H+  H22  1  0.61774859  0.31652478  0.15723157  1
  H+  H23  1  0.85988463  0.47770008  0.66019632  1
  H+  H24  1  0.74596632  0.12951530  0.00919283  1
  H+  H25  1  0.38134359  0.11853210  0.16734943  1
  H+  H26  1  0.60489941  0.90540621  0.16279378  1
  H+  H27  1  0.22017921  0.11335975  0.99403042  1
  H+  H28  1  0.86114818  0.72655578  0.33416588  1
  H+  H29  1  0.90166268  0.04450981  0.17262729  1
  H+  H30  1  0.10850932  0.72367969  0.01248376  1
  H+  H31  1  0.13279823  0.01086236  0.17488490  1
  H+  H32  1  0.13918551  0.86551386  1.00160714  1
  H+  H33  1  0.63640743  0.56219801  0.15233000  1
  H+  H34  1  -0.02375844  0.09978318  0.50298905  1
  H+  H35  1  0.61026759  0.38904562  0.67547061  1
  H+  H36  1  0.54793584  0.54751805  0.38552458  1
  H+  H37  1  0.73708395  0.36503324  1.00502572  1
  H+  H38  1  0.36549620  0.72644913  1.00258134  1
  H+  H39  1  0.12446294  0.77024901  0.33050598  1
  H+  H40  1  0.14103721  0.61698147  -0.00359153  1
  H+  H41  1  0.38581654  1.01427653  0.83251084  1
  H+  H42  1  0.71065548  0.87534642  0.35019090  1
  H+  H43  1  0.36103813  0.39815227  0.14942158  1
  H+  H44  1  0.46128195  0.98564516  0.36389388  1
  H+  H45  1  0.63724614  0.02258040  0.65130080  1
  H+  H46  1  0.14197911  0.01592035  0.49362226  1
  H+  H47  1  1.02377920  0.38691861  0.11314382  1
  H+  H48  1  0.49243985  0.37076931  0.01662107  1
  H+  H49  1  0.63426864  0.37033046  0.51965424  1
  H+  H50  1  0.03193233  0.89498239  0.00765813  1
  H+  H51  1  0.43017257  0.39655411  0.31037317  1
  H+  H52  1  0.26182262  0.34119356  0.84091009  1
  H+  H53  1  0.38230638  0.10640642  0.67003944  1
  H+  H54  1  0.88353361  1.01973810  0.65737255  1
  H+  H55  1  0.88269952  0.61762302  0.50150439  1
  H+  H56  1  0.91534086  0.48596730  0.80622372  1
  H+  H57  1  0.66062994  0.52818007  0.28313769  1
  H+  H58  1  0.76204262  0.36743870  0.16481136  1
  H+  H59  1  0.62561891  0.86302150  0.50740029  1
  H+  H60  1  0.63052674  0.52487016  0.51882140  1
  H+  H61  1  0.40611607  0.32114129  0.57482609  1
  H+  H62  1  0.94164341  0.38219078  0.80177453  1
  H+  H63  1  0.47319506  0.10850491  0.66748353  1
  H+  H64  1  0.36131306  0.22572668  0.50651176  1
  H+  H65  1  0.23482831  0.36045425  0.51499838  1
  H+  H66  1  0.41470707  0.33720032  0.82701666  1
  H+  H67  1  0.88507731  0.71103100  -0.00637410  1
  H+  H68  1  0.72891307  0.11446623  0.34643661  1
  H+  H69  1  0.71655758  0.86498868  0.50522043  1
  H+  H70  1  0.08206995  0.66729341  0.40014913  1
  H+  H71  1  0.36379512  0.12974498  0.51003500  1
  H+  H72  1  0.19557183  0.60590001  0.83205588  1
  H+  H73  1  0.86336940  0.72895234  0.66766249  1
  H+  H74  1  0.88689854  0.36089425  0.34472422  1
  H+  H75  1  0.88502665  1.01582384  0.50344754  1
  H+  H76  1  0.88952004  0.12779881  0.17439299  1
  H+  H77  1  0.61492576  0.73157384  0.49137128  1
  H+  H78  1  0.38174529  0.02686837  0.97790180  1
  H+  H79  1  0.15068905  0.36820302  0.81245920  1
  H+  H80  1  0.18012393  0.85014682  0.90617413  1
  H+  H81  1  -0.00699622  0.09270555  0.02370560  1
  H+  H82  1  0.97784251  0.95569853  0.95362194  1
  H+  H83  1  0.38874748  0.52922841  0.97413451  1
  H+  H84  1  0.84726547  0.84093301  0.32057597  1
  H+  H85  1  0.44738624  0.80006812  0.84543266  1
  H+  H86  1  0.00436119  0.88776600  0.33850555  1
  H+  H87  1  0.62391814  0.24471731  0.48897064  1
  H+  H88  1  0.38616651  0.11661242  0.98502721  1
  H+  H89  1  0.62401884  0.15638572  0.48655752  1
  H+  H90  1  0.92358529  0.58505150  0.25947675  1
  H+  H91  1  0.37743179  0.85736612  -0.00553571  1
  H+  H92  1  0.57539714  0.92482091  0.90100072  1
  H+  H93  1  0.90316062  0.28690326  1.05447028  1
  H+  H94  1  0.13721340  0.77824351  0.85826507  1
  H+  H95  1  0.38231011  0.26853344  0.66716992  1
  H+  H96  1  0.62855878  0.64625073  0.15704218  1
  H+  H97  1  0.18561082  0.58014755  0.48479361  1
  H+  H98  1  0.12782384  0.36961779  0.65218502  1
  H+  H99  1  0.72704683  0.11074144  0.65745234  1
  H+  H100  1  0.36652359  -0.02881307  0.67480509  1
  H+  H101  1  0.55388428  0.39235300  0.27692782  1
  H+  H102  1  0.61334037  0.13183211  0.34363184  1
  H+  H103  1  0.38668205  0.54106208  0.16036848  1
  H+  H104  1  0.79172321  0.16376551  0.82947252  1
  H+  H105  1  0.60873691  0.47789782  0.67748060  1
  H+  H106  1  0.62982746  0.48414188  0.01284598  1
  H+  H107  1  0.76726519  0.63482654  0.49044791  1
  H+  H108  1  0.30579859  0.65243928  0.75588430  1
  H+  H109  1  0.13069852  0.12312689  0.36461238  1
  H+  H110  1  0.77648008  0.36392978  0.86772591  1
  H+  H111  1  0.62042686  0.14557994  0.83257548  1
  H+  H112  1  0.91033616  0.09822609  -0.09459779  1
  H+  H113  1  0.87412772  0.55379079  0.88649598  1
  H+  H114  1  0.41747161  0.33669891  1.06335784  1
  H+  H115  1  0.07644475  0.90743658  0.43092773  1
  H+  H116  1  0.11626161  0.39990909  0.33233570  1
  H+  H117  1  0.43734433  -0.02155516  0.33459767  1
  H+  H118  1  0.62640662  0.76723395  0.66014421  1
  H+  H119  1  0.86451945  0.23338847  0.16715201  1
  H+  H120  1  0.13935188  0.76887105  0.50376032  1
  H+  H121  1  0.61293899  0.13663038  0.67190015  1
  H+  H122  1  0.02767105  0.14822565  0.17125440  1
  H+  H123  1  0.77987830  0.87615652  0.81431871  1
  H+  H124  1  0.74246278  0.61276375  0.99839413  1
  H+  H125  1  0.59309568  0.18085302  0.39703409  1
  H+  H126  1  0.88796812  0.78212952  0.16833139  1
  H+  H127  1  0.65510994  0.82389036  0.59787740  1
  H+  H128  1  0.27075630  0.39337515  0.65405302  1
  H+  H129  1  0.51038200  0.87616503  -0.00233111  1
  H+  H130  1  0.12902067  0.48489982  0.99497801  1
  H+  H131  1  0.13783963  0.53263911  0.64877965  1
  H+  H132  1  0.10494100  0.35561172  0.48946843  1
  H+  H133  1  0.90810338  0.88069032  0.16847254  1
  H+  H134  1  0.63489465  0.27407596  0.66677283  1
  H+  H135  1  0.64650299  0.96979122  0.34214893  1
  H+  H136  1  0.77258785  0.88150558  0.66382189  1
  H+  H137  1  0.36760450  0.82817796  0.34932420  1
  H+  H138  1  0.88347842  0.61696138  0.65787547  1
  H+  H139  1  0.98113668  0.36921647  0.33604144  1
  H+  H140  1  0.48920509  0.13969260  0.32411853  1
  H+  H141  1  0.76570525  0.87870664  1.00409765  1
  H+  H142  1  0.51236194  0.65024923  0.14662849  1
  H+  H143  1  0.70221989  0.86545515  0.18206967  1
  H+  H144  1  0.36670761  0.55537114  0.87439519  1
  H+  H145  1  0.86612403  0.48586852  0.50240201  1
  H+  H146  1  0.35052670  0.73199461  0.83486644  1
  H+  H147  1  0.24494308  0.80717380  0.16531702  1
  H+  H148  1  0.62335031  0.32002743  0.91091825  1
  H+  H149  1  0.86905488  0.87753338  0.81346083  1
  H+  H150  1  0.59248895  0.48387451  0.87459502  1
  H+  H151  1  0.38296717  0.74467971  0.33176378  1
  H+  H152  1  0.59878552  0.41161886  0.17949003  1
  H+  H153  1  0.13931590  0.11748734  0.66903445  1
  H+  H154  1  0.01666925  0.62465333  0.01035642  1
  H+  H155  1  0.21311784  0.10095597  0.84078173  1
  H+  H156  1  0.24224452  0.37021737  0.98533456  1
  H+  H157  1  0.31317314  0.59961019  0.81300740  1
  H+  H158  1  0.13612698  0.36476022  0.16526473  1
  H+  H159  1  0.60364491  0.63688313  0.68055343  1
  H+  H160  1  0.37527890  0.75419274  0.65970216  1
  H+  H161  1  0.16386374  0.58566694  0.26580133  1
  H+  H162  1  0.41999802  0.59886699  0.58977158  1
  H+  H163  1  0.46699358  0.34825702  0.15811044  1
  H+  H164  1  0.13720695  0.53318067  0.32756831  1
  H+  H165  1  0.25574199  0.84835608  0.35367772  1
  H+  H166  1  0.57437491  0.87332933  0.34925798  1
  H+  H167  1  0.11448231  0.64084851  0.33845317  1
  H+  H168  1  0.64293326  0.25238636  0.31652040  1
  H+  H169  1  0.22070758  0.37244019  0.33110629  1
  H+  H170  1  0.77918161  0.63510551  0.32602440  1
  H+  H171  1  0.72351190  0.61862912  0.66746353  1
  H+  H172  1  0.53870266  0.33934983  0.82773110  1
  H+  H173  1  0.61786168  0.78300363  0.15670833  1
  H+  H174  1  0.48977812  0.11455474  0.15360038  1
  H+  H175  1  0.08120075  0.43044128  0.71885713  1
  H+  H176  1  0.48486565  0.90533924  0.20264478  1
  H+  H177  1  0.60914312  0.87609227  0.66119908  1
  H+  H178  1  0.38922139  0.53022142  0.50189293  1
  H+  H179  1  0.59592391  0.19173841  0.15050370  1
  H+  H180  1  0.47425675  0.85475634  0.65719637  1
  H+  H181  1  0.36566253  0.63823188  -0.00487888  1
  H+  H182  1  0.11390578  0.97394134  0.82438854  1
  H+  H183  1  0.38299025  0.85844227  0.66323633  1
  H+  H184  1  0.12267411  0.60146242  0.16984783  1
  H+  H185  1  0.32904831  0.15813756  0.05995129  1
  H+  H186  1  0.33913416  0.42762196  0.55089728  1
  H+  H187  1  0.12212049  0.97655438  0.01321042  1
  H+  H188  1  0.64723752  0.86800152  0.84020364  1
  H+  H189  1  0.35928480  0.95269900  0.05967092  1
  H+  H190  1  0.88206201  0.62117699  0.00219289  1
  H+  H191  1  0.47811269  0.61790716  0.49868723  1
  H+  H192  1  1.04509882  0.39573552  1.01221451  1
  H+  H193  1  0.27248624  0.39782062  0.15142028  1
  H+  H194  1  0.86055514  0.13136489  0.66899202  1
  H+  H195  1  0.10338203  0.22602211  0.67406430  1
  H+  H196  1  0.26416907  0.12894484  0.15444771  1
  H+  H197  1  0.89531619  0.62418769  0.32483632  1
  H+  H198  1  1.01706568  0.13516958  0.67281213  1
  H+  H199  1  0.65426186  0.61785062  1.00100286  1
  H+  H200  1  0.88219382  0.77289137  0.49966161  1
  H+  H201  1  0.64410182  0.04516644  0.19465600  1
  H+  H202  1  0.96997016  0.59976457  0.17822346  1
  H+  H203  1  0.14095799  0.85844268  0.50424532  1
  H+  H204  1  0.77282533  0.66463325  0.14523602  1
  H+  H205  1  0.97087728  1.12152527  0.84555966  1
  H+  H206  1  0.70099470  0.78557033  0.36249117  1
  H+  H207  1  0.22567762  0.86094582  1.00633984  1
  H+  H208  1  0.66273233  0.65620478  0.85181322  1
  H+  H209  1  0.40176615  0.29724972  0.31035948  1
  H+  H210  1  0.86216424  0.63744872  0.82022669  1
  H+  H211  1  0.23180657  0.61854867  0.99137007  1
  H+  H212  1  0.87136742  0.14499921  0.35204911  1
  H+  H213  1  0.72689068  0.37511023  0.51667087  1
  H+  H214  1  0.88661691  0.98659049  0.34174429  1
  H+  H215  1  0.90648582  0.26948365  0.81381124  1
  H+  H216  1  0.88697812  0.86181216  0.65121784  1
  H+  H217  1  0.35309014  0.12895389  0.82666628  1
  H+  H218  1  0.22860766  0.86048444  0.65708090  1
  H+  H219  1  0.27727272  0.16981041  0.33069560  1
  H+  H220  1  0.87729319  0.35696814  0.65449545  1
  H+  H221  1  0.97667178  0.86223663  0.65292767  1
  H+  H222  1  0.55356752  0.48889770  0.87653581  1
  H+  H223  1  0.90002429  0.77625896  0.83799192  1
  H+  H224  1  -0.01147369  0.62307016  0.32854454  1
  H+  H225  1  0.78807825  0.66306012  0.82933237  1
  H+  H226  1  0.14171422  0.62249259  0.64948231  1
  H+  H227  1  0.52332587  0.12716143  0.82277055  1
  H+  H228  1  0.85997862  0.24014698  0.49953143  1
  H+  H229  1  0.52704184  0.64293966  0.84894308  1
  H+  H230  1  0.31755628  0.61780197  0.46700530  1
  H+  H231  1  0.11347142  0.88669523  0.66745603  1
  H+  H232  1  0.37818406  0.02443044  0.51504060  1
  H+  H233  1  0.69676232  0.62529839  0.90811713  1
  H+  H234  1  0.14187297  0.10507765  0.49449954  1
  H+  H235  1  0.27725894  0.63107535  0.33480250  1
  H+  H236  1  0.31083816  0.33622401  0.38321571  1
  H+  H237  1  0.52643277  0.13419967  0.99613344  1
  H+  H238  1  0.12196626  0.88910103  0.82513105  1
  H+  H239  1  0.11547463  0.73250484  0.66618643  1
  H+  H240  1  0.27158452  0.64098943  0.65575200  1
  H+  H241  1  1.01464841  0.34624479  0.80647684  1
  H+  H242  1  0.91574963  0.07927054  0.59862370  1
  H+  H243  1  0.84325863  0.67894526  0.09565961  1
  H+  H244  1  0.87597569  0.47948524  0.02193810  1
  H+  H245  1  1.02300506  0.64525394  0.48812434  1
  H+  H246  1  0.39655407  0.06061609  0.32263234  1
  H+  H247  1  0.11174265  0.13821311  0.17029966  1
  H+  H248  1  0.56826131  0.41259699  0.45682846  1
  H+  H249  1  0.13911198  0.02917692  0.66426903  1
  H+  H250  1  0.86171780  0.89339427  -0.00036234  1
  H+  H251  1  0.06995417  0.67077104  0.92010730  1
  H+  H252  1  0.25656385  0.62969995  0.15307876  1
  H+  H253  1  0.35647540  0.86688147  0.82501529  1
  H+  H254  1  0.15345633  0.36580830  0.97785802  1
  H+  H255  1  0.09584821  0.12641438  0.82949196  1
  H+  H256  1  0.09681005  0.71055130  0.16384247  1
  H+  H257  1  0.88027671  0.26797336  0.65908341  1
  H+  H258  1  0.63682072  0.85735608  0.98071887  1
  H+  H259  1  0.59178805  0.25470166  0.85564600  1
  H+  H260  1  0.38467846  0.53368119  0.64499802  1
  H+  H261  1  0.37742651  0.89806635  0.50299129  1
  H+  H262  1  0.77138957  0.38129526  0.36056953  1
  H+  H263  1  0.83357823  0.90648915  0.72243274  1
  H+  H264  1  0.14269601  0.28019112  0.17160306  1
  H+  H265  1  0.02182774  0.88193413  0.49143854  1
  H+  H266  1  0.09136386  -0.02270725  0.34225553  1
  H+  H267  1  0.90514305  0.37614586  1.04785956  1
  H+  H268  1  0.85539646  0.38031686  0.17705059  1
  H+  H269  1  0.61724891  0.13484537  0.00701969  1
  H+  H270  1  0.27181115  0.13460052  0.67521370  1
  H+  H271  1  0.76533970  0.14304209  0.49622723  1
  H+  H272  1  0.35859469  0.39004322  0.65509441  1
  H+  H273  1  0.97249451  0.61632114  0.65463527  1
  H+  H274  1  0.75926693  0.37097497  0.83854369  1
  H+  H275  1  0.86548716  0.39522008  0.50623029  1
  H+  H276  1  0.38055283  0.40617614  0.00759095  1
  H+  H277  1  0.95549821  0.99914759  0.10508037  1
  H+  H278  1  0.10475008  0.63070207  0.48849510  1
  H+  H279  1  0.36094023  0.61757797  0.33577728  1
  H+  H280  1  0.50478702  0.37885911  0.51339632  1
  H+  H281  1  0.73493768  0.31254862  0.28476974  1
  H+  H282  1  0.37319431  0.35521859  0.51732499  1
  H+  H283  1  0.54660788  0.64372117  -0.01645685  1
  H+  H284  1  0.97246792  0.34995968  0.50436130  1
  H+  H285  1  0.29822359  0.75785553  0.14492241  1
  H+  H286  1  0.73668927  0.12650502  0.19154235  1
  H+  H287  1  0.36705781  0.22586538  1.00725609  1
  H+  H288  1  0.31391679  0.87523450  0.41457141  1
  H+  H289  1  0.69168230  0.11577068  0.91342546  1
  H+  H290  1  0.57641613  0.67653291  0.08690838  1
  H+  H291  1  0.82397470  0.66236403  0.42846752  1
  H+  H292  1  0.61693494  0.46154851  0.38274399  1
  H+  H293  1  0.58654734  0.16518992  0.73353515  1
  H+  H294  1  0.41054190  0.33693364  0.21497590  1
  H+  H295  1  0.91337556  0.83241794  0.55896135  1
  H+  H296  1  0.47041981  0.35972613  0.66430390  1
  H+  H297  1  0.67676651  0.08846077  0.28431334  1
  H+  H298  1  0.89947615  0.83291646  0.26392713  1
  H+  H299  1  0.88653430  0.43488132  0.74322806  1
  H+  H300  1  0.14508735  0.26923827  0.51042855  1
  H+  H301  1  0.21052680  0.35501924  0.89566962  1
  H+  H302  1  0.14566329  0.57592703  0.55166191  1
  H+  H303  1  0.07171387  0.65610721  0.10142603  1
  H+  H304  1  0.85986841  0.93650775  0.09391535  1
  H+  H305  1  0.26796348  0.12921673  0.49540852  1
  H+  H306  1  0.88485362  0.30462813  0.92705167  1
  H+  H307  1  0.93871277  0.86677531  0.92021558  1
  H+  H308  1  0.28024327  0.88160128  0.50458672  1
  H+  H309  1  0.58370525  0.91204421  0.71875866  1
  H+  H310  1  0.63284184  0.42979680  0.38094505  1
  H+  H311  1  0.51536794  0.63786836  0.67273691  1
  H+  H312  1  0.54245621  0.93712482  0.83849396  1
  H+  H313  1  0.66356515  0.33406234  0.60777918  1
  H+  H314  1  0.59281242  0.66292242  0.43631066  1
  H+  H315  1  0.91102639  0.33116606  0.25326160  1
  H+  H316  1  0.08432403  0.66770654  0.72248386  1
  H+  H317  1  0.97188782  0.36666984  0.19616979  1
  H+  H318  1  0.92526390  0.30340629  0.93418816  1
  H+  H319  1  0.33601411  0.20979064  0.82911028  1
  H+  H320  1  0.15759567  0.57990918  0.89897118  1
  H+  H321  1  0.66393100  0.58899376  0.60928188  1
  H+  H322  1  0.91727546  0.33098215  0.56710960  1
  H+  H323  1  0.83582002  0.17606677  0.43492534  1
  H+  H324  1  0.15659169  0.81831427  0.23770779  1
  H+  H325  1  0.61492820  0.60260439  0.33564949  1
  H+  H326  1  0.34184479  0.43867687  0.05888711  1
  H+  H327  1  0.87436303  0.11188957  0.00582390  1
  H+  H328  1  0.16931102  0.83130433  0.59707808  1
  H+  H329  1  0.91942647  0.10282144  0.26665196  1
  H+  H330  1  0.87837823  0.51213704  0.18842546  1
  H+  H331  1  0.66954364  0.09203264  0.56453746  1
  H+  H332  1  0.36925039  0.32346069  0.89074490  1
  H+  H333  1  0.57772199  0.95870309  0.11745320  1
  H+  H334  1  0.05925405  0.12674800  0.08025011  1
  H+  H335  1  0.17652948  0.35337322  0.26542487  1
  H+  H336  1  0.46177304  0.57991860  0.33589017  1
  H+  H337  1  0.83191570  0.41132830  0.41803615  1
  H+  H338  1  0.40414940  0.07882033  0.57715470  1
  H+  H339  1  0.55738047  0.13946698  0.08667316  1
  H+  H340  1  0.91494955  0.59330695  0.56265604  1
  H+  H341  1  0.77082327  0.38817490  0.67094431  1
  H+  H342  1  0.36353483  0.64028910  0.65791683  1
  H+  H343  1  0.79882277  0.88817011  0.43255636  1
  H+  H344  1  0.56832293  0.87203047  0.04919203  1
  H+  H345  1  0.08325113  0.91290580  0.72758330  1
  H+  H346  1  0.41676872  0.08003871  0.88833973  1
  H+  H347  1  0.33351762  0.90631282  0.73169521  1
  H+  H348  1  0.83659095  0.67378887  0.72958856  1
  H+  H349  1  0.34968702  0.22193912  0.15166760  1
  H+  H350  1  0.84899984  0.87610325  0.48860929  1
  H+  H351  1  0.09991045  0.63605051  0.86379529  1
  H+  H352  1  0.31968243  0.66493523  0.09462847  1
  H+  H353  1  0.13488912  0.84922883  0.17571781  1
  H+  H354  1  0.83320817  0.42124031  0.08228382  1
  H+  H355  1  0.56101052  0.65955735  0.77773971  1
  H+  H356  1  0.15782536  0.32972925  0.59977708  1
  H+  H357  1  0.67903226  0.61016790  0.24652220  1
  H+  H358  1  0.98953824  0.86511964  0.83290367  1
  H+  H359  1  0.62838724  0.39301044  0.01288194  1
  H+  H360  1  0.17363977  0.07230409  0.23199319  1
  H+  H361  1  0.63599822  0.03552294  0.50456198  1
  H+  H362  1  0.03217321  0.29996154  0.44404393  1
  H+  H363  1  0.06905120  0.15940155  0.77152322  1
  H+  H364  1  0.10698947  0.33243523  0.75009077  1
  H+  H365  1  0.08614453  0.42023362  0.39464317  1
  H+  H366  1  1.02525686  0.88117905  0.16682775  1
  H+  H367  1  0.31326614  0.85842804  0.08393347  1
  H+  H368  1  0.93926097  0.54938111  0.95256718  1
  H+  H369  1  0.65149112  0.28908889  0.21609856  1
  H+  H370  1  0.32883582  0.16070920  0.73498149  1
  H+  H371  1  0.53488830  0.38130002  0.76349480  1
  H+  H372  1  0.15441361  0.07218904  0.90056784  1
  H+  H373  1  0.27362845  0.87750209  0.82847720  1
  H+  H374  1  0.32068820  0.40413242  0.43126107  1
  H+  H375  1  0.08427838  0.91058877  0.10679878  1
  H+  H376  1  0.83283577  0.17571338  0.10557868  1
  H+  H377  1  0.67576654  0.83095512  0.92473740  1
  H+  H378  1  0.42279462  0.10388688  0.22833798  1
  H+  H379  1  0.39509543  0.81989813  0.93100552  1
  H+  H380  1  0.42103493  0.83964747  0.28556139  1
  H+  H381  1  0.10920652  0.10654454  0.29728264  1
  H+  H382  1  0.59054058  0.40588983  0.10329196  1
  H+  H383  1  0.87404184  0.14686294  0.83154641  1
  O2-  O384  1  0.08695100  0.17225228  0.15371435  1
  O2-  O385  1  0.08777512  0.16360335  0.46835240  1
  O2-  O386  1  0.06699226  0.15834259  0.81664287  1
  O2-  O387  1  0.08410260  0.41556389  0.12868210  1
  O2-  O388  1  0.05620854  0.35462332  0.46550853  1
  O2-  O389  1  0.10722398  0.36853311  0.78322652  1
  O2-  O390  1  0.06745686  0.65078726  0.14690129  1
  O2-  O391  1  0.08325782  0.67241119  0.47341161  1
  O2-  O392  1  0.06932732  0.67056308  0.87554631  1
  O2-  O393  1  0.08671763  0.91113842  0.15221916  1
  O2-  O394  1  0.08199562  0.90775657  0.47596906  1
  O2-  O395  1  0.08907172  0.91443453  0.80671125  1
  O2-  O396  1  0.32383226  0.16101768  0.13761228  1
  O2-  O397  1  0.33528840  0.16430421  0.48999706  1
  O2-  O398  1  0.31427898  0.15019924  0.81337186  1
  O2-  O399  1  0.33273999  0.43005089  0.13508817  1
  O2-  O400  1  0.33063736  0.40730143  0.50855369  1
  O2-  O401  1  0.34212107  0.53757504  0.83320878  1
  O2-  O402  1  0.31515836  0.67400773  0.13880482  1
  O2-  O403  1  0.26145359  0.59883408  0.44803134  1
  O2-  O404  1  0.29679020  0.64530503  0.80036703  1
  O2-  O405  1  0.29837965  0.81401605  0.14611751  1
  O2-  O406  1  0.33947472  0.91868288  0.48795625  1
  O2-  O407  1  0.33301854  0.90325714  0.81067724  1
  O2-  O408  1  0.55233477  0.13272780  0.13349200  1
  O2-  O409  1  0.60098798  0.18967735  0.46646528  1
  O2-  O410  1  0.58470072  0.16519494  0.81104565  1
  O2-  O411  1  0.56970925  0.37522830  0.14361381  1
  O2-  O412  1  0.56852501  0.41426898  0.50117052  1
  O2-  O413  1  0.50332518  0.35445355  0.80139062  1
  O2-  O414  1  0.57523798  0.68389089  0.13231501  1
  O2-  O415  1  0.59026581  0.66947658  0.48074701  1
  O2-  O416  1  0.57700946  0.67185111  0.82125359  1
  O2-  O417  1  0.57878952  0.94408291  0.15986932  1
  O2-  O418  1  0.55508539  0.91817625  0.49577361  1
  O2-  O419  1  0.58970774  0.93397456  0.85776526  1
  O2-  O420  1  0.83570242  0.17379541  0.15113893  1
  O2-  O421  1  0.82857074  0.17784339  0.48263596  1
  O2-  O422  1  0.84710887  0.18092803  0.80845066  1
  O2-  O423  1  0.82435232  0.40948048  0.16129459  1
  O2-  O424  1  0.83221013  0.42269716  0.49248004  1
  O2-  O425  1  0.92724800  0.45014248  0.77825125  1
  O2-  O426  1  0.83520585  0.68958118  0.13851236  1
  O2-  O427  1  0.82691532  0.66579182  0.47363917  1
  O2-  O428  1  0.84294361  0.67755532  0.80640761  1
  O2-  O429  1  0.90199481  0.96250730  0.12817303  1
  O2-  O430  1  0.81490037  0.90369367  0.47570082  1
  O2-  O431  1  0.83597722  0.90139888  0.79367821  1
  O2-  O432  1  0.16396207  0.07342522  0.18843384  1
  O2-  O433  1  0.17641089  0.07802594  0.50426569  1
  O2-  O434  1  0.15207313  0.06989740  0.85544073  1
  O2-  O435  1  0.17249169  0.34259036  0.18221597  1
  O2-  O436  1  0.16861684  0.32869054  0.52498421  1
  O2-  O437  1  0.22885876  0.36978066  0.85105689  1
  O2-  O438  1  0.15658055  0.57414065  0.18380046  1
  O2-  O439  1  0.12946719  0.56713599  0.50851044  1
  O2-  O440  1  0.14135472  0.58183812  0.85588686  1
  O2-  O441  1  0.15557533  0.81121389  0.19228480  1
  O2-  O442  1  0.17099978  0.82913964  0.52126382  1
  O2-  O443  1  0.17629878  0.84174791  0.86105673  1
  O2-  O444  1  0.41487471  0.09208317  0.18372584  1
  O2-  O445  1  0.40109523  0.08308060  0.53209346  1
  O2-  O446  1  0.41533775  0.07630254  0.84328043  1
  O2-  O447  1  0.40612901  0.32958809  0.16979632  1
  O2-  O448  1  0.40637781  0.32185821  0.52888297  1
  O2-  O449  1  0.35580032  0.31123767  0.84776465  1
  O2-  O450  1  0.42059615  0.60192420  0.17291483  1
  O2-  O451  1  0.41820306  0.59167179  0.51369525  1
  O2-  O452  1  0.48730752  0.62263668  0.92986126  1
  O2-  O453  1  0.43275375  0.88937663  0.22713671  1
  O2-  O454  1  0.48197908  0.88677709  0.52189853  1
  O2-  O455  1  0.39041724  0.79150693  0.85395370  1
  O2-  O456  1  0.68069002  0.10269620  0.21272538  1
  O2-  O457  1  0.67211970  0.09539295  0.51875427  1
  O2-  O458  1  0.69148432  0.11565089  0.86749931  1
  O2-  O459  1  0.65083407  0.28797937  0.17058734  1
  O2-  O460  1  0.66611404  0.34026793  0.53099224  1
  O2-  O461  1  0.57934749  0.29413857  0.87908336  1
  O2-  O462  1  0.66452370  0.61878845  0.17103693  1
  O2-  O463  1  0.66822401  0.58687815  0.52844288  1
  O2-  O464  1  0.71451060  0.66021137  0.87053087  1
  O2-  O465  1  0.64170583  0.84276783  0.17350451  1
  O2-  O466  1  0.65548046  0.83222928  0.52041147  1
  O2-  O467  1  0.67494724  0.83460640  0.85049140  1
  O2-  O468  1  0.92311790  0.10163427  0.19210754  1
  O2-  O469  1  0.91936757  0.07277503  0.52242111  1
  O2-  O470  1  0.91084129  0.10269693  0.86048748  1
  O2-  O471  1  0.91121276  0.33354875  0.20693375  1
  O2-  O472  1  0.91384714  0.33184397  0.52144054  1
  O2-  O473  1  0.95541020  0.33560715  0.81887874  1
  O2-  O474  1  0.91433223  0.57319283  0.20142834  1
  O2-  O475  1  0.91562020  0.59038733  0.51721091  1
  O2-  O476  1  0.90466054  0.57175650  0.84777733  1
  O2-  O477  1  0.92238325  0.84026350  0.18944151  1
  O2-  O478  1  0.91227157  0.83394141  0.51330983  1
  O2-  O479  1  0.93038386  0.83783233  0.85130918  1
  O2-  O480  1  0.14257735  0.09687310  0.32810600  1
  O2-  O481  1  0.17382670  0.09134958  0.65579660  1
  O2-  O482  1  0.15974760  0.07451902  0.98151161  1
  O2-  O483  1  0.16602510  0.35221791  0.30967553  1
  O2-  O484  1  0.15529441  0.33421793  0.64549482  1
  O2-  O485  1  0.18606100  0.33758507  0.96446120  1
  O2-  O486  1  0.16687415  0.59279054  0.31061158  1
  O2-  O487  1  0.17301996  0.59338490  0.63492753  1
  O2-  O488  1  0.17075483  0.58813519  0.97728972  1
  O2-  O489  1  0.15707916  0.83042166  0.31400175  1
  O2-  O490  1  0.16789938  0.83123939  0.64299740  1
  O2-  O491  1  0.16974157  0.83582039  0.98507144  1
  O2-  O492  1  0.42980588  0.11906728  0.30700336  1
  O2-  O493  1  0.41146404  0.07407813  0.65540706  1
  O2-  O494  1  0.41781010  0.08756517  0.96843039  1
  O2-  O495  1  0.44199202  0.35497676  0.29049729  1
  O2-  O496  1  0.40963555  0.32793707  0.64971748  1
  O2-  O497  1  0.42756135  0.33920857  1.01958141  1
  O2-  O498  1  0.40091136  0.55197717  0.32455638  1
  O2-  O499  1  0.41634156  0.59708435  0.63578149  1
  O2-  O500  1  0.39845929  0.58196977  0.95123904  1
  O2-  O501  1  0.41213409  0.81487869  0.32921231  1
  O2-  O502  1  0.41066242  0.82398168  0.64770936  1
  O2-  O503  1  0.40979291  0.83206144  0.97491494  1
  O2-  O504  1  0.66979012  0.08058032  0.33028266  1
  O2-  O505  1  0.66726981  0.08419493  0.64023639  1
  O2-  O506  1  0.67988426  0.09803058  0.98936182  1
  O2-  O507  1  0.67901563  0.30796286  0.29080928  1
  O2-  O508  1  0.66527404  0.33541215  0.65337830  1
  O2-  O509  1  0.67605627  0.33804144  0.99080214  1
  O2-  O510  1  0.68120809  0.59054564  0.28886487  1
  O2-  O511  1  0.66182176  0.58818347  0.65456091  1
  O2-  O512  1  0.68098639  0.58370847  0.98602668  1
  O2-  O513  1  0.74461727  0.84582133  0.35862992  1
  O2-  O514  1  0.65666498  0.82727599  0.64333481  1
  O2-  O515  1  0.67186006  0.83091008  0.97059218  1
  O2-  O516  1  0.91822080  0.09859771  0.31249206  1
  O2-  O517  1  0.91232811  0.08120983  0.64421778  1
  O2-  O518  1  0.90363095  0.08146477  0.98735442  1
  O2-  O519  1  0.91762812  0.33254931  0.32584354  1
  O2-  O520  1  0.91064560  0.32806608  0.64264580  1
  O2-  O521  1  0.94137625  0.34955622  1.05851615  1
  O2-  O522  1  0.92710449  0.59410853  0.31069145  1
  O2-  O523  1  0.91201478  0.58579899  0.64028134  1
  O2-  O524  1  0.93140823  0.57057028  0.99128375  1
  O2-  O525  1  0.89319836  0.82874252  0.30962454  1
  O2-  O526  1  0.91667440  0.83028683  0.63657289  1
  O2-  O527  1  0.94923486  0.89428976  0.96238221  1
  O2-  O528  1  0.03637680  0.08387973  0.04668460  1
  O2-  O529  1  0.09379782  0.17652347  0.40947546  1
  O2-  O530  1  0.07590262  0.16692204  0.69091644  1
  O2-  O531  1  0.10830725  0.42458420  0.00929895  1
  O2-  O532  1  0.08359559  0.42760210  0.35022791  1
  O2-  O533  1  0.07559666  0.42977765  0.67449384  1
  O2-  O534  1  0.08391871  0.66241109  0.02339943  1
  O2-  O535  1  0.08010256  0.66757706  0.35377794  1
  O2-  O536  1  0.08273391  0.66941898  0.67828570  1
  O2-  O537  1  0.08833798  0.91559779  0.02820543  1
  O2-  O538  1  0.06527819  0.91538090  0.35158215  1
  O2-  O539  1  0.08050654  0.91393958  0.68229207  1
  O2-  O540  1  0.33327649  0.16279330  0.01446863  1
  O2-  O541  1  0.33932716  0.20488021  0.33790277  1
  O2-  O542  1  0.33403645  0.16277084  0.68979627  1
  O2-  O543  1  0.34858843  0.43732280  0.01359265  1
  O2-  O544  1  0.31811671  0.39351680  0.38636195  1
  O2-  O545  1  0.33373705  0.42778837  0.64788985  1
  O2-  O546  1  0.33603799  0.66572757  0.01617438  1
  O2-  O547  1  0.34026444  0.65966116  0.34113742  1
  O2-  O548  1  0.33217196  0.67132881  0.67351648  1
  O2-  O549  1  0.32699034  0.89411762  0.04440062  1
  O2-  O550  1  0.29865651  0.84081251  0.37663504  1
  O2-  O551  1  0.33677485  0.90820811  0.68628156  1
  O2-  O552  1  0.58046280  0.16068445  0.02006637  1
  O2-  O553  1  0.58821621  0.17038324  0.35074238  1
  O2-  O554  1  0.58237981  0.16569873  0.68811107  1
  O2-  O555  1  0.59864748  0.42364194  0.02951078  1
  O2-  O556  1  0.61392477  0.42104968  0.26129509  1
  O2-  O557  1  0.57573941  0.41582564  0.68823002  1
  O2-  O558  1  0.59680805  0.66771442  0.01537014  1
  O2-  O559  1  0.57367860  0.60380449  0.36628490  1
  O2-  O560  1  0.57229561  0.66705789  0.69383317  1
  O2-  O561  1  0.57203140  0.90210908  0.01138796  1
  O2-  O562  1  0.63647552  0.91045251  0.34663805  1
  O2-  O563  1  0.57767940  0.90832010  0.67470852  1
  O2-  O564  1  0.82960154  0.17062794  0.02802999  1
  O2-  O565  1  0.84214143  0.17507263  0.37013340  1
  O2-  O566  1  0.82987315  0.16223065  0.68378999  1
  O2-  O567  1  0.84008453  0.41750137  0.03770868  1
  O2-  O568  1  0.83060847  0.40219564  0.37284301  1
  O2-  O569  1  0.83496297  0.41798483  0.67639696  1
  O2-  O570  1  0.85254797  0.65573022  0.01377047  1
  O2-  O571  1  0.83584419  0.66521169  0.34734412  1
  O2-  O572  1  0.83260603  0.66885437  0.68410672  1
  O2-  O573  1  0.82527115  0.91210031  0.02122708  1
  O2-  O574  1  0.85354445  1.00673015  0.31880265  1
  O2-  O575  1  0.83369116  0.91152963  0.67614087  1
