# generated using pymatgen
data_H2O
_symmetry_space_group_name_H-M   'P 1'
_cell_length_a   17.98337957
_cell_length_b   17.98387577
_cell_length_c   22.01117617
_cell_angle_alpha   89.97603645
_cell_angle_beta   90.02989941
_cell_angle_gamma   119.98388814
_symmetry_Int_Tables_number   1
_chemical_formula_structural   H2O
_chemical_formula_sum   'H384 O192'
_cell_volume   6165.93448960
_cell_formula_units_Z   192
loop_
 _symmetry_equiv_pos_site_id
 _symmetry_equiv_pos_as_xyz
  1  'x, y, z'
loop_
 _atom_type_symbol
 _atom_type_oxidation_number
  H+  1.0
  O2-  -2.0
loop_
 _atom_site_type_symbol
 _atom_site_label
 _atom_site_symmetry_multiplicity
 _atom_site_fract_x
 _atom_site_fract_y
 _atom_site_fract_z
 _atom_site_occupancy
  H+  H0  1  0.03397884  0.40027908  0.83642216  1
  H+  H1  1  0.78309499  0.64708757  0.15131073  1
  H+  H2  1  0.65338669  0.53260967  0.83981414  1
  H+  H3  1  0.28737056  0.67585608  0.53918728  1
  H+  H4  1  0.77996032  0.38525753  0.16063256  1
  H+  H5  1  0.96885910  0.60843110  0.18543023  1
  H+  H6  1  0.83071434  -0.07033028  0.38776414  1
  H+  H7  1  0.02938042  0.65314918  -0.02131513  1
  H+  H8  1  0.86662512  0.88534829  0.00258279  1
  H+  H9  1  0.36864525  0.22371462  0.68642774  1
  H+  H10  1  0.32612812  0.60246962  0.02002206  1
  H+  H11  1  0.58982479  0.16384712  0.10247479  1
  H+  H12  1  0.11878129  0.38364711  0.34978909  1
  H+  H13  1  0.12050359  0.64588051  0.50532089  1
  H+  H14  1  0.37143342  0.72345304  0.31448489  1
  H+  H15  1  0.87085549  0.39773776  0.50539306  1
  H+  H16  1  0.42583348  0.27428238  0.95198138  1
  H+  H17  1  0.64317823  1.02975247  0.85877961  1
  H+  H18  1  0.90056587  0.88975434  0.66430046  1
  H+  H19  1  0.59452531  0.99880251  0.64202984  1
  H+  H20  1  -0.02904903  0.84747663  0.50901291  1
  H+  H21  1  0.47674716  0.35974054  0.67612516  1
  H+  H22  1  0.60662777  0.46796671  0.67538750  1
  H+  H23  1  0.64542750  0.26973221  0.17484315  1
  H+  H24  1  0.52813063  0.89409811  0.00605362  1
  H+  H25  1  0.26288128  0.88174813  0.96427184  1
  H+  H26  1  0.76763570  0.13690607  0.00556825  1
  H+  H27  1  0.40003640  0.02227848  0.17644035  1
  H+  H28  1  0.63624173  0.36113430  0.99165476  1
  H+  H29  1  0.65309788  0.11927243  0.17132425  1
  H+  H30  1  0.57662066  0.15826837  0.77133594  1
  H+  H31  1  0.37987558  0.10104124  0.66862094  1
  H+  H32  1  0.39308477  0.61565402  0.17579294  1
  H+  H33  1  0.72705067  0.36337704  0.51152283  1
  H+  H34  1  0.64039685  0.87756517  0.32071649  1
  H+  H35  1  0.00382100  0.89461591  0.66483465  1
  H+  H36  1  0.64616976  0.53823096  0.30756639  1
  H+  H37  1  0.53473020  0.13394200  0.16388829  1
  H+  H38  1  0.87850267  0.10827579  -0.00815350  1
  H+  H39  1  0.77140528  0.89569617  0.32876635  1
  H+  H40  1  0.67239462  0.43309380  0.34198643  1
  H+  H41  1  0.38531298  0.35608446  0.68488406  1
  H+  H42  1  0.72968649  0.11569413  0.32138267  1
  H+  H43  1  0.77393178  0.38434817  1.00521021  1
  H+  H44  1  0.64611112  0.28425418  0.32997164  1
  H+  H45  1  0.35951804  0.11916661  0.83769251  1
  H+  H46  1  0.85446698  0.47358585  0.64295649  1
  H+  H47  1  0.07035673  0.89329227  0.39358005  1
  H+  H48  1  0.67282211  0.83212287  0.90575729  1
  H+  H49  1  0.26585137  0.37809942  0.79856203  1
  H+  H50  1  0.76332535  0.58762206  0.36943161  1
  H+  H51  1  0.86401386  0.97387289  0.00311208  1
  H+  H52  1  0.38982854  0.62051143  0.46373516  1
  H+  H53  1  0.61542948  0.89031922  0.85852380  1
  H+  H54  1  0.83056300  0.67097960  0.73380716  1
  H+  H55  1  0.52725161  0.37834635  0.16400081  1
  H+  H56  1  0.23972442  0.39197883  0.52537135  1
  H+  H57  1  0.39351833  0.88581703  0.49576344  1
  H+  H58  1  0.37171881  0.85300232  0.99367323  1
  H+  H59  1  0.28497343  0.38209647  0.18550832  1
  H+  H60  1  0.10332508  0.12463781  0.82186837  1
  H+  H61  1  0.86368455  0.97320959  0.82351312  1
  H+  H62  1  0.83980208  -0.06852797  0.56642949  1
  H+  H63  1  0.88193056  0.61100017  0.17176877  1
  H+  H64  1  0.11940402  0.14762364  0.68364373  1
  H+  H65  1  0.10791590  1.02377841  0.54235673  1
  H+  H66  1  0.79408067  0.63707040  0.83853436  1
  H+  H67  1  0.88874930  0.64573139  0.83568825  1
  H+  H68  1  0.76354590  0.63752695  0.68105961  1
  H+  H69  1  0.63172403  0.78103819  0.50717467  1
  H+  H70  1  0.87059718  0.84031758  0.33441369  1
  H+  H71  1  0.46882160  0.10726259  0.84299231  1
  H+  H72  1  0.97450098  0.11299241  0.83963704  1
  H+  H73  1  0.12355460  0.99062345  0.67645826  1
  H+  H74  1  0.88883070  0.13650061  0.50833386  1
  H+  H75  1  0.37018909  0.24863546  0.33471515  1
  H+  H76  1  0.34663242  0.16829011  0.10975996  1
  H+  H77  1  0.23400934  0.35916251  0.33855934  1
  H+  H78  1  0.38566213  0.65530213  0.52867489  1
  H+  H79  1  0.37987339  0.77058631  0.53048209  1
  H+  H80  1  -0.01682520  0.37474805  0.66627222  1
  H+  H81  1  0.72700963  0.86242341  0.84255024  1
  H+  H82  1  0.47401804  0.61128410  0.69604817  1
  H+  H83  1  0.35657403  0.46248740  0.71401867  1
  H+  H84  1  0.36127971  0.11485585  0.33616553  1
  H+  H85  1  0.14385820  0.60735530  0.18119530  1
  H+  H86  1  0.13592778  -0.01889320  0.12902873  1
  H+  H87  1  0.15558808  0.54640710  0.51373249  1
  H+  H88  1  0.03159045  0.38671645  0.16844307  1
  H+  H89  1  0.89151183  0.52443879  0.52930992  1
  H+  H90  1  0.86384349  0.12410639  0.14887329  1
  H+  H91  1  0.87139187  0.47944221  0.34703891  1
  H+  H92  1  0.11700018  0.88300756  -0.02708410  1
  H+  H93  1  0.25655163  0.31307461  0.00636915  1
  H+  H94  1  0.13898350  0.88813040  0.14084823  1
  H+  H95  1  0.76636736  0.12252647  0.15560001  1
  H+  H96  1  0.02879719  0.13413487  0.15166371  1
  H+  H97  1  0.22649906  0.87126314  0.85090935  1
  H+  H98  1  0.85866690  0.39035566  0.66088533  1
  H+  H99  1  0.64252739  0.35696469  0.17287752  1
  H+  H100  1  0.64398086  0.87021840  -0.00752135  1
  H+  H101  1  0.02596015  0.16340214  0.50471029  1
  H+  H102  1  0.12073058  0.00159771  0.31719267  1
  H+  H103  1  0.70862062  0.60803022  0.51913596  1
  H+  H104  1  0.21611218  0.62310282  0.66834477  1
  H+  H105  1  0.39860254  0.36083767  0.18979597  1
  H+  H106  1  0.64628337  0.79127308  0.31196110  1
  H+  H107  1  0.62017116  0.59843310  -0.00939220  1
  H+  H108  1  0.43131842  0.59025344  0.23298381  1
  H+  H109  1  0.86008181  0.22637964  1.00830190  1
  H+  H110  1  0.28395709  0.63206365  0.31193994  1
  H+  H111  1  0.48483742  0.88526807  0.49661186  1
  H+  H112  1  0.48281714  0.11467764  0.32968346  1
  H+  H113  1  0.86370178  0.47760981  0.16023386  1
  H+  H114  1  0.72758192  0.12767579  0.50861919  1
  H+  H115  1  0.61464095  0.46629636  0.16108223  1
  H+  H116  1  0.62993844  0.45424384  0.39663341  1
  H+  H117  1  0.49173674  0.36554622  0.97865511  1
  H+  H118  1  0.63152839  0.88772303  0.16305393  1
  H+  H119  1  0.11592796  0.40811996  0.01011497  1
  H+  H120  1  0.66169104  0.62537576  0.84220107  1
  H+  H121  1  0.17423652  0.30277082  0.91925132  1
  H+  H122  1  0.63313547  0.26759683  0.66061898  1
  H+  H123  1  0.86345653  0.14287874  0.83075957  1
  H+  H124  1  0.12520553  0.62023050  0.66159036  1
  H+  H125  1  0.90213430  0.37642633  0.17635881  1
  H+  H126  1  0.83211884  0.91702428  0.09541715  1
  H+  H127  1  0.61366190  0.23096126  0.49474180  1
  H+  H128  1  0.14901774  0.30403079  0.52619771  1
  H+  H129  1  0.01983497  0.63992608  0.65686391  1
  H+  H130  1  0.27137882  0.89204586  0.49394871  1
  H+  H131  1  0.23924971  0.86672062  0.16966375  1
  H+  H132  1  0.48602755  0.87121632  0.17244282  1
  H+  H133  1  0.47639029  0.06612541  0.00192785  1
  H+  H134  1  0.38197223  0.77844777  0.84403322  1
  H+  H135  1  0.11704177  0.72290686  0.80286275  1
  H+  H136  1  0.87145706  0.13335177  0.32102077  1
  H+  H137  1  -0.02764909  0.61617813  -0.10309896  1
  H+  H138  1  0.61891446  -0.01291349  0.48942463  1
  H+  H139  1  0.88562934  0.02286831  0.15570327  1
  H+  H140  1  0.77082415  0.89375625  0.51562521  1
  H+  H141  1  0.52747133  0.89362676  0.85932448  1
  H+  H142  1  0.65695553  0.27501125  0.83754835  1
  H+  H143  1  0.20024697  0.09820720  0.98550492  1
  H+  H144  1  0.86876884  0.23474093  0.83461909  1
  H+  H145  1  0.59577846  0.67424335  0.73809693  1
  H+  H146  1  0.28338354  0.20888666  0.03566612  1
  H+  H147  1  0.22740587  0.86741315  0.32292315  1
  H+  H148  1  0.10444531  0.85985206  0.49109383  1
  H+  H149  1  0.23431679  0.12015322  0.68088789  1
  H+  H150  1  0.35804455  0.98515905  0.49422518  1
  H+  H151  1  0.03146649  0.64328799  0.51312179  1
  H+  H152  1  0.78457902  0.38958980  0.34663749  1
  H+  H153  1  0.40013424  0.61529105  0.31681321  1
  H+  H154  1  0.61315793  0.47691109  0.00168523  1
  H+  H155  1  0.14802035  0.26723008  0.33131584  1
  H+  H156  1  0.76863652  0.90030420  0.15185848  1
  H+  H157  1  0.11892959  0.39851085  0.68313866  1
  H+  H158  1  0.89443236  0.49214596  0.84273243  1
  H+  H159  1  0.08503955  0.66057644  0.23604227  1
  H+  H160  1  0.86176175  0.88258537  0.82224728  1
  H+  H161  1  0.11004250  0.74030851  0.94897394  1
  H+  H162  1  0.49029136  0.84196351  0.65341006  1
  H+  H163  1  0.62513083  0.64752011  0.31539340  1
  H+  H164  1  0.52691608  0.65607546  0.15682573  1
  H+  H165  1  0.88479998  0.61323795  1.00062011  1
  H+  H166  1  0.14305933  0.10794777  0.14652069  1
  H+  H167  1  0.13615673  0.62633700  0.81636721  1
  H+  H168  1  0.87749902  0.25833002  0.50918272  1
  H+  H169  1  0.54046608  0.97008921  0.12328791  1
  H+  H170  1  0.37376288  0.47247933  0.18451269  1
  H+  H171  1  0.72144644  0.35921903  0.65342746  1
  H+  H172  1  0.40118146  0.11262778  0.17624299  1
  H+  H173  1  0.63580501  0.27222072  0.99499702  1
  H+  H174  1  0.38129739  0.22839085  0.16850923  1
  H+  H175  1  0.62458994  0.73166674  0.83252689  1
  H+  H176  1  0.72995209  0.86542813  -0.00472146  1
  H+  H177  1  0.34921949  0.20382653  0.84205085  1
  H+  H178  1  0.68099794  0.33862852  0.26905604  1
  H+  H179  1  0.87715976  0.15387314  0.68118432  1
  H+  H180  1  0.90588657  0.90054950  0.18513770  1
  H+  H181  1  0.26991662  0.37832813  0.69811391  1
  H+  H182  1  0.07884885  0.40856988  0.07523787  1
  H+  H183  1  0.63427639  0.63857434  0.15219138  1
  H+  H184  1  0.13831096  0.76908931  0.50810697  1
  H+  H185  1  0.34735801  0.49052902  -0.03992312  1
  H+  H186  1  0.61112105  0.72386855  0.67467133  1
  H+  H187  1  0.23299878  0.12067174  0.07154689  1
  H+  H188  1  0.80507868  0.40159810  0.83907228  1
  H+  H189  1  0.62298623  0.60087651  0.66835549  1
  H+  H190  1  0.35101352  0.64411136  0.82121695  1
  H+  H191  1  0.41751874  0.56252470  0.78713816  1
  H+  H192  1  0.36636928  0.97418573  0.33930131  1
  H+  H193  1  0.25915721  0.64385109  0.82017117  1
  H+  H194  1  0.53385101  0.42450193  0.82179533  1
  H+  H195  1  0.60623410  0.37057719  0.48123967  1
  H+  H196  1  0.39260824  0.26803441  0.51360255  1
  H+  H197  1  0.37987737  1.01792370  0.84311896  1
  H+  H198  1  0.11330328  0.48520034  0.67937622  1
  H+  H199  1  0.85384432  0.71476682  0.51306300  1
  H+  H200  1  0.17249095  0.18309903  0.53489020  1
  H+  H201  1  0.28052512  0.63926368  0.16224511  1
  H+  H202  1  0.13994041  0.28238959  0.67341815  1
  H+  H203  1  0.10751140  0.96615608  -0.01255548  1
  H+  H204  1  0.54305259  0.63569117  0.82542117  1
  H+  H205  1  0.00490133  0.62694107  0.82777711  1
  H+  H206  1  0.38920133  0.86308643  0.32829153  1
  H+  H207  1  0.97160161  0.86038095  0.83499905  1
  H+  H208  1  0.39986689  0.39243615  0.52914092  1
  H+  H209  1  0.88821050  0.85983304  0.51749675  1
  H+  H210  1  0.13458956  0.86229157  0.32067503  1
  H+  H211  1  0.21644432  0.09787670  0.83453820  1
  H+  H212  1  0.14112378  0.35645894  0.17659479  1
  H+  H213  1  0.64995823  0.57524492  0.11403806  1
  H+  H214  1  0.11112278  0.11480070  0.31898541  1
  H+  H215  1  0.63630020  0.87305426  0.50501207  1
  H+  H216  1  0.35667422  0.88379193  0.83410067  1
  H+  H217  1  0.62427470  0.61563283  0.52118070  1
  H+  H218  1  0.86425793  0.74840257  0.34109636  1
  H+  H219  1  0.73095067  0.12238639  0.84717743  1
  H+  H220  1  0.60684173  0.13222346  0.83218628  1
  H+  H221  1  0.09385050  0.31028037  0.94507345  1
  H+  H222  1  0.34960842  0.32630508  -0.00099537  1
  H+  H223  1  0.13992928  0.60599581  0.31786511  1
  H+  H224  1  0.87127069  -0.01310263  0.67400406  1
  H+  H225  1  0.88373254  0.60840401  0.33792023  1
  H+  H226  1  0.66102454  0.32835148  0.56753498  1
  H+  H227  1  0.97993709  0.10805894  0.30427332  1
  H+  H228  1  0.16762063  0.32397108  0.23581173  1
  H+  H229  1  0.10530444  0.97062051  0.82083860  1
  H+  H230  1  0.52620044  0.64832709  0.98737018  1
  H+  H231  1  0.11398102  0.71937127  0.17781392  1
  H+  H232  1  0.89514833  0.27946435  0.33101665  1
  H+  H233  1  0.03108368  0.38668576  0.34959900  1
  H+  H234  1  1.02352294  0.63756293  0.32005995  1
  H+  H235  1  0.11478292  0.72753464  0.31571048  1
  H+  H236  1  0.26233924  0.18583096  0.53398228  1
  H+  H237  1  0.60150990  0.12457885  0.67368960  1
  H+  H238  1  0.66811537  0.83238063  0.59964474  1
  H+  H239  1  0.33844000  0.30487234  0.30344648  1
  H+  H240  1  -0.07039518  0.85796423  0.23711124  1
  H+  H241  1  0.63479359  0.02766675  0.99334639  1
  H+  H242  1  0.97329258  0.85326305  0.98461757  1
  H+  H243  1  0.13940605  0.53602822  0.82988670  1
  H+  H244  1  0.34056301  0.85412090  0.68207146  1
  H+  H245  1  0.38022242  0.36401789  0.82422124  1
  H+  H246  1  0.64962035  0.57156202  0.60772860  1
  H+  H247  1  0.52361009  0.14176192  0.49555098  1
  H+  H248  1  0.37698333  0.88172930  0.16605471  1
  H+  H249  1  0.38476587  0.77153753  0.99889741  1
  H+  H250  1  0.15128190  0.02881324  0.53463212  1
  H+  H251  1  0.38041684  0.48676789  0.35128420  1
  H+  H252  1  0.72527418  0.86353114  0.65984229  1
  H+  H253  1  0.36213697  0.74390302  0.61785450  1
  H+  H254  1  0.61691527  0.13019835  1.00380801  1
  H+  H255  1  0.53661385  0.39830728  0.48509415  1
  H+  H256  1  0.60878332  0.37889297  0.67452212  1
  H+  H257  1  0.17542426  0.84838075  0.22585779  1
  H+  H258  1  0.89263024  0.52815041  1.00072506  1
  H+  H259  1  0.21191979  0.08635155  0.31342244  1
  H+  H260  1  0.61678256  0.14401328  0.33967583  1
  H+  H261  1  0.36522274  0.50617856  0.50920726  1
  H+  H262  1  -0.01106838  0.38337465  0.51750859  1
  H+  H263  1  0.15045400  0.63934854  -0.03356459  1
  H+  H264  1  0.26469449  0.63770428  0.99292026  1
  H+  H265  1  0.89564843  0.36875883  0.33873441  1
  H+  H266  1  0.09917603  0.21159577  -0.00439820  1
  H+  H267  1  0.11105641  0.09506753  -0.01805803  1
  H+  H268  1  0.49204591  0.62097026  0.32809913  1
  H+  H269  1  0.63857126  0.02323113  0.16828896  1
  H+  H270  1  0.41350663  0.66723484  0.95035756  1
  H+  H271  1  0.14166753  0.51825082  0.33102863  1
  H+  H272  1  0.88736039  0.04571640  0.51238953  1
  H+  H273  1  0.39421545  0.12865290  0.51630913  1
  H+  H274  1  0.13617566  0.86394466  0.65781621  1
  H+  H275  1  0.58712708  0.86539227  0.64661723  1
  H+  H276  1  0.12417377  0.47140048  0.16336682  1
  H+  H277  1  0.89576311  0.28247067  0.66532000  1
  H+  H278  1  0.37186563  0.46687447  0.95923251  1
  H+  H279  1  0.85405710  0.72278742  -0.00226186  1
  H+  H280  1  0.23328053  0.10914874  0.16042766  1
  H+  H281  1  0.42653497  0.50448220  0.83827284  1
  H+  H282  1  0.85323122  0.62723770  0.52058648  1
  H+  H283  1  0.61571629  -0.01572130  0.33549593  1
  H+  H284  1  0.96976895  0.35427718  1.00391733  1
  H+  H285  1  0.51850390  0.13267377  0.67787408  1
  H+  H286  1  0.90366280  0.37400693  0.84915330  1
  H+  H287  1  -0.01411970  0.12202125  0.66513765  1
  H+  H288  1  0.26249849  0.87083674  0.67516168  1
  H+  H289  1  0.12647682  0.41100704  0.50756301  1
  H+  H290  1  0.33687533  0.70270802  0.42112567  1
  H+  H291  1  0.41425538  0.08286400  0.57079566  1
  H+  H292  1  0.38486400  0.61134521  0.69453922  1
  H+  H293  1  0.66325520  0.85844183  0.22150183  1
  H+  H294  1  0.90340102  0.58014673  0.27244175  1
  H+  H295  1  0.36633472  0.21585735  0.45223818  1
  H+  H296  1  0.17911875  0.35163871  0.61909704  1
  H+  H297  1  0.39806479  0.77577307  0.17419496  1
  H+  H298  1  0.57640573  0.94796859  0.73352807  1
  H+  H299  1  0.12735980  0.76965192  0.65566572  1
  H+  H300  1  0.68253337  0.33040176  0.89700748  1
  H+  H301  1  0.11844459  0.72272831  0.07170836  1
  H+  H302  1  0.58464880  0.95613723  0.76717158  1
  H+  H303  1  0.09689759  0.20896789  0.45302147  1
  H+  H304  1  0.91284826  0.83092097  0.92649180  1
  H+  H305  1  0.38033906  0.01201977  0.66427244  1
  H+  H306  1  0.18527313  0.60615935  0.91477628  1
  H+  H307  1  0.18738359  0.12092124  0.62115508  1
  H+  H308  1  0.93083584  0.84913343  0.60390610  1
  H+  H309  1  0.35651971  0.91786585  0.10588329  1
  H+  H310  1  0.83633230  0.21414535  0.44723772  1
  H+  H311  1  0.38142271  0.40076417  0.36568188  1
  H+  H312  1  0.33063229  0.91677955  0.39876204  1
  H+  H313  1  0.09549751  0.43122370  0.44436476  1
  H+  H314  1  0.88760433  0.76754885  0.83904795  1
  H+  H315  1  0.09739426  0.94338948  0.48542787  1
  H+  H316  1  0.58020663  0.41274662  0.06002243  1
  H+  H317  1  0.43278138  0.32277973  0.24021487  1
  H+  H318  1  0.63576314  0.12091804  0.50102032  1
  H+  H319  1  0.30371427  0.65569556  0.42159819  1
  H+  H320  1  0.91776261  0.08433143  0.21400870  1
  H+  H321  1  0.29890174  0.44049487  0.07145060  1
  H+  H322  1  0.33280589  0.68907112  0.73745701  1
  H+  H323  1  0.58535345  0.17166626  0.39981085  1
  H+  H324  1  0.84218477  0.42742778  0.44562720  1
  H+  H325  1  0.76426885  0.63328205  0.00100464  1
  H+  H326  1  0.56685155  0.65954614  0.05368768  1
  H+  H327  1  0.64521893  0.07488041  0.59688574  1
  H+  H328  1  0.83825971  0.66378655  0.09262786  1
  H+  H329  1  0.26545188  0.87684926  0.03326586  1
  H+  H330  1  0.93172080  0.35201605  0.23800409  1
  H+  H331  1  0.42648240  0.08116931  0.26826349  1
  H+  H332  1  0.07522896  0.66606045  0.72487221  1
  H+  H333  1  0.16717526  0.83509626  0.56469155  1
  H+  H334  1  0.58982188  0.92661471  0.43003242  1
  H+  H335  1  0.08200154  0.17443461  0.73969130  1
  H+  H336  1  0.84502156  0.18457724  0.73805486  1
  H+  H337  1  0.32258923  0.90563923  0.77301434  1
  H+  H338  1  0.06407710  0.12453387  0.37606694  1
  H+  H339  1  0.91158904  0.07865834  0.89697210  1
  H+  H340  1  0.33570178  0.67040318  0.10148103  1
  H+  H341  1  0.42518797  0.84061948  0.26825043  1
  H+  H342  1  0.08661727  0.42758949  0.77505769  1
  H+  H343  1  0.82564534  0.15601269  0.08766296  1
  H+  H344  1  0.65158773  0.58032514  0.24111855  1
  H+  H345  1  0.10645379  0.88290166  0.82661997  1
  H+  H346  1  0.58662382  0.92835969  0.06552576  1
  H+  H347  1  0.92409737  0.33094939  0.90609906  1
  H+  H348  1  0.40802332  0.83152845  0.90659919  1
  H+  H349  1  0.12890413  0.22048912  0.83200029  1
  H+  H350  1  0.67134102  0.08776929  0.26250405  1
  H+  H351  1  0.08686675  0.92042684  0.73184130  1
  H+  H352  1  0.10672294  0.90966273  0.06956205  1
  H+  H353  1  0.16930983  0.59574610  0.57669490  1
  H+  H354  1  0.83326190  0.41288081  0.06491285  1
  H+  H355  1  0.13435899  0.69121686  0.07150635  1
  H+  H356  1  0.07990007  0.16010886  0.05955148  1
  H+  H357  1  0.82557145  0.64647448  0.42113426  1
  H+  H358  1  0.92901578  0.34924730  0.57898438  1
  H+  H359  1  0.66531521  0.57934062  0.93272196  1
  H+  H360  1  0.64747673  0.70130885  0.37660293  1
  H+  H361  1  0.34457976  0.44227887  0.45378523  1
  H+  H362  1  0.83894939  0.13832044  0.38550474  1
  H+  H363  1  0.30079825  0.10896692  0.39083101  1
  H+  H364  1  0.30626724  0.48412477  0.08023822  1
  H+  H365  1  0.17856681  0.57359134  0.23341961  1
  H+  H366  1  0.00771047  0.86354574  0.33686318  1
  H+  H367  1  0.56351056  0.65930947  0.44932371  1
  H+  H368  1  0.33878156  0.16126182  0.74502653  1
  H+  H369  1  0.88094825  0.35515656  0.99815270  1
  H+  H370  1  0.44321992  0.62639450  0.89897179  1
  H+  H371  1  0.66836892  0.09367326  0.93468559  1
  H+  H372  1  0.92584054  0.09999235  0.60599373  1
  H+  H373  1  0.61112162  0.75046259  0.15084701  1
  H+  H374  1  0.42769819  0.37828672  0.88725580  1
  H+  H375  1  0.96741742  0.10737799  0.99237325  1
  H+  H376  1  0.11913460  0.22165016  0.15763996  1
  H+  H377  1  0.59545023  0.42865195  0.76973471  1
  H+  H378  1  0.83802908  0.92022555  0.73067597  1
  H+  H379  1  0.50764644  0.65355595  0.50459467  1
  H+  H380  1  0.88869596  0.02204128  0.30797615  1
  H+  H381  1  0.52695919  0.89342726  0.33796859  1
  H+  H382  1  0.42496671  0.35399966  0.58636533  1
  H+  H383  1  0.14992691  0.06938562  0.88951133  1
  O2-  O384  1  0.09021569  0.16300814  0.13879954  1
  O2-  O385  1  0.08942448  0.19868409  0.49652861  1
  O2-  O386  1  0.08115036  0.16490906  0.81399321  1
  O2-  O387  1  0.09193768  0.40957950  0.15161243  1
  O2-  O388  1  0.09517360  0.43856489  0.48930954  1
  O2-  O389  1  0.09299269  0.43611680  0.81970565  1
  O2-  O390  1  0.08332411  0.65841896  0.19008511  1
  O2-  O391  1  0.08686718  0.67319427  0.49133398  1
  O2-  O392  1  0.08707844  0.66368231  0.78844320  1
  O2-  O393  1  0.11157275  0.91762949  0.11668277  1
  O2-  O394  1  0.06668296  0.88297308  0.47327815  1
  O2-  O395  1  0.07647414  0.90963163  0.80520150  1
  O2-  O396  1  0.35201442  0.16677506  0.15448678  1
  O2-  O397  1  0.36184647  0.20701921  0.49603050  1
  O2-  O398  1  0.32456771  0.14840341  0.82184945  1
  O2-  O399  1  0.34783324  0.41008515  0.19220640  1
  O2-  O400  1  0.34195775  0.44452809  0.49903915  1
  O2-  O401  1  0.24524340  0.38154712  0.83965456  1
  O2-  O402  1  0.34109746  0.67192894  0.14634142  1
  O2-  O403  1  0.34956453  0.70918331  0.55119692  1
  O2-  O404  1  0.32657431  0.67931213  0.80834863  1
  O2-  O405  1  0.34805095  0.91481658  0.14979713  1
  O2-  O406  1  0.33017725  0.92658517  0.47580747  1
  O2-  O407  1  0.32356385  0.91123013  0.81813922  1
  O2-  O408  1  0.59488348  0.16515161  0.14787420  1
  O2-  O409  1  0.58236596  0.17055599  0.47757336  1
  O2-  O410  1  0.57352549  0.15888456  0.81666777  1
  O2-  O411  1  0.58620429  0.40772071  0.14477325  1
  O2-  O412  1  0.57155881  0.38778736  0.45593079  1
  O2-  O413  1  0.59368636  0.43942155  0.81393675  1
  O2-  O414  1  0.58493347  0.68952904  0.13746157  1
  O2-  O415  1  0.56911804  0.67346385  0.49240740  1
  O2-  O416  1  0.60411294  0.67343965  0.81355377  1
  O2-  O417  1  0.57173096  0.94269174  0.13898973  1
  O2-  O418  1  0.58967756  0.92580429  0.47542966  1
  O2-  O419  1  0.59026902  0.92784603  0.86539524  1
  O2-  O420  1  0.82720155  0.15132511  0.13537503  1
  O2-  O421  1  0.84256683  0.19858341  0.48856218  1
  O2-  O422  1  0.83330532  0.17417889  0.81852008  1
  O2-  O423  1  0.83934451  0.41787916  0.14391325  1
  O2-  O424  1  0.83902887  0.42683375  0.49089256  1
  O2-  O425  1  0.86766344  0.43089831  0.83026960  1
  O2-  O426  1  0.84149270  0.66386968  0.13795549  1
  O2-  O427  1  0.82349423  0.65408494  0.49963792  1
  O2-  O428  1  0.85323928  0.67165961  0.82176397  1
  O2-  O429  1  0.83011887  0.92559110  0.14042754  1
  O2-  O430  1  0.83541684  0.92735506  0.52213703  1
  O2-  O431  1  0.83285981  0.91403850  0.80590533  1
  O2-  O432  1  0.17621297  0.07701938  0.14060295  1
  O2-  O433  1  0.21812708  0.18550543  0.56080588  1
  O2-  O434  1  0.15365048  0.06936113  0.84399762  1
  O2-  O435  1  0.16942480  0.32321981  0.19089845  1
  O2-  O436  1  0.17928855  0.36406419  0.54116545  1
  O2-  O437  1  0.21721143  0.29666709  0.86544804  1
  O2-  O438  1  0.17871146  0.57877120  0.18791987  1
  O2-  O439  1  0.18196122  0.60507128  0.53173974  1
  O2-  O440  1  0.17181490  0.60094703  0.83704139  1
  O2-  O441  1  0.17776023  0.84434141  0.18022855  1
  O2-  O442  1  0.16756676  0.83339042  0.51908009  1
  O2-  O443  1  0.16461781  0.84497074  0.86378853  1
  O2-  O444  1  0.43156076  0.08228784  0.19192348  1
  O2-  O445  1  0.41624198  0.08902219  0.52539188  1
  O2-  O446  1  0.40813574  0.07819452  0.85809432  1
  O2-  O447  1  0.43144723  0.32820962  0.19552515  1
  O2-  O448  1  0.43069235  0.36197917  0.54118012  1
  O2-  O449  1  0.43027594  0.40548227  0.84716868  1
  O2-  O450  1  0.42817299  0.58918708  0.18773986  1
  O2-  O451  1  0.40543392  0.61733183  0.50578879  1
  O2-  O452  1  0.43130934  0.56121919  0.83085104  1
  O2-  O453  1  0.42553204  0.83577637  0.19050753  1
  O2-  O454  1  0.42505009  0.85797915  0.51246203  1
  O2-  O455  1  0.41101665  0.83756110  0.86140486  1
  O2-  O456  1  0.68070432  0.08567405  0.18551772  1
  O2-  O457  1  0.66549526  0.08927895  0.51519385  1
  O2-  O458  1  0.67160568  0.09421290  0.86500185  1
  O2-  O459  1  0.67490764  0.33021179  0.19001700  1
  O2-  O460  1  0.66489893  0.32914018  0.52159157  1
  O2-  O461  1  0.69665714  0.33280658  0.85352553  1
  O2-  O462  1  0.65936585  0.59853994  0.15515382  1
  O2-  O463  1  0.64811255  0.57899804  0.53285483  1
  O2-  O464  1  0.68660673  0.59161284  0.85997420  1
  O2-  O465  1  0.66135541  0.85702369  0.17616401  1
  O2-  O466  1  0.66623628  0.84201393  0.52055720  1
  O2-  O467  1  0.66805772  0.83038581  0.85949215  1
  O2-  O468  1  0.91845825  0.08635051  0.16862320  1
  O2-  O469  1  0.92112450  0.10775732  0.52224266  1
  O2-  O470  1  0.91272553  0.07966372  0.85157413  1
  O2-  O471  1  0.93539554  0.35059596  0.19333279  1
  O2-  O472  1  0.92816804  0.35074451  0.53187415  1
  O2-  O473  1  0.92799565  0.33456332  0.86111222  1
  O2-  O474  1  0.90604056  0.57790243  0.19364575  1
  O2-  O475  1  0.92205789  0.58535270  0.54492749  1
  O2-  O476  1  0.95085719  0.60435972  0.85495936  1
  O2-  O477  1  0.95511245  0.90511193  0.20782837  1
  O2-  O478  1  0.91589436  0.82745877  0.53221395  1
  O2-  O479  1  0.91184427  0.83076194  0.85109299  1
  O2-  O480  1  0.15179055  0.06099853  0.30008880  1
  O2-  O481  1  0.17486562  0.09564701  0.66332346  1
  O2-  O482  1  0.14253708  0.06637370  0.96518368  1
  O2-  O483  1  0.17513612  0.32915719  0.32140135  1
  O2-  O484  1  0.17502712  0.34527554  0.66419017  1
  O2-  O485  1  0.14147546  0.30368035  0.95955668  1
  O2-  O486  1  0.17189787  0.57497913  0.31000280  1
  O2-  O487  1  0.15797603  0.58897340  0.65084776  1
  O2-  O488  1  0.18766140  0.61283103  0.95998840  1
  O2-  O489  1  0.16996358  0.83887976  0.30256255  1
  O2-  O490  1  0.16410969  0.83235126  0.64210417  1
  O2-  O491  1  0.16817564  0.84576550  0.93151189  1
  O2-  O492  1  0.42220800  0.08024662  0.31384171  1
  O2-  O493  1  0.40846753  0.07175132  0.64892296  1
  O2-  O494  1  0.50061715  0.12844182  1.00083331  1
  O2-  O495  1  0.39015662  0.30820093  0.32038241  1
  O2-  O496  1  0.41411628  0.32899058  0.66289955  1
  O2-  O497  1  0.43584929  0.33264608  0.95508534  1
  O2-  O498  1  0.43269585  0.58227805  0.31445383  1
  O2-  O499  1  0.41127553  0.57708414  0.70700000  1
  O2-  O500  1  0.46398490  0.66942474  0.93178803  1
  O2-  O501  1  0.42473795  0.83818855  0.31369568  1
  O2-  O502  1  0.37192843  0.76450889  0.66256883  1
  O2-  O503  1  0.41242882  0.83172025  0.98501118  1
  O2-  O504  1  0.66899466  0.08882705  0.30813186  1
  O2-  O505  1  0.63049519  0.06227546  0.64025157  1
  O2-  O506  1  0.66474146  0.09053942  0.98163129  1
  O2-  O507  1  0.68363192  0.34350392  0.31435287  1
  O2-  O508  1  0.65775689  0.32621564  0.64269237  1
  O2-  O509  1  0.66861214  0.33181552  0.97979871  1
  O2-  O510  1  0.63490655  0.57882015  0.28360135  1
  O2-  O511  1  0.65003307  0.56776374  0.65338630  1
  O2-  O512  1  0.65863877  0.57466465  0.97856490  1
  O2-  O513  1  0.67409115  0.85327887  0.30060045  1
  O2-  O514  1  0.66575954  0.82854233  0.64484970  1
  O2-  O515  1  0.67094694  0.83708706  0.97825073  1
  O2-  O516  1  0.91841431  0.08208370  0.29175299  1
  O2-  O517  1  0.92464962  0.08958754  0.65019733  1
  O2-  O518  1  0.90725542  0.07713591  0.97596347  1
  O2-  O519  1  0.92860869  0.34145847  0.32225104  1
  O2-  O520  1  0.92444855  0.34306820  0.64766435  1
  O2-  O521  1  0.90995839  0.32149841  0.98674870  1
  O2-  O522  1  0.91429352  0.58171862  0.31731971  1
  O2-  O523  1  0.92258135  0.57713913  0.61087131  1
  O2-  O524  1  0.92472980  0.59095233  0.99406030  1
  O2-  O525  1  0.89940950  0.80735109  0.32479078  1
  O2-  O526  1  0.93940847  0.86656086  0.64840871  1
  O2-  O527  1  0.91252433  0.82943159  0.97243524  1
  O2-  O528  1  0.07048509  0.15242946  0.01469488  1
  O2-  O529  1  0.08169952  0.14806524  0.33533986  1
  O2-  O530  1  0.08531103  0.17611686  0.69378742  1
  O2-  O531  1  0.06906516  0.41019558  0.03056754  1
  O2-  O532  1  0.09176349  0.41657676  0.36495065  1
  O2-  O533  1  0.08379640  0.42501380  0.69482458  1
  O2-  O534  1  0.08513108  0.67756469  -0.04316541  1
  O2-  O535  1  0.08633924  0.66399429  0.31086763  1
  O2-  O536  1  0.07760960  0.67216450  0.67589027  1
  O2-  O537  1  0.08934662  0.90625115  0.00196356  1
  O2-  O538  1  0.06997270  0.89789333  0.34850955  1
  O2-  O539  1  0.08868695  0.92713705  0.68591872  1
  O2-  O540  1  0.27732976  0.14995669  0.03959579  1
  O2-  O541  1  0.32192894  0.13676547  0.35160404  1
  O2-  O542  1  0.33826955  0.16190291  0.69957797  1
  O2-  O543  1  0.30048892  0.30632380  0.02752835  1
  O2-  O544  1  0.34865827  0.43021067  0.37353984  1
  O2-  O545  1  0.32463792  0.39970663  0.72196883  1
  O2-  O546  1  0.32393630  0.65539374  0.01656692  1
  O2-  O547  1  0.34703955  0.66146385  0.30595754  1
  O2-  O548  1  0.33105663  0.67910718  0.69122182  1
  O2-  O549  1  0.30527948  0.89728800  -0.00084683  1
  O2-  O550  1  0.33166569  0.91341177  0.35325775  1
  O2-  O551  1  0.32185756  0.89550737  0.69260853  1
  O2-  O552  1  0.58797181  0.16299242  0.02530920  1
  O2-  O553  1  0.58534963  0.17313635  0.35417128  1
  O2-  O554  1  0.57904352  0.16163039  0.69171475  1
  O2-  O555  1  0.58194640  0.41417578  0.01504182  1
  O2-  O556  1  0.66681084  0.48080532  0.35979522  1
  O2-  O557  1  0.57814687  0.40752995  0.69216533  1
  O2-  O558  1  0.55110579  0.62445651  0.01648962  1
  O2-  O559  1  0.61223001  0.68892748  0.34030077  1
  O2-  O560  1  0.58107394  0.66568243  0.69350793  1
  O2-  O561  1  0.58873419  0.92768059  0.01955985  1
  O2-  O562  1  0.58880963  0.92425420  0.35156652  1
  O2-  O563  1  0.54600949  0.88462608  0.63649743  1
  O2-  O564  1  0.82789321  0.16295384  0.02161761  1
  O2-  O565  1  0.84102354  0.15899061  0.34423725  1
  O2-  O566  1  0.85152692  0.18894994  0.69307556  1
  O2-  O567  1  0.83478246  0.41247027  0.01953370  1
  O2-  O568  1  0.84385650  0.41991818  0.36437576  1
  O2-  O569  1  0.82251191  0.41741803  0.66413103  1
  O2-  O570  1  0.82524577  0.66373902  0.01518677  1
  O2-  O571  1  0.81975657  0.64041706  0.37588484  1
  O2-  O572  1  0.82162826  0.68390679  0.69190058  1
  O2-  O573  1  0.83667157  0.91456452  0.02031032  1
  O2-  O574  1  0.83274014  0.92195596  0.34409264  1
  O2-  O575  1  0.84227888  0.92393854  0.68455774  1
