# generated using pymatgen
data_H2O
_symmetry_space_group_name_H-M   'P 1'
_cell_length_a   17.98697238
_cell_length_b   17.99012468
_cell_length_c   21.99434252
_cell_angle_alpha   89.99705117
_cell_angle_beta   89.98439246
_cell_angle_gamma   119.98501674
_symmetry_Int_Tables_number   1
_chemical_formula_structural   H2O
_chemical_formula_sum   'H384 O192'
_cell_volume   6164.52163357
_cell_formula_units_Z   192
loop_
 _symmetry_equiv_pos_site_id
 _symmetry_equiv_pos_as_xyz
  1  'x, y, z'
loop_
 _atom_type_symbol
 _atom_type_oxidation_number
  H+  1.0
  O2-  -2.0
loop_
 _atom_site_type_symbol
 _atom_site_label
 _atom_site_symmetry_multiplicity
 _atom_site_fract_x
 _atom_site_fract_y
 _atom_site_fract_z
 _atom_site_occupancy
  H+  H0  1  0.10948833  0.74266721  0.32778282  1
  H+  H1  1  0.38982196  0.87466439  0.65481323  1
  H+  H2  1  0.56851192  0.41290238  0.74551919  1
  H+  H3  1  0.11777882  0.22738133  0.18124218  1
  H+  H4  1  0.36826485  0.64714920  0.14133580  1
  H+  H5  1  0.12434576  0.61127378  0.82443655  1
  H+  H6  1  0.33345376  0.70904318  0.33685761  1
  H+  H7  1  0.60777086  0.11559970  0.83412595  1
  H+  H8  1  0.84847978  0.63160368  0.01172596  1
  H+  H9  1  0.61375619  0.26034113  0.49320314  1
  H+  H10  1  0.63744422  0.86818918  0.99425394  1
  H+  H11  1  0.85635910  0.26162872  0.82831669  1
  H+  H12  1  0.84326920  0.95514437  0.81597996  1
  H+  H13  1  0.86442758  0.34042228  0.32794840  1
  H+  H14  1  0.60526321  0.47592291  0.80466906  1
  H+  H15  1  0.72796542  0.10955766  0.16161711  1
  H+  H16  1  0.88887007  0.11003578  0.50876547  1
  H+  H17  1  0.87652684  0.36324994  0.49932857  1
  H+  H18  1  0.61390546  0.97663824  0.67147771  1
  H+  H19  1  1.02541202  0.87504577  0.36657234  1
  H+  H20  1  0.53153624  0.13438888  0.00084753  1
  H+  H21  1  0.27912012  0.65299027  0.66219449  1
  H+  H22  1  0.41058820  0.12504948  0.99767670  1
  H+  H23  1  0.71483899  0.85628684  0.51017905  1
  H+  H24  1  0.49684254  0.12884905  0.32710217  1
  H+  H25  1  0.38093722  0.77409874  0.99276409  1
  H+  H26  1  0.37773944  0.76919538  0.83345290  1
  H+  H27  1  0.91516097  0.09000090  0.93637838  1
  H+  H28  1  0.60753755  0.88550391  0.16167038  1
  H+  H29  1  0.23918812  0.15256787  1.00760723  1
  H+  H30  1  0.84270939  0.46563645  0.47849281  1
  H+  H31  1  0.35612108  0.98325149  0.65126302  1
  H+  H32  1  0.10570865  0.72039545  0.81569077  1
  H+  H33  1  0.25841810  0.63945782  0.81458891  1
  H+  H34  1  0.36476842  0.21607193  0.01659342  1
  H+  H35  1  0.61531083  0.73629659  0.65737141  1
  H+  H36  1  0.59085699  0.34931108  1.00672279  1
  H+  H37  1  0.50278831  0.13831172  0.48321942  1
  H+  H38  1  0.87879344  0.25936811  0.33446781  1
  H+  H39  1  0.10804889  0.73963054  0.66801630  1
  H+  H40  1  0.62934262  0.76380096  0.51235127  1
  H+  H41  1  0.21638817  0.37194351  0.85052834  1
  H+  H42  1  0.63827593  0.10799236  0.98991743  1
  H+  H43  1  0.86740655  0.13171016  0.34464601  1
  H+  H44  1  0.52270472  0.88595811  1.00765062  1
  H+  H45  1  0.95655876  0.86325866  0.83119435  1
  H+  H46  1  0.34392097  0.63368505  0.00171189  1
  H+  H47  1  0.37059460  0.34863467  0.33875905  1
  H+  H48  1  0.01933345  0.13799666  0.00140061  1
  H+  H49  1  0.76568288  0.90208894  0.16537188  1
  H+  H50  1  0.37989415  0.27190633  0.62958102  1
  H+  H51  1  0.38055901  0.25626549  0.82336975  1
  H+  H52  1  0.10793734  0.23831854  0.82677935  1
  H+  H53  1  0.37086872  0.10997373  0.63850584  1
  H+  H54  1  0.63873443  0.10648651  0.66293727  1
  H+  H55  1  0.06874860  0.73729771  0.19924335  1
  H+  H56  1  0.62398432  0.13743667  0.34357299  1
  H+  H57  1  0.29687283  0.11723708  0.49842363  1
  H+  H58  1  0.64117812  0.11380046  0.16001215  1
  H+  H59  1  0.37297342  0.98062994  0.15476202  1
  H+  H60  1  0.62875640  0.85257412  0.66034810  1
  H+  H61  1  0.66128933  0.73936836  0.81517214  1
  H+  H62  1  0.43008159  0.59500360  0.84765006  1
  H+  H63  1  0.87419133  0.77392270  0.82631127  1
  H+  H64  1  0.14091593  0.90981999  0.17557828  1
  H+  H65  1  0.24471530  0.62362483  0.34830889  1
  H+  H66  1  0.13857305  0.55589617  0.64566999  1
  H+  H67  1  0.16734432  0.02197504  0.51134421  1
  H+  H68  1  0.87028648  0.35802030  0.66549585  1
  H+  H69  1  0.61896048  0.22348126  -0.00335459  1
  H+  H70  1  0.37883331  0.51888395  0.50874958  1
  H+  H71  1  0.63712522  0.01834360  0.99475883  1
  H+  H72  1  0.27698326  0.90542191  0.16698391  1
  H+  H73  1  0.39097820  0.34540093  0.17609218  1
  H+  H74  1  0.51779352  0.57224627  0.79599585  1
  H+  H75  1  0.53987420  0.64373952  0.15400439  1
  H+  H76  1  0.13898354  0.78088444  0.98986663  1
  H+  H77  1  0.16836288  0.33311023  0.27847972  1
  H+  H78  1  0.01643460  0.65023411  0.66711786  1
  H+  H79  1  0.97750883  0.61952037  0.83622206  1
  H+  H80  1  0.60061067  0.62279819  0.49599881  1
  H+  H81  1  0.77857456  0.40507611  0.83345548  1
  H+  H82  1  0.13298513  0.60410557  0.16947876  1
  H+  H83  1  0.12567131  0.35524746  0.33456194  1
  H+  H84  1  0.96285285  0.61468297  0.49244762  1
  H+  H85  1  0.33410028  0.58078480  0.33305326  1
  H+  H86  1  0.11968993  0.15700472  0.82160241  1
  H+  H87  1  0.62100258  0.41809981  1.10222937  1
  H+  H88  1  0.13317287  0.35205581  1.01227166  1
  H+  H89  1  0.72511315  0.10127707  0.65728293  1
  H+  H90  1  0.86680444  0.49598058  0.83376675  1
  H+  H91  1  0.86764474  0.24786264  0.85755140  1
  H+  H92  1  0.52087470  0.88982898  0.66939912  1
  H+  H93  1  0.23766344  0.95264516  0.22997363  1
  H+  H94  1  0.52670938  0.62545326  0.31111650  1
  H+  H95  1  1.01888753  0.39062693  0.49947834  1
  H+  H96  1  0.78647721  0.02196966  0.79077265  1
  H+  H97  1  -0.00315836  0.35617953  0.03412463  1
  H+  H98  1  0.72633881  0.11301616  0.33414537  1
  H+  H99  1  0.89548601  0.12148117  0.17472903  1
  H+  H100  1  0.23116606  0.11410404  0.17949524  1
  H+  H101  1  0.12889279  0.85226567  0.33553099  1
  H+  H102  1  0.03021472  0.88874048  0.00540061  1
  H+  H103  1  0.51233598  0.39325889  0.34881561  1
  H+  H104  1  0.85355106  0.72054723  0.01086918  1
  H+  H105  1  0.38975650  0.78483056  0.65615314  1
  H+  H106  1  0.10453613  0.48056673  0.82757376  1
  H+  H107  1  0.09573880  0.09386642  -0.03873470  1
  H+  H108  1  0.27292944  0.36755450  0.65015320  1
  H+  H109  1  0.85881320  0.75400800  0.49046728  1
  H+  H110  1  0.22949870  0.61963207  0.17171525  1
  H+  H111  1  0.73561413  0.87951688  0.32579980  1
  H+  H112  1  0.81343215  0.92993951  0.74370215  1
  H+  H113  1  0.87398434  0.38864598  0.17012266  1
  H+  H114  1  0.37691937  0.36689790  0.63413878  1
  H+  H115  1  0.21250338  0.85517513  0.83569122  1
  H+  H116  1  0.34601976  0.98880866  0.48024448  1
  H+  H117  1  0.25460470  0.36165081  0.35956709  1
  H+  H118  1  0.66244895  0.48873365  0.15524648  1
  H+  H119  1  0.10587528  0.00997600  0.96460429  1
  H+  H120  1  0.53356370  0.14525334  0.16071119  1
  H+  H121  1  0.15464745  0.58053580  0.27060835  1
  H+  H122  1  0.13207867  0.86862534  0.66155919  1
  H+  H123  1  0.31810138  0.66884751  0.06060792  1
  H+  H124  1  0.99696853  0.63483843  0.33708821  1
  H+  H125  1  0.33474373  0.45193117  0.35533975  1
  H+  H126  1  0.37968608  0.86384092  0.16483855  1
  H+  H127  1  0.77003364  0.13885940  0.00723420  1
  H+  H128  1  0.65309755  0.78154477  0.17690730  1
  H+  H129  1  0.14982621  0.05911058  0.80841486  1
  H+  H130  1  0.61953008  0.22102978  0.67759232  1
  H+  H131  1  0.86203921  0.14677894  0.00569128  1
  H+  H132  1  0.77212558  0.39113102  0.69580546  1
  H+  H133  1  0.38932719  0.52827405  0.15716686  1
  H+  H134  1  0.97110188  0.61885535  0.99201368  1
  H+  H135  1  0.35671310  0.97962066  0.84715340  1
  H+  H136  1  0.14319834  0.33969450  0.65561310  1
  H+  H137  1  0.01925661  0.89770633  0.66626369  1
  H+  H138  1  0.35716473  0.47203959  0.81280871  1
  H+  H139  1  0.84700277  0.61942715  0.46215774  1
  H+  H140  1  0.12281469  0.48175150  0.17370531  1
  H+  H141  1  0.14045317  0.52168669  0.50452704  1
  H+  H142  1  0.39874876  0.63328676  0.65207016  1
  H+  H143  1  0.25915896  0.18716736  -0.01640081  1
  H+  H144  1  0.53381092  0.66933831  0.06182125  1
  H+  H145  1  0.86006666  0.22577034  0.49529800  1
  H+  H146  1  0.51998863  0.38563317  0.64602099  1
  H+  H147  1  0.60699780  0.47489976  0.65388386  1
  H+  H148  1  0.84082583  0.17363361  0.10201179  1
  H+  H149  1  0.45853909  -0.05218091  0.37201133  1
  H+  H150  1  0.50171749  0.37881318  0.51602176  1
  H+  H151  1  0.38906309  0.07909927  0.57512760  1
  H+  H152  1  0.50953663  0.63791645  0.65341265  1
  H+  H153  1  1.02431128  0.12648142  0.49959819  1
  H+  H154  1  0.58738778  0.64090284  0.01999179  1
  H+  H155  1  0.14981263  0.37213761  0.18862758  1
  H+  H156  1  0.62986692  0.12090086  0.50767280  1
  H+  H157  1  0.11067584  0.22029006  0.34491626  1
  H+  H158  1  0.39012695  0.36303790  0.81956054  1
  H+  H159  1  0.33953874  0.62923312  0.82226081  1
  H+  H160  1  0.64928531  0.60834467  0.19178858  1
  H+  H161  1  0.99021544  0.41105679  0.87987230  1
  H+  H162  1  0.92402955  0.83627445  0.45972669  1
  H+  H163  1  0.71272645  0.07500653  0.83352628  1
  H+  H164  1  -0.01957840  0.87194243  0.17489612  1
  H+  H165  1  0.96053957  0.77287465  0.95212057  1
  H+  H166  1  0.62352805  0.65944438  0.11472783  1
  H+  H167  1  0.12723440  0.36915585  0.85326426  1
  H+  H168  1  0.11562371  0.13777688  0.18024495  1
  H+  H169  1  0.15951291  0.58924949  0.88560349  1
  H+  H170  1  0.11522860  0.51631841  0.32783173  1
  H+  H171  1  0.09492925  0.63465527  0.33504290  1
  H+  H172  1  0.70674538  0.86236125  0.83042704  1
  H+  H173  1  0.10888088  0.21014702  0.66558841  1
  H+  H174  1  0.36836907  0.14618556  0.82525031  1
  H+  H175  1  0.06907537  0.87713334  0.52906506  1
  H+  H176  1  0.86737869  1.00278328  0.16424925  1
  H+  H177  1  0.77394979  0.60018270  0.64150265  1
  H+  H178  1  0.27852000  0.38923804  0.02458118  1
  H+  H179  1  0.88572214  0.60827809  0.18642948  1
  H+  H180  1  0.52457012  0.38469650  0.01031386  1
  H+  H181  1  0.28790752  0.13492534  0.35039312  1
  H+  H182  1  0.11638773  0.13059719  0.49693650  1
  H+  H183  1  0.37210320  0.78283305  0.50288039  1
  H+  H184  1  0.88992298  0.88048612  0.66042653  1
  H+  H185  1  0.46835386  0.86192086  0.16847719  1
  H+  H186  1  0.46844616  0.60762854  0.49972556  1
  H+  H187  1  0.12186615  0.89943521  0.00133375  1
  H+  H188  1  0.88192199  0.61657467  0.34713278  1
  H+  H189  1  0.58812765  0.37368424  0.49906575  1
  H+  H190  1  0.02016990  0.29336318  1.06712197  1
  H+  H191  1  0.14209112  1.02661436  0.18369291  1
  H+  H192  1  0.59999426  -0.02829897  0.82403057  1
  H+  H193  1  0.10032180  0.87500548  0.82152786  1
  H+  H194  1  0.66375460  0.62167373  0.81087337  1
  H+  H195  1  0.36675849  0.51800298  1.00093445  1
  H+  H196  1  0.65000705  0.27729186  0.18547694  1
  H+  H197  1  0.07830883  0.16373340  0.72970750  1
  H+  H198  1  0.88224382  0.09478961  0.84155228  1
  H+  H199  1  0.62662574  0.36867788  0.81778851  1
  H+  H200  1  0.85477942  0.97226371  0.49819182  1
  H+  H201  1  0.67002362  0.37435279  0.18061688  1
  H+  H202  1  0.39705674  0.11385688  0.17758745  1
  H+  H203  1  0.89763344  0.78274498  0.17747634  1
  H+  H204  1  0.71049981  0.59230583  0.48883038  1
  H+  H205  1  0.96527408  0.09957370  0.65746040  1
  H+  H206  1  0.91504944  0.84437402  0.60190401  1
  H+  H207  1  0.38170842  0.44437259  0.19152978  1
  H+  H208  1  0.41694802  0.41613531  -0.00593780  1
  H+  H209  1  0.61008368  0.97551608  0.15360051  1
  H+  H210  1  0.41685410  0.03559960  0.32908164  1
  H+  H211  1  0.35838741  0.73086817  0.14956545  1
  H+  H212  1  0.48059848  0.36340557  0.81841888  1
  H+  H213  1  0.38070442  0.85973313  0.84392636  1
  H+  H214  1  0.51959309  0.65808303  0.32801437  1
  H+  H215  1  0.35770290  0.63319226  0.48960325  1
  H+  H216  1  0.10939385  0.64455103  -0.00262453  1
  H+  H217  1  0.00897191  0.37881889  0.34481832  1
  H+  H218  1  0.78638920  0.63803408  0.79224443  1
  H+  H219  1  0.61957050  0.50474666  0.50435351  1
  H+  H220  1  0.63361045  0.36598999  0.65196038  1
  H+  H221  1  0.63144120  0.52039765  0.34233857  1
  H+  H222  1  0.97989683  0.11776919  0.84407291  1
  H+  H223  1  0.36950194  0.84344618  0.31958206  1
  H+  H224  1  0.36979059  0.21918305  0.17425384  1
  H+  H225  1  0.75451479  0.37638722  0.48395629  1
  H+  H226  1  0.66029188  0.65561333  0.35437329  1
  H+  H227  1  0.87230861  0.28117424  1.00837598  1
  H+  H228  1  0.88048254  0.53049879  0.99324931  1
  H+  H229  1  0.86877355  -0.02032146  0.34223639  1
  H+  H230  1  0.38984846  0.02655450  0.99296031  1
  H+  H231  1  0.84202095  0.42609941  0.74809422  1
  H+  H232  1  0.09875660  0.42542951  0.61804095  1
  H+  H233  1  0.22215812  0.62093388  0.98465452  1
  H+  H234  1  0.78333471  0.63532100  0.17482196  1
  H+  H235  1  0.31574947  0.90912536  0.89707197  1
  H+  H236  1  0.26886903  0.14625170  0.65983181  1
  H+  H237  1  0.84588057  0.87886235  0.49321423  1
  H+  H238  1  0.08693189  0.73445436  0.48637732  1
  H+  H239  1  0.09147277  0.94937553  0.84963481  1
  H+  H240  1  0.86025044  0.12210012  0.66559537  1
  H+  H241  1  -0.01598284  0.36255022  0.18894892  1
  H+  H242  1  0.65865677  0.30614397  0.79709430  1
  H+  H243  1  0.13937306  0.64343891  0.64528087  1
  H+  H244  1  0.07327655  0.66025635  0.05895252  1
  H+  H245  1  0.72091965  0.36688718  0.98435978  1
  H+  H246  1  0.95749033  0.36059334  0.65451746  1
  H+  H247  1  0.14015242  1.02412249  0.65697616  1
  H+  H248  1  0.60590624  0.20135535  0.84665706  1
  H+  H249  1  0.77873778  0.88984361  0.66459588  1
  H+  H250  1  0.50834726  0.90367227  0.48706496  1
  H+  H251  1  0.73008716  0.60057936  0.34641932  1
  H+  H252  1  0.22933812  0.86834672  0.98920957  1
  H+  H253  1  0.63032657  0.77734241  -0.00462488  1
  H+  H254  1  0.87290149  0.64660232  0.81399560  1
  H+  H255  1  0.42220490  0.59679780  0.59137299  1
  H+  H256  1  0.85787429  0.89382651  1.01414695  1
  H+  H257  1  0.11003295  0.74041832  0.18903840  1
  H+  H258  1  0.50679248  0.60764180  0.79372761  1
  H+  H259  1  0.46932137  0.10812430  0.83921111  1
  H+  H260  1  0.87093948  0.22956750  0.16397491  1
  H+  H261  1  0.65660977  0.78819348  0.32916759  1
  H+  H262  1  0.11535669  0.21716254  1.00255140  1
  H+  H263  1  0.16427622  0.12761201  0.33530890  1
  H+  H264  1  0.36330912  0.89126361  0.00781114  1
  H+  H265  1  0.81067965  0.42923126  0.07082442  1
  H+  H266  1  0.90571196  0.41732624  0.87552995  1
  H+  H267  1  0.76552910  0.88665080  1.00872650  1
  H+  H268  1  0.60817207  0.89420159  0.33758329  1
  H+  H269  1  0.35562512  0.37988406  0.51719622  1
  H+  H270  1  0.44976049  0.60829519  0.98715386  1
  H+  H271  1  0.87218530  0.54020424  0.68214389  1
  H+  H272  1  0.88326540  0.62731716  0.70750895  1
  H+  H273  1  0.77030633  0.13864452  0.49635100  1
  H+  H274  1  0.34615298  0.89928481  0.49230871  1
  H+  H275  1  0.24606486  0.61855494  0.49647360  1
  H+  H276  1  0.84888508  0.39553006  0.02181448  1
  H+  H277  1  0.43021316  0.47844571  0.77322855  1
  H+  H278  1  0.38032894  0.13266079  0.34648663  1
  H+  H279  1  -0.01724984  0.11021649  0.32919871  1
  H+  H280  1  0.60064490  -0.01203446  0.48846541  1
  H+  H281  1  0.87973857  0.76291953  0.37166820  1
  H+  H282  1  0.22099007  0.35667558  0.50831976  1
  H+  H283  1  0.13143063  0.26542670  0.50371383  1
  H+  H284  1  0.71314455  0.62200255  1.02613252  1
  H+  H285  1  0.13495139  0.11013915  0.65728861  1
  H+  H286  1  0.63456804  0.02666518  0.33103325  1
  H+  H287  1  0.88076677  0.03320099  0.99674951  1
  H+  H288  1  0.16219126  0.31654089  0.58802467  1
  H+  H289  1  0.41725017  0.83271244  0.93404665  1
  H+  H290  1  0.34304117  0.40987411  0.70401219  1
  H+  H291  1  0.91348985  0.07543092  0.56829083  1
  H+  H292  1  0.17270152  0.59866026  0.55783554  1
  H+  H293  1  0.63977357  0.31167941  0.55459551  1
  H+  H294  1  0.59125380  0.16298357  0.73706291  1
  H+  H295  1  0.21443351  0.88230710  0.49027419  1
  H+  H296  1  0.85547785  0.21020528  0.67285155  1
  H+  H297  1  0.10527819  0.38293466  0.49774457  1
  H+  H298  1  0.15016144  0.08227412  0.88133225  1
  H+  H299  1  0.41043658  0.32335447  0.24247669  1
  H+  H300  1  0.40542072  0.84134388  0.56210717  1
  H+  H301  1  0.08337458  0.15816607  0.40245427  1
  H+  H302  1  0.00857677  0.54025470  0.11454033  1
  H+  H303  1  0.65792710  0.82542661  0.59647319  1
  H+  H304  1  0.24287066  0.38293113  0.18720865  1
  H+  H305  1  0.66063026  0.08714339  0.56495084  1
  H+  H306  1  0.18830051  0.08678293  0.56544505  1
  H+  H307  1  0.07808508  0.92465843  0.72644551  1
  H+  H308  1  0.41365035  0.09090614  0.89942265  1
  H+  H309  1  0.66563238  0.82206827  0.89476778  1
  H+  H310  1  0.57442856  0.16320008  0.42993629  1
  H+  H311  1  0.59549123  0.67152086  0.43889780  1
  H+  H312  1  0.17059186  0.34186844  0.94915895  1
  H+  H313  1  0.36991606  0.55760767  0.90397019  1
  H+  H314  1  0.66618449  0.33581105  0.92201744  1
  H+  H315  1  0.91445500  0.32377345  0.24228788  1
  H+  H316  1  0.19516913  0.10024340  0.27563807  1
  H+  H317  1  0.50422375  0.87891500  0.81816547  1
  H+  H318  1  0.88163328  0.51641722  0.19160249  1
  H+  H319  1  0.91508707  0.81615273  0.91925931  1
  H+  H320  1  0.83759626  0.66322644  0.11328040  1
  H+  H321  1  0.63386082  0.23226580  0.34755211  1
  H+  H322  1  0.35204758  0.14625984  0.42682252  1
  H+  H323  1  0.44030893  0.38402131  0.93361023  1
  H+  H324  1  0.34079586  0.18751946  0.71201140  1
  H+  H325  1  0.41050283  0.57188542  0.30711934  1
  H+  H326  1  0.67466039  0.57328249  0.86989261  1
  H+  H327  1  0.78428677  0.38440531  0.17503119  1
  H+  H328  1  0.27863034  0.15101688  0.82254793  1
  H+  H329  1  0.56180359  0.41970244  0.41163161  1
  H+  H330  1  0.08275228  0.40739630  0.12180768  1
  H+  H331  1  0.71935762  0.73835425  0.39251833  1
  H+  H332  1  0.36992160  0.93184896  0.40024551  1
  H+  H333  1  -0.00055340  0.60145506  0.15962339  1
  H+  H334  1  0.32960201  0.92134137  0.06564763  1
  H+  H335  1  0.66330726  0.57811143  0.58121594  1
  H+  H336  1  0.67912660  0.57583996  0.24888999  1
  H+  H337  1  0.10291468  0.92797917  0.11239325  1
  H+  H338  1  0.98451999  0.11674405  0.18006152  1
  H+  H339  1  0.38002145  0.80460150  0.25705830  1
  H+  H340  1  0.34269459  0.93977612  0.71672538  1
  H+  H341  1  0.62232497  0.54217815  1.00914501  1
  H+  H342  1  0.58064363  0.91300179  0.06803343  1
  H+  H343  1  0.46205673  0.26053917  0.03881913  1
  H+  H344  1  0.83554909  0.15983427  0.40472389  1
  H+  H345  1  0.07431727  0.66431061  0.75432416  1
  H+  H346  1  0.82654442  0.93369234  0.10044960  1
  H+  H347  1  0.03854031  0.39215973  0.79218424  1
  H+  H348  1  0.35532558  0.17050215  0.11183451  1
  H+  H349  1  0.70347177  0.34507461  0.28115836  1
  H+  H350  1  0.67561761  0.84179789  0.23636283  1
  H+  H351  1  0.66172710  0.06296206  0.89851065  1
  H+  H352  1  0.15277789  0.82270285  0.89225727  1
  H+  H353  1  0.43375993  0.08673860  0.23377279  1
  H+  H354  1  0.32720702  0.40144954  0.45158248  1
  H+  H355  1  0.33199630  0.67182155  0.72417192  1
  H+  H356  1  0.09666354  0.90094226  0.41585268  1
  H+  H357  1  0.13211180  0.53401935  0.97968451  1
  H+  H358  1  0.59288927  0.17894741  0.10132161  1
  H+  H359  1  0.71710543  0.37586836  0.61898104  1
  H+  H360  1  0.10687715  0.43263659  0.68945690  1
  H+  H361  1  0.38743798  0.26941090  0.33842149  1
  H+  H362  1  0.34455125  0.43109941  0.08120369  1
  H+  H363  1  0.87332177  0.00535838  0.65978417  1
  H+  H364  1  0.57704541  0.92361997  0.39607680  1
  H+  H365  1  0.07272658  0.41504160  0.40168856  1
  H+  H366  1  0.90706370  0.58720486  0.28166646  1
  H+  H367  1  0.82741248  0.92255377  0.40241342  1
  H+  H368  1  0.44015939  0.62739618  0.20009420  1
  H+  H369  1  0.17028574  0.83997937  0.27134899  1
  H+  H370  1  0.80701007  0.11139951  0.75858327  1
  H+  H371  1  0.89408845  0.58238357  0.54659781  1
  H+  H372  1  0.63476213  0.69096868  0.75074449  1
  H+  H373  1  0.88553091  0.85593951  0.36007649  1
  H+  H374  1  0.22010631  0.86623629  0.65920256  1
  H+  H375  1  0.06562988  0.67394969  0.42931340  1
  H+  H376  1  0.60799431  0.63614544  0.65114949  1
  H+  H377  1  0.92068568  0.36769275  0.96505752  1
  H+  H378  1  0.79599414  0.39166376  0.38704857  1
  H+  H379  1  0.57111284  0.91654743  0.75298776  1
  H+  H380  1  0.91970984  0.59707295  0.89823893  1
  H+  H381  1  0.32041419  0.66062561  0.42964758  1
  H+  H382  1  0.90048575  0.33622906  0.56270259  1
  H+  H383  1  0.92130859  0.08316542  0.27030475  1
  O2-  O384  1  0.08265655  0.16685760  0.16869114  1
  O2-  O385  1  0.08512232  0.16009946  0.48413311  1
  O2-  O386  1  0.08273318  0.18054535  0.80800831  1
  O2-  O387  1  0.09072693  0.41811366  0.16626390  1
  O2-  O388  1  0.08091558  0.42032928  0.48685585  1
  O2-  O389  1  0.07179927  0.41508990  0.82925000  1
  O2-  O390  1  0.04082168  0.59919082  0.12926897  1
  O2-  O391  1  0.05850101  0.67360099  0.47409694  1
  O2-  O392  1  0.07473946  0.66007037  0.80027719  1
  O2-  O393  1  0.09918890  0.92863728  0.15681689  1
  O2-  O394  1  0.11770697  0.90434953  0.50070364  1
  O2-  O395  1  0.07656236  0.91397569  0.81303749  1
  O2-  O396  1  0.34000405  0.16001316  0.15543285  1
  O2-  O397  1  0.35634029  0.14363075  0.47928886  1
  O2-  O398  1  0.34160386  0.18037106  0.80875730  1
  O2-  O399  1  0.35094018  0.45440113  0.15910164  1
  O2-  O400  1  0.32499856  0.40831950  0.49682117  1
  O2-  O401  1  0.37111690  0.43620136  0.78499765  1
  O2-  O402  1  0.32756295  0.66981037  0.13384257  1
  O2-  O403  1  0.32355423  0.66125849  0.47686470  1
  O2-  O404  1  0.32094523  0.66752320  0.80341945  1
  O2-  O405  1  0.33250191  0.92127514  0.14046423  1
  O2-  O406  1  0.31826766  0.92594563  0.46843231  1
  O2-  O407  1  0.32531650  0.91547509  0.85311362  1
  O2-  O408  1  0.59465117  0.17950330  0.14627267  1
  O2-  O409  1  0.56631537  0.16403337  0.47549067  1
  O2-  O410  1  0.57726115  0.14827120  0.82303557  1
  O2-  O411  1  0.66739953  0.44388324  0.13247174  1
  O2-  O412  1  0.55912687  0.40826524  0.49345446  1
  O2-  O413  1  0.56882374  0.41281016  0.79124456  1
  O2-  O414  1  0.60567528  0.67089162  0.15391709  1
  O2-  O415  1  0.57313013  0.65582493  0.48147245  1
  O2-  O416  1  0.66963749  0.69926629  0.78695338  1
  O2-  O417  1  0.57556890  0.91148504  0.14338441  1
  O2-  O418  1  0.56682355  0.93016545  0.47017960  1
  O2-  O419  1  0.56535045  0.91367154  0.80157008  1
  O2-  O420  1  0.84411749  0.16990677  0.14712361  1
  O2-  O421  1  0.83176967  0.16441322  0.48337124  1
  O2-  O422  1  0.79293645  0.08126549  0.79861864  1
  O2-  O423  1  0.84327223  0.41934727  0.15692314  1
  O2-  O424  1  0.81373447  0.40395188  0.46671749  1
  O2-  O425  1  0.84018611  0.43267312  0.82324478  1
  O2-  O426  1  0.84303760  0.66246635  0.15800031  1
  O2-  O427  1  0.81215716  0.64600154  0.44874170  1
  O2-  O428  1  0.84883668  0.67225057  0.78562012  1
  O2-  O429  1  0.82552586  0.94037121  0.14594679  1
  O2-  O430  1  0.81876996  0.91322691  0.48091013  1
  O2-  O431  1  0.79368083  0.93810302  0.78944714  1
  O2-  O432  1  0.17378819  0.08798312  0.19913192  1
  O2-  O433  1  0.19537151  0.08411069  0.52037265  1
  O2-  O434  1  0.17886760  0.10646765  0.83723150  1
  O2-  O435  1  0.18339424  0.34462218  0.20233197  1
  O2-  O436  1  0.15772099  0.32577222  0.51990458  1
  O2-  O437  1  0.15858092  0.33896911  0.86700973  1
  O2-  O438  1  0.17092630  0.58705255  0.19060014  1
  O2-  O439  1  0.17652829  0.58546997  0.51343602  1
  O2-  O440  1  0.15674508  0.58246818  0.84039716  1
  O2-  O441  1  0.20743028  0.89703303  0.20964793  1
  O2-  O442  1  0.15484079  0.84846474  0.50871755  1
  O2-  O443  1  0.15081026  0.82112334  0.84665082  1
  O2-  O444  1  0.43248456  0.08679060  0.18835352  1
  O2-  O445  1  0.39568885  0.09164085  0.49908432  1
  O2-  O446  1  0.40938938  0.08850388  0.85341062  1
  O2-  O447  1  0.41831618  0.31831929  0.19783773  1
  O2-  O448  1  0.40708489  0.33435245  0.54768949  1
  O2-  O449  1  0.41850691  0.33133640  0.83647131  1
  O2-  O450  1  0.43863531  0.61274459  0.15721570  1
  O2-  O451  1  0.40860506  0.58228778  0.51682640  1
  O2-  O452  1  0.36926423  0.55749134  0.85752312  1
  O2-  O453  1  0.40598203  0.82886032  0.17886727  1
  O2-  O454  1  0.39648997  0.84229417  0.51735700  1
  O2-  O455  1  0.41339294  0.82895960  0.84996719  1
  O2-  O456  1  0.66476621  0.07453352  0.16327547  1
  O2-  O457  1  0.66441448  0.09411047  0.51985756  1
  O2-  O458  1  0.65484071  0.05963803  0.85283030  1
  O2-  O459  1  0.68443729  0.33516808  0.20441455  1
  O2-  O460  1  0.64552091  0.32169706  0.51062193  1
  O2-  O461  1  0.65974575  0.34029653  0.83199209  1
  O2-  O462  1  0.68104244  0.57879334  0.20320718  1
  O2-  O463  1  0.65732162  0.56919526  0.51376659  1
  O2-  O464  1  0.66943132  0.56871541  0.82581882  1
  O2-  O465  1  0.67628872  0.84215370  0.19003257  1
  O2-  O466  1  0.65732563  0.82253052  0.52953512  1
  O2-  O467  1  0.65594850  0.81360824  0.85061576  1
  O2-  O468  1  0.91971270  0.08516030  0.19018851  1
  O2-  O469  1  0.91835603  0.07844060  0.52203739  1
  O2-  O470  1  0.92310726  0.08241550  0.86363370  1
  O2-  O471  1  0.92099292  0.32963197  0.19686804  1
  O2-  O472  1  0.91102028  0.33942733  0.51810550  1
  O2-  O473  1  0.95084304  0.42245034  0.90407350  1
  O2-  O474  1  0.91434118  0.57784945  0.20552558  1
  O2-  O475  1  0.89877247  0.57607869  0.50292804  1
  O2-  O476  1  0.91788988  0.59491465  0.85275573  1
  O2-  O477  1  0.91745611  0.84449073  0.17858731  1
  O2-  O478  1  0.89686791  0.81550721  0.50021874  1
  O2-  O479  1  0.89932883  0.82859065  0.84956351  1
  O2-  O480  1  0.20647397  0.11193220  0.32017419  1
  O2-  O481  1  0.17107297  0.08584286  0.64204263  1
  O2-  O482  1  0.10136807  0.04978198  0.93520570  1
  O2-  O483  1  0.15699476  0.32461491  0.32346555  1
  O2-  O484  1  0.17065678  0.31236122  0.63445089  1
  O2-  O485  1  0.17518619  0.33815417  0.99380217  1
  O2-  O486  1  0.14541778  0.57812019  0.31543036  1
  O2-  O487  1  0.17308908  0.61530292  0.63068068  1
  O2-  O488  1  0.16253612  0.59324237  0.96525904  1
  O2-  O489  1  0.15254303  0.81748208  0.31515189  1
  O2-  O490  1  0.15810735  0.83320341  0.64975894  1
  O2-  O491  1  0.17054146  0.83872594  0.97040638  1
  O2-  O492  1  0.43500997  0.09438806  0.31330166  1
  O2-  O493  1  0.38767318  0.07063365  0.62046367  1
  O2-  O494  1  0.42393593  0.08523488  0.97436492  1
  O2-  O495  1  0.40618161  0.32618093  0.31987292  1
  O2-  O496  1  0.41309086  0.33535446  0.61529545  1
  O2-  O497  1  0.46546670  0.41906523  0.96989880  1
  O2-  O498  1  0.34915714  0.53846824  0.31554004  1
  O2-  O499  1  0.43079707  0.60479751  0.63687061  1
  O2-  O500  1  0.38747583  0.57275016  0.97670933  1
  O2-  O501  1  0.35848929  0.78978637  0.29940645  1
  O2-  O502  1  0.42157647  0.84501124  0.64075218  1
  O2-  O503  1  0.41508464  0.83534013  0.97897662  1
  O2-  O504  1  0.66630703  0.08967770  0.32064314  1
  O2-  O505  1  0.66328312  0.07241607  0.64412480  1
  O2-  O506  1  0.66773027  0.07649798  0.97512512  1
  O2-  O507  1  0.70444120  0.34213238  0.32699691  1
  O2-  O508  1  0.66904648  0.33754221  0.64492392  1
  O2-  O509  1  0.66270299  0.32867388  0.96638893  1
  O2-  O510  1  0.67280730  0.58013653  0.32562074  1
  O2-  O511  1  0.65468290  0.57539555  0.62879616  1
  O2-  O512  1  0.64949774  0.59815135  1.02890766  1
  O2-  O513  1  0.67509821  0.84469048  0.30991964  1
  O2-  O514  1  0.65636859  0.82086988  0.64410785  1
  O2-  O515  1  0.66831494  0.83707013  0.98131547  1
  O2-  O516  1  0.92120857  0.08183072  0.31564995  1
  O2-  O517  1  0.90591637  0.07198304  0.64153499  1
  O2-  O518  1  0.91106941  0.09329351  0.98227089  1
  O2-  O519  1  0.90584268  0.32055868  0.31891826  1
  O2-  O520  1  0.89600493  0.32678564  0.64482710  1
  O2-  O521  1  0.90717259  0.34557856  1.00843974  1
  O2-  O522  1  0.91562837  0.59228128  0.32693077  1
  O2-  O523  1  0.89199147  0.60056531  0.67094183  1
  O2-  O524  1  0.91070824  0.59033237  0.97671244  1
  O2-  O525  1  0.91699827  0.82731991  0.37492794  1
  O2-  O526  1  0.92479970  0.85332675  0.64558639  1
  O2-  O527  1  0.93163541  0.80507442  0.96174294  1
  O2-  O528  1  0.08063642  0.15421884  0.00594968  1
  O2-  O529  1  0.08483546  0.15861896  0.35729252  1
  O2-  O530  1  0.07708011  0.15290661  0.68507201  1
  O2-  O531  1  0.04713484  0.35223136  0.05196090  1
  O2-  O532  1  0.07119637  0.41230066  0.35672346  1
  O2-  O533  1  0.07734725  0.43947689  0.65451021  1
  O2-  O534  1  0.07974684  0.67409462  0.01474650  1
  O2-  O535  1  0.06846275  0.66952524  0.34814111  1
  O2-  O536  1  0.07739280  0.67485549  0.67902808  1
  O2-  O537  1  0.09070056  0.92828272  0.01650213  1
  O2-  O538  1  0.08866217  0.90173670  0.37177480  1
  O2-  O539  1  0.08195121  0.92632772  0.68185039  1
  O2-  O540  1  0.40560904  0.20398366  0.03740271  1
  O2-  O541  1  0.34931529  0.15824183  0.36961767  1
  O2-  O542  1  0.33300193  0.18567322  0.66780490  1
  O2-  O543  1  0.34027901  0.42646783  0.03577911  1
  O2-  O544  1  0.31568172  0.39396244  0.37379133  1
  O2-  O545  1  0.33624285  0.40158372  0.65954559  1
  O2-  O546  1  0.31683921  0.66822729  0.01421030  1
  O2-  O547  1  0.30663197  0.65202927  0.36082837  1
  O2-  O548  1  0.33812323  0.67672922  0.67892652  1
  O2-  O549  1  0.33191773  0.92189000  0.01916244  1
  O2-  O550  1  0.40256932  0.94087067  0.36139699  1
  O2-  O551  1  0.33509549  0.92553040  0.67365573  1
  O2-  O552  1  0.59193589  0.16561243  0.01566214  1
  O2-  O553  1  0.59368837  0.17125749  0.35755038  1
  O2-  O554  1  0.59558660  0.16210026  0.69249606  1
  O2-  O555  1  0.54985901  0.35521965  0.03401927  1
  O2-  O556  1  0.57020756  0.42647664  0.36714883  1
  O2-  O557  1  0.57538091  0.41329167  0.66823531  1
  O2-  O558  1  0.55109172  0.66923701  0.01961828  1
  O2-  O559  1  0.66136138  0.70641088  0.37603999  1
  O2-  O560  1  0.57972053  0.66704312  0.66899162  1
  O2-  O561  1  0.58329283  0.91541747  0.02199214  1
  O2-  O562  1  0.57816176  0.92485889  0.35037835  1
  O2-  O563  1  0.57958514  0.91580633  0.68866255  1
  O2-  O564  1  0.83002790  0.17472900  0.02262196  1
  O2-  O565  1  0.83664280  0.16168849  0.35930174  1
  O2-  O566  1  0.82631548  0.14880463  0.68367039  1
  O2-  O567  1  0.81622276  0.42705142  0.02616044  1
  O2-  O568  1  0.79607053  0.38342655  0.34190629  1
  O2-  O569  1  0.83461038  0.42320402  0.70242091  1
  O2-  O570  1  0.82147968  0.66305461  0.03014619  1
  O2-  O571  1  0.82491619  0.65555676  0.38108465  1
  O2-  O572  1  0.74067994  0.62669387  0.65607721  1
  O2-  O573  1  0.82576480  0.92186162  0.02632176  1
  O2-  O574  1  0.83271895  0.91926697  0.35731675  1
  O2-  O575  1  0.83503498  0.92425063  0.68392169  1
