# generated using pymatgen
data_H2O
_symmetry_space_group_name_H-M   'P 1'
_cell_length_a   17.99706579
_cell_length_b   17.98525940
_cell_length_c   22.00634746
_cell_angle_alpha   89.99671022
_cell_angle_beta   89.99066753
_cell_angle_gamma   120.00180230
_symmetry_Int_Tables_number   1
_chemical_formula_structural   H2O
_chemical_formula_sum   'H384 O192'
_cell_volume   6168.63549871
_cell_formula_units_Z   192
loop_
 _symmetry_equiv_pos_site_id
 _symmetry_equiv_pos_as_xyz
  1  'x, y, z'
loop_
 _atom_type_symbol
 _atom_type_oxidation_number
  H+  1.0
  O2-  -2.0
loop_
 _atom_site_type_symbol
 _atom_site_label
 _atom_site_symmetry_multiplicity
 _atom_site_fract_x
 _atom_site_fract_y
 _atom_site_fract_z
 _atom_site_occupancy
  H+  H0  1  0.57731423  0.41052543  0.06904208  1
  H+  H1  1  0.59900832  0.64212664  -0.09015824  1
  H+  H2  1  0.23347880  0.35133552  0.17566726  1
  H+  H3  1  0.76466050  0.88505580  0.67390339  1
  H+  H4  1  0.86561521  0.24306007  0.66531323  1
  H+  H5  1  -0.03654038  0.86833577  0.67238721  1
  H+  H6  1  0.39751933  0.60503098  0.51830557  1
  H+  H7  1  0.10842400  0.72624283  1.01374712  1
  H+  H8  1  0.88268887  0.85257348  0.50704526  1
  H+  H9  1  0.85515966  0.97712931  0.66963139  1
  H+  H10  1  0.36566525  0.62907561  1.01238267  1
  H+  H11  1  0.26204711  0.37847387  0.66911575  1
  H+  H12  1  0.86473719  -0.02564986  0.50522741  1
  H+  H13  1  0.39192798  0.85306496  0.85776583  1
  H+  H14  1  0.35850613  0.71509655  0.33709410  1
  H+  H15  1  0.78389574  0.39546809  0.82660291  1
  H+  H16  1  0.63628812  0.78761733  0.80785028  1
  H+  H17  1  0.12934979  0.26824866  0.65484173  1
  H+  H18  1  0.51721934  0.38957031  0.49336962  1
  H+  H19  1  0.35540895  0.22213865  0.48920080  1
  H+  H20  1  0.36981285  0.15368685  0.86922358  1
  H+  H21  1  0.12443266  -0.02489080  1.01012111  1
  H+  H22  1  0.58314101  0.16159781  0.10462717  1
  H+  H23  1  0.51879584  0.64270271  0.79877020  1
  H+  H24  1  0.86820709  0.38940497  0.00152623  1
  H+  H25  1  0.10326980  0.71835569  0.66361830  1
  H+  H26  1  0.28438617  0.63859578  0.69273307  1
  H+  H27  1  0.08603566  0.15024118  0.31086926  1
  H+  H28  1  0.37662885  0.57937057  0.33845000  1
  H+  H29  1  0.21376984  0.66886385  0.53738358  1
  H+  H30  1  0.61872342  0.71512862  0.50207647  1
  H+  H31  1  0.63143734  0.85865278  0.66039379  1
  H+  H32  1  0.36102230  -0.02488052  1.02224760  1
  H+  H33  1  0.53680931  0.39361750  0.81885346  1
  H+  H34  1  0.97580858  0.60964112  0.65573067  1
  H+  H35  1  0.09784689  0.63956902  0.48213933  1
  H+  H36  1  -0.01646954  0.36297079  0.32396737  1
  H+  H37  1  0.40940844  1.03159827  0.67170560  1
  H+  H38  1  0.36450098  0.34901147  0.65685818  1
  H+  H39  1  0.85965526  -0.01803811  0.35235695  1
  H+  H40  1  0.85820912  0.27855478  0.51899114  1
  H+  H41  1  0.63827486  0.51454853  1.00298885  1
  H+  H42  1  0.87293791  0.77501083  0.67457852  1
  H+  H43  1  0.62301150  0.63404896  -0.02517828  1
  H+  H44  1  0.34792882  0.38289192  0.00915169  1
  H+  H45  1  0.82434243  0.18240963  0.00590854  1
  H+  H46  1  0.11888469  0.62824735  0.16592084  1
  H+  H47  1  0.38453943  0.72344561  0.01994527  1
  H+  H48  1  0.72217592  0.35584585  0.32626170  1
  H+  H49  1  0.82444622  0.66380584  0.73376573  1
  H+  H50  1  0.53719034  0.15383336  0.66991794  1
  H+  H51  1  0.42330435  0.31200377  0.67943973  1
  H+  H52  1  0.03408419  0.59889765  0.80637930  1
  H+  H53  1  0.35486538  0.46609983  0.67255169  1
  H+  H54  1  0.51439404  0.62180849  0.35217687  1
  H+  H55  1  0.24919107  0.86795080  0.49294935  1
  H+  H56  1  0.77968918  0.14807990  0.66718400  1
  H+  H57  1  0.59917162  0.71629837  0.35885781  1
  H+  H58  1  0.78296408  0.14980972  0.81438507  1
  H+  H59  1  0.86086141  0.89288410  0.34942368  1
  H+  H60  1  0.85649494  0.46684521  0.33691683  1
  H+  H61  1  0.60304191  0.72491713  0.69747812  1
  H+  H62  1  0.11528245  -0.03014360  0.33204323  1
  H+  H63  1  0.87654741  0.46454113  0.15977930  1
  H+  H64  1  0.86253936  0.72275584  0.03354329  1
  H+  H65  1  0.86736356  0.38810280  0.66582212  1
  H+  H66  1  0.61290698  0.80151732  0.20425223  1
  H+  H67  1  0.15014908  0.61775550  0.66545583  1
  H+  H68  1  0.29119134  0.91483167  0.64285406  1
  H+  H69  1  0.01536052  0.13178339  0.66372403  1
  H+  H70  1  0.88265951  0.86253424  0.98269871  1
  H+  H71  1  0.63390801  0.40077540  0.66347617  1
  H+  H72  1  0.88652246  0.60591362  0.32646241  1
  H+  H73  1  0.63135035  0.52671774  0.84511801  1
  H+  H74  1  0.12022473  0.10200494  0.64590359  1
  H+  H75  1  -0.02846479  0.86602286  0.33093044  1
  H+  H76  1  0.09663438  0.96794203  0.66250270  1
  H+  H77  1  0.47016420  0.62121037  0.19572041  1
  H+  H78  1  0.61857257  0.47372870  0.33839970  1
  H+  H79  1  0.46967377  0.60359032  0.68056811  1
  H+  H80  1  0.11806338  0.50007846  0.32733939  1
  H+  H81  1  0.27680409  0.38529040  0.49770132  1
  H+  H82  1  0.65069615  0.29447970  0.64725170  1
  H+  H83  1  0.13642154  0.75813411  0.17368497  1
  H+  H84  1  0.36332822  0.96490607  0.84508388  1
  H+  H85  1  0.30744487  0.15551017  0.17228890  1
  H+  H86  1  0.12776464  0.35914248  0.50482750  1
  H+  H87  1  1.03065470  0.88954629  1.00569355  1
  H+  H88  1  0.87543357  0.62645488  0.50561269  1
  H+  H89  1  0.15827160  0.11444971  0.34899002  1
  H+  H90  1  0.73969590  0.38097258  0.65154588  1
  H+  H91  1  0.72581043  0.36025003  0.99359862  1
  H+  H92  1  0.26258918  0.13396456  0.48526170  1
  H+  H93  1  0.83674599  0.62418752  0.82588295  1
  H+  H94  1  0.96935294  0.61818359  0.50067624  1
  H+  H95  1  0.51635361  0.88311388  0.82060036  1
  H+  H96  1  0.39199782  0.86973949  0.32187711  1
  H+  H97  1  0.88368865  0.78430079  0.94921186  1
  H+  H98  1  0.40058702  0.10577403  0.50498330  1
  H+  H99  1  0.97323707  0.60034484  0.32725578  1
  H+  H100  1  0.27047282  0.88500039  0.01849991  1
  H+  H101  1  0.34732151  0.71369961  0.16650526  1
  H+  H102  1  0.71926631  0.97445089  0.44444825  1
  H+  H103  1  0.61341153  0.22749885  1.00480540  1
  H+  H104  1  0.37570984  0.60511432  0.18662768  1
  H+  H105  1  0.13904425  0.86076211  -0.00199867  1
  H+  H106  1  0.60555554  0.13358144  1.00573469  1
  H+  H107  1  0.87598757  0.11482379  0.33844241  1
  H+  H108  1  0.52399741  0.39639026  0.35014072  1
  H+  H109  1  0.37234841  0.63424082  0.83773664  1
  H+  H110  1  0.86745438  0.64820822  0.67352983  1
  H+  H111  1  0.35549941  0.87534677  0.16738282  1
  H+  H112  1  0.75377486  0.63279114  0.82343161  1
  H+  H113  1  0.67017679  0.04196099  0.50042595  1
  H+  H114  1  0.04501682  0.98457803  0.14278131  1
  H+  H115  1  0.97102274  0.10983932  0.50602737  1
  H+  H116  1  0.84163094  0.18202795  0.75458505  1
  H+  H117  1  0.98498980  0.37229632  0.83594485  1
  H+  H118  1  0.63256748  0.13904917  0.48218691  1
  H+  H119  1  0.12468495  0.85076910  0.32414470  1
  H+  H120  1  0.09548331  0.84452102  0.64763171  1
  H+  H121  1  0.18294909  0.84842234  0.63514622  1
  H+  H122  1  0.51215233  0.38774461  0.15387557  1
  H+  H123  1  0.63147967  0.00527788  0.83875990  1
  H+  H124  1  0.38309867  0.15022308  0.33737036  1
  H+  H125  1  0.62367257  0.14948865  0.82749089  1
  H+  H126  1  0.12016404  0.36410698  0.32326032  1
  H+  H127  1  0.87594915  0.69924946  0.17660900  1
  H+  H128  1  0.09135138  0.66436759  0.72538240  1
  H+  H129  1  0.86513042  0.87550269  0.67494924  1
  H+  H130  1  0.77147334  0.63002685  0.49533548  1
  H+  H131  1  0.08825112  0.46379753  0.49052722  1
  H+  H132  1  0.86686126  0.83803519  0.14983176  1
  H+  H133  1  0.61412909  0.68148568  0.22111042  1
  H+  H134  1  0.03873137  0.13197594  0.00744390  1
  H+  H135  1  0.69141111  0.89799140  0.20239923  1
  H+  H136  1  0.37232239  0.13738062  0.02564004  1
  H+  H137  1  0.65398596  0.53668666  0.65423696  1
  H+  H138  1  1.04564119  0.44389639  0.99334518  1
  H+  H139  1  0.83426156  0.16848529  0.40543473  1
  H+  H140  1  0.86428732  0.22789723  0.34269947  1
  H+  H141  1  0.44941083  0.37596382  0.89384406  1
  H+  H142  1  0.82415331  0.40667532  0.39527468  1
  H+  H143  1  0.39990110  0.08741634  0.79871030  1
  H+  H144  1  0.91221165  0.88874652  0.83766381  1
  H+  H145  1  0.74220729  0.12676263  0.17490566  1
  H+  H146  1  0.12926587  0.35787229  0.65981479  1
  H+  H147  1  0.59309638  0.69241857  0.14996050  1
  H+  H148  1  0.90315449  0.36306560  0.16938494  1
  H+  H149  1  0.40185586  0.89435458  0.69137745  1
  H+  H150  1  0.38754405  0.76622452  0.67008373  1
  H+  H151  1  0.88158221  0.11038930  0.50302097  1
  H+  H152  1  0.12184066  0.12285482  0.01576715  1
  H+  H153  1  0.11386463  0.38247935  0.82329607  1
  H+  H154  1  0.39039943  0.52265619  0.83037443  1
  H+  H155  1  0.26483524  0.87967196  0.16499822  1
  H+  H156  1  0.14269138  0.01826712  0.83680031  1
  H+  H157  1  0.27706286  0.59360610  0.48329684  1
  H+  H158  1  0.63237914  0.35354436  0.33118480  1
  H+  H159  1  0.84868803  0.97204743  0.21430604  1
  H+  H160  1  0.02973965  0.14203604  0.81557396  1
  H+  H161  1  0.52722202  0.13139950  0.16604004  1
  H+  H162  1  0.78773714  0.90008686  0.82334106  1
  H+  H163  1  0.14223716  0.34386807  0.17112863  1
  H+  H164  1  0.88526399  0.52274803  0.65469664  1
  H+  H165  1  0.73462258  0.85109482  0.51730119  1
  H+  H166  1  0.37135435  0.38519132  0.15512885  1
  H+  H167  1  0.62493078  0.13690826  0.33371888  1
  H+  H168  1  0.13833030  0.27621620  0.82548766  1
  H+  H169  1  0.34700309  0.16264760  0.40046752  1
  H+  H170  1  0.41004426  0.56418340  0.27710856  1
  H+  H171  1  0.14539159  0.07247560  0.54794226  1
  H+  H172  1  0.62029102  -0.15523109  0.96751802  1
  H+  H173  1  0.12710129  0.81716924  0.54906538  1
  H+  H174  1  0.25367863  0.89201523  0.34467297  1
  H+  H175  1  0.59821472  0.37800838  0.15477369  1
  H+  H176  1  0.67975535  0.09649829  0.26466730  1
  H+  H177  1  0.75941528  0.85022345  0.12380367  1
  H+  H178  1  0.04236441  0.89898296  0.81804799  1
  H+  H179  1  0.54996704  0.41008906  0.66079740  1
  H+  H180  1  0.37117532  0.63545394  0.68861092  1
  H+  H181  1  0.10939703  0.76571224  0.48662557  1
  H+  H182  1  0.27505759  0.92233707  0.67288316  1
  H+  H183  1  0.65025507  0.11960685  0.17629232  1
  H+  H184  1  0.39576060  0.76600069  0.85258887  1
  H+  H185  1  0.72869323  0.60399709  0.00963308  1
  H+  H186  1  0.87440808  0.39881693  0.82632047  1
  H+  H187  1  0.47493595  0.86222259  0.32230903  1
  H+  H188  1  0.16607544  0.03631921  0.18086497  1
  H+  H189  1  0.54321085  0.14109064  0.48495749  1
  H+  H190  1  0.86230023  0.72627136  0.49468339  1
  H+  H191  1  0.21113206  0.59475820  0.32697877  1
  H+  H192  1  0.33033449  0.41186001  0.76200735  1
  H+  H193  1  0.88204437  0.52403035  0.84560285  1
  H+  H194  1  0.90090163  0.13256167  0.82992916  1
  H+  H195  1  0.87913164  0.15443652  0.16089332  1
  H+  H196  1  0.72104114  0.37240772  0.53302634  1
  H+  H197  1  0.85961105  0.47243545  0.00970214  1
  H+  H198  1  0.36737930  0.39199684  0.82201418  1
  H+  H199  1  0.13491553  0.76257125  0.84118530  1
  H+  H200  1  0.21735620  0.59806573  0.17577595  1
  H+  H201  1  0.12888030  0.62768771  0.82237669  1
  H+  H202  1  0.84886389  0.38353196  0.50016743  1
  H+  H203  1  0.11025533  0.71177318  0.33469054  1
  H+  H204  1  0.10150628  0.88567247  0.47839645  1
  H+  H205  1  0.61187753  0.89643201  0.33709570  1
  H+  H206  1  0.64677694  0.36999807  0.83732860  1
  H+  H207  1  0.40781648  0.13037269  0.18035400  1
  H+  H208  1  0.96331087  0.36339192  0.65574184  1
  H+  H209  1  0.73098075  0.12142998  0.32985033  1
  H+  H210  1  0.16159107  0.33196992  0.26890464  1
  H+  H211  1  0.11813265  0.47417182  0.82482107  1
  H+  H212  1  0.88421066  0.11808742  0.65786011  1
  H+  H213  1  0.86427922  0.72134042  0.34263669  1
  H+  H214  1  0.67945152  0.06146273  1.00672536  1
  H+  H215  1  0.73601726  0.57288155  0.19542140  1
  H+  H216  1  0.38918203  0.25603729  0.16364082  1
  H+  H217  1  0.11998257  0.20472857  0.16838466  1
  H+  H218  1  -0.00775236  0.13666134  0.18570621  1
  H+  H219  1  0.52078249  0.38110325  0.00739605  1
  H+  H220  1  0.63980775  0.49805126  0.18682802  1
  H+  H221  1  0.15985797  0.33119157  0.56324711  1
  H+  H222  1  1.01490765  0.64010379  1.01680203  1
  H+  H223  1  0.11747987  0.13902432  0.81384861  1
  H+  H224  1  0.32385777  0.90150874  0.44545047  1
  H+  H225  1  0.36293284  0.47093992  0.16312342  1
  H+  H226  1  0.28066394  0.15195959  0.86709047  1
  H+  H227  1  0.75466220  0.13205313  0.50357893  1
  H+  H228  1  0.23752768  0.61167947  0.84817024  1
  H+  H229  1  0.49027056  0.85925586  0.49705229  1
  H+  H230  1  0.61240784  -0.02140823  0.65920318  1
  H+  H231  1  0.12645714  0.11374213  0.49006475  1
  H+  H232  1  0.48980232  0.89831566  0.48540573  1
  H+  H233  1  0.89749204  0.22050643  0.48207715  1
  H+  H234  1  1.00056601  0.85061917  0.18537548  1
  H+  H235  1  0.33538163  0.69015534  0.50062104  1
  H+  H236  1  0.98717789  0.60185277  0.17957492  1
  H+  H237  1  0.83497346  0.91609430  0.44556625  1
  H+  H238  1  0.38599978  0.36304152  0.50294597  1
  H+  H239  1  0.13329872  0.84660886  0.17055794  1
  H+  H240  1  0.11798878  0.45449608  0.14895022  1
  H+  H241  1  0.88868261  0.35557237  0.32201583  1
  H+  H242  1  0.00093013  0.37781558  0.50032519  1
  H+  H243  1  0.48022755  0.11190405  0.00168096  1
  H+  H244  1  0.91339806  0.13125483  0.98996065  1
  H+  H245  1  0.87234766  0.61051258  0.16805389  1
  H+  H246  1  0.96759320  0.11989438  0.33963567  1
  H+  H247  1  0.93250824  0.30762688  -0.00587516  1
  H+  H248  1  0.03135746  0.36768505  0.15408642  1
  H+  H249  1  0.65907231  0.83030522  0.29471094  1
  H+  H250  1  0.10874156  0.61920286  0.33586924  1
  H+  H251  1  0.34164463  0.20554094  0.62497067  1
  H+  H252  1  0.88640442  -0.01944395  0.19433840  1
  H+  H253  1  0.77607061  0.89167241  -0.03028197  1
  H+  H254  1  0.38049359  0.26379145  1.01306876  1
  H+  H255  1  0.95533228  0.62387108  0.85258292  1
  H+  H256  1  0.72318859  0.85886319  0.35058455  1
  H+  H257  1  0.61778814  0.48994593  0.49909011  1
  H+  H258  1  0.56505060  0.93577319  -0.00258118  1
  H+  H259  1  0.36750757  0.47029587  0.50730866  1
  H+  H260  1  0.86740859  0.18869099  0.07058535  1
  H+  H261  1  0.84766034  0.83361481  0.18098986  1
  H+  H262  1  0.40090996  0.29005468  0.85664429  1
  H+  H263  1  0.63715237  0.60483436  0.50635415  1
  H+  H264  1  0.47524466  0.60153713  0.97496426  1
  H+  H265  1  0.15872365  0.57523970  0.89763309  1
  H+  H266  1  0.57836266  0.89343639  0.15981287  1
  H+  H267  1  0.11566142  0.36527687  1.05203284  1
  H+  H268  1  0.60638990  0.88889708  0.80679439  1
  H+  H269  1  0.88099927  0.61075312  1.00821601  1
  H+  H270  1  0.39170152  0.03527171  0.18303561  1
  H+  H271  1  0.10966843  0.22898181  0.48817782  1
  H+  H272  1  0.31528394  0.80636420  0.51611253  1
  H+  H273  1  0.32302729  0.14188037  0.57068479  1
  H+  H274  1  0.64394767  0.12059391  0.65218620  1
  H+  H275  1  0.24696786  0.11002253  1.01305514  1
  H+  H276  1  0.10124269  0.60333833  0.99067982  1
  H+  H277  1  0.61892155  0.22757827  0.33795937  1
  H+  H278  1  0.33149178  0.42280502  1.06796895  1
  H+  H279  1  0.38393538  0.51575011  -0.01072445  1
  H+  H280  1  0.89720556  0.03608624  0.97786386  1
  H+  H281  1  0.48704317  0.12418319  0.83315751  1
  H+  H282  1  0.38450430  0.10185814  0.64735532  1
  H+  H283  1  0.11360130  0.47119197  0.67608276  1
  H+  H284  1  0.63775472  0.76793922  -0.04696216  1
  H+  H285  1  -0.03109880  0.85246646  0.49263772  1
  H+  H286  1  0.12531418  0.88721314  0.81953379  1
  H+  H287  1  0.63294477  0.64610411  0.30260824  1
  H+  H288  1  0.28895803  0.14804947  0.73682602  1
  H+  H289  1  0.58585449  0.42418796  0.43457227  1
  H+  H290  1  0.54902340  0.66841868  0.06908077  1
  H+  H291  1  0.66539107  0.60897253  0.24643455  1
  H+  H292  1  0.08030482  0.14543534  0.11101299  1
  H+  H293  1  0.16824147  0.82780787  0.93983326  1
  H+  H294  1  0.32569337  0.91224725  0.09819979  1
  H+  H295  1  0.42145351  0.58062259  0.61558709  1
  H+  H296  1  0.22534663  0.84858035  0.84459203  1
  H+  H297  1  0.59498420  0.16310015  0.40308414  1
  H+  H298  1  0.66181910  0.84024591  0.87004978  1
  H+  H299  1  0.58068432  0.65252666  0.44358762  1
  H+  H300  1  1.00014388  0.78515180  0.23395670  1
  H+  H301  1  0.91689220  0.59232028  0.56867534  1
  H+  H302  1  0.57712598  0.91982086  0.71874645  1
  H+  H303  1  0.33067857  0.65485735  0.10794511  1
  H+  H304  1  0.19854327  0.58960184  0.61755355  1
  H+  H305  1  0.24304574  0.11206724  0.33529672  1
  H+  H306  1  0.62329854  0.26676644  0.17110908  1
  H+  H307  1  0.61487061  0.98746584  0.33197494  1
  H+  H308  1  0.20474776  0.09445743  0.63125261  1
  H+  H309  1  0.37027582  0.28401330  0.94781484  1
  H+  H310  1  0.07859725  0.17281506  0.42730759  1
  H+  H311  1  0.08667836  0.66196995  0.10793741  1
  H+  H312  1  0.08111577  0.16085432  0.71976146  1
  H+  H313  1  0.84034714  0.42564845  0.72530745  1
  H+  H314  1  0.45290319  0.83136446  0.94196161  1
  H+  H315  1  0.87343203  -0.01004504  0.83475949  1
  H+  H316  1  0.92176500  0.56705701  0.23702383  1
  H+  H317  1  0.34937865  0.17367489  0.08760148  1
  H+  H318  1  0.07898898  0.40965256  0.73285281  1
  H+  H319  1  0.65189904  0.85560316  0.50746106  1
  H+  H320  1  0.60099788  0.42801995  0.76215892  1
  H+  H321  1  0.67002535  0.57573784  0.90712675  1
  H+  H322  1  0.42177155  0.57705127  0.89204396  1
  H+  H323  1  0.08439150  0.91629079  0.72557490  1
  H+  H324  1  0.07683457  0.91020814  0.38957806  1
  H+  H325  1  0.16424723  0.82396352  0.26870385  1
  H+  H326  1  0.40213022  0.82976061  0.23341613  1
  H+  H327  1  0.11980898  0.60078902  0.56265992  1
  H+  H328  1  0.90078969  0.33787660  0.58103714  1
  H+  H329  1  0.84413632  0.40614087  0.10034533  1
  H+  H330  1  0.06432106  0.65550261  0.41888103  1
  H+  H331  1  0.67298142  0.57735982  0.56596716  1
  H+  H332  1  0.52774024  0.62080871  0.07562647  1
  H+  H333  1  0.60076652  0.18579215  0.72602243  1
  H+  H334  1  0.63590877  0.36017422  0.99488732  1
  H+  H335  1  0.83434193  0.65355956  0.08768072  1
  H+  H336  1  0.45055848  0.85429012  0.16720320  1
  H+  H337  1  0.47225208  0.96936115  0.73006343  1
  H+  H338  1  0.31267461  0.13847738  0.76093890  1
  H+  H339  1  0.67209211  0.33856161  0.89894028  1
  H+  H340  1  0.39352064  0.43974776  0.31860736  1
  H+  H341  1  0.41899001  0.32983622  0.55866507  1
  H+  H342  1  0.41281026  0.07542685  0.94715502  1
  H+  H343  1  0.64613118  0.05452402  0.93913731  1
  H+  H344  1  0.80858611  0.94864091  0.13207208  1
  H+  H345  1  0.81204451  0.91478549  0.03531705  1
  H+  H346  1  0.95933569  0.87155372  0.89119187  1
  H+  H347  1  0.66136816  0.81812707  0.60862291  1
  H+  H348  1  0.10198022  0.97607428  0.47630561  1
  H+  H349  1  0.54070610  0.88115783  0.09247446  1
  H+  H350  1  0.90698185  0.58265548  0.94604220  1
  H+  H351  1  0.64931930  0.32826650  0.22789979  1
  H+  H352  1  0.15352704  0.56513604  0.23294085  1
  H+  H353  1  0.62525861  0.93800209  0.42123235  1
  H+  H354  1  0.19221526  0.08731920  0.24293623  1
  H+  H355  1  0.73859858  0.62701935  0.65008634  1
  H+  H356  1  0.34652896  0.78007303  0.57731689  1
  H+  H357  1  0.62511162  0.23910641  0.82940637  1
  H+  H358  1  0.93392534  0.10704718  0.89070922  1
  H+  H359  1  0.18928532  0.37377341  1.01140137  1
  H+  H360  1  0.90845579  0.82679802  0.27692984  1
  H+  H361  1  0.35502475  0.91261414  0.78652466  1
  H+  H362  1  0.92879311  0.32923412  0.23000550  1
  H+  H363  1  0.90888235  0.08228057  0.59880696  1
  H+  H364  1  0.07420438  0.93318605  0.09964229  1
  H+  H365  1  0.33455583  0.65819513  0.39654750  1
  H+  H366  1  0.71915092  0.03815266  0.87156704  1
  H+  H367  1  0.87546052  0.23879018  0.15575123  1
  H+  H368  1  0.22427994  0.36518949  0.83257274  1
  H+  H369  1  0.83745925  0.65901478  0.39863312  1
  H+  H370  1  0.89421257  0.28613106  0.83500716  1
  H+  H371  1  0.48589121  0.60505764  0.52211575  1
  H+  H372  1  0.11165846  0.24879541  0.33229150  1
  H+  H373  1  0.42335962  0.35234966  0.21888216  1
  H+  H374  1  0.19948505  0.08386010  0.94812434  1
  H+  H375  1  0.34362490  0.67024226  0.78242462  1
  H+  H376  1  0.47057670  0.85226200  0.64761249  1
  H+  H377  1  0.07251782  0.40948213  0.38747639  1
  H+  H378  1  0.93594986  0.35201948  0.93041303  1
  H+  H379  1  0.44133172  0.09236796  0.56522225  1
  H+  H380  1  0.10569441  0.05645366  0.88435110  1
  H+  H381  1  0.67764276  0.09246687  0.59380249  1
  H+  H382  1  0.92991433  0.11708066  0.24449691  1
  H+  H383  1  0.38798735  0.29071685  0.34551964  1
  O2-  O384  1  0.08017172  0.14395760  0.15646214  1
  O2-  O385  1  0.07879391  0.16851416  0.47231500  1
  O2-  O386  1  0.08848656  0.16820331  0.79640671  1
  O2-  O387  1  0.09123388  0.39344518  0.13769562  1
  O2-  O388  1  0.06052631  0.40218830  0.48352842  1
  O2-  O389  1  0.08320322  0.41458995  0.80919625  1
  O2-  O390  1  0.09126141  0.66398724  0.15331990  1
  O2-  O391  1  0.06114115  0.66108873  0.46523805  1
  O2-  O392  1  0.09086988  0.65007004  0.80438486  1
  O2-  O393  1  0.06554981  0.94338692  0.14334997  1
  O2-  O394  1  0.07118696  0.91525947  0.46153240  1
  O2-  O395  1  0.10400481  0.92435669  0.80238101  1
  O2-  O396  1  0.36497043  0.18917958  0.15282828  1
  O2-  O397  1  0.32630790  0.15934570  0.48045872  1
  O2-  O398  1  0.34112654  0.18671278  0.87958817  1
  O2-  O399  1  0.33502962  0.41404377  0.14329018  1
  O2-  O400  1  0.33890476  0.41241221  0.48842168  1
  O2-  O401  1  0.33455715  0.41909258  0.80715301  1
  O2-  O402  1  0.32337075  0.65307669  0.15367336  1
  O2-  O403  1  0.33582210  0.64099870  0.47895025  1
  O2-  O404  1  0.34185295  0.66725729  0.82788620  1
  O2-  O405  1  0.32611132  0.91071017  0.14991215  1
  O2-  O406  1  0.31020195  0.88348692  0.48814751  1
  O2-  O407  1  0.33614791  0.90537622  0.83002280  1
  O2-  O408  1  0.58779293  0.16105995  0.14927490  1
  O2-  O409  1  0.59918230  0.16375292  0.46321754  1
  O2-  O410  1  0.59261847  0.17773811  0.81316760  1
  O2-  O411  1  0.57589541  0.41586275  0.13847035  1
  O2-  O412  1  0.58075314  0.42392222  0.48056892  1
  O2-  O413  1  0.59847138  0.42392947  0.80741129  1
  O2-  O414  1  0.57951083  0.70055067  0.19139779  1
  O2-  O415  1  0.58630288  0.65335962  0.48937512  1
  O2-  O416  1  0.57686159  0.68286381  0.78145149  1
  O2-  O417  1  0.53830093  0.90133105  0.13357345  1
  O2-  O418  1  0.66028505  0.94704206  0.45920042  1
  O2-  O419  1  0.57222052  0.91894261  0.79851357  1
  O2-  O420  1  0.84587421  0.17800173  0.13833314  1
  O2-  O421  1  0.84623875  0.16492516  0.47570818  1
  O2-  O422  1  0.84294710  0.18140614  0.80120332  1
  O2-  O423  1  0.85147587  0.40488093  0.14477054  1
  O2-  O424  1  0.81946417  0.41276567  0.47903575  1
  O2-  O425  1  0.84436655  0.43031824  0.81223990  1
  O2-  O426  1  0.84012917  0.64213737  0.15786037  1
  O2-  O427  1  0.83315137  0.66118783  0.48228467  1
  O2-  O428  1  0.81089460  0.65344204  0.80409103  1
  O2-  O429  1  0.76389677  0.90279085  0.10744452  1
  O2-  O430  1  0.83502817  0.91273788  0.49107200  1
  O2-  O431  1  0.84780945  0.92678765  0.83677080  1
  O2-  O432  1  0.21317059  0.08443538  0.20227042  1
  O2-  O433  1  0.15491021  0.07995956  0.50313360  1
  O2-  O434  1  0.15694523  0.07300337  0.85981826  1
  O2-  O435  1  0.17340277  0.31764117  0.19156374  1
  O2-  O436  1  0.16155274  0.33178080  0.51782276  1
  O2-  O437  1  0.16253927  0.33440269  0.84302161  1
  O2-  O438  1  0.15529804  0.56853998  0.18736431  1
  O2-  O439  1  0.16116424  0.61040820  0.53068175  1
  O2-  O440  1  0.17351306  0.58118005  0.85334770  1
  O2-  O441  1  0.16528643  0.82147120  0.18837429  1
  O2-  O442  1  0.13909533  0.82481295  0.50468910  1
  O2-  O443  1  0.16383297  0.82205941  0.85681352  1
  O2-  O444  1  0.43207151  0.09421152  0.19531216  1
  O2-  O445  1  0.45336757  0.11336353  0.52318765  1
  O2-  O446  1  0.42286621  0.09204682  0.83968544  1
  O2-  O447  1  0.42187342  0.34439493  0.17497033  1
  O2-  O448  1  0.41993585  0.33215512  0.51391826  1
  O2-  O449  1  0.43553737  0.35416429  0.85219671  1
  O2-  O450  1  0.40877202  0.57798196  0.20251583  1
  O2-  O451  1  0.42622109  0.57698018  0.53907819  1
  O2-  O452  1  0.42512935  0.58273043  0.84633555  1
  O2-  O453  1  0.39179726  0.82612593  0.18807213  1
  O2-  O454  1  0.31196297  0.75555276  0.53973077  1
  O2-  O455  1  0.42950075  0.82831619  0.86600512  1
  O2-  O456  1  0.68482935  0.09591031  0.19449105  1
  O2-  O457  1  0.69153651  0.10024142  0.51747302  1
  O2-  O458  1  0.67601244  0.05504447  0.86431494  1
  O2-  O459  1  0.64256833  0.32690779  0.18352402  1
  O2-  O460  1  0.72832218  0.35418305  0.49233490  1
  O2-  O461  1  0.67508971  0.33800800  0.85330953  1
  O2-  O462  1  0.68110157  0.53959651  0.21743953  1
  O2-  O463  1  0.66714660  0.57150353  0.51834265  1
  O2-  O464  1  0.65693764  0.58405562  0.86456883  1
  O2-  O465  1  0.63330016  0.86258229  0.21783782  1
  O2-  O466  1  0.67179772  0.81996756  0.52849463  1
  O2-  O467  1  0.66492625  0.84699941  0.82477418  1
  O2-  O468  1  0.93947459  0.13586761  0.20172575  1
  O2-  O469  1  0.91168865  0.07908350  0.52248696  1
  O2-  O470  1  0.93184632  0.10327378  0.84511061  1
  O2-  O471  1  0.93271188  0.33076730  0.18460938  1
  O2-  O472  1  0.89783261  0.33842175  0.53019535  1
  O2-  O473  1  0.92417210  0.34539388  0.85191616  1
  O2-  O474  1  0.92540764  0.56772836  0.19130879  1
  O2-  O475  1  0.91228313  0.59515446  0.52232330  1
  O2-  O476  1  0.89879638  0.58057374  0.86680600  1
  O2-  O477  1  0.96287037  0.79813767  0.20968464  1
  O2-  O478  1  0.91190258  0.81826331  0.51255785  1
  O2-  O479  1  0.95245942  0.86625944  0.84707243  1
  O2-  O480  1  0.18000805  0.08236742  0.32642995  1
  O2-  O481  1  0.14111153  0.06402235  0.62794974  1
  O2-  O482  1  0.18872931  0.07589364  0.99189077  1
  O2-  O483  1  0.15178380  0.33065412  0.31369497  1
  O2-  O484  1  0.16149735  0.33016118  0.64265093  1
  O2-  O485  1  0.12745947  0.35253995  1.01095574  1
  O2-  O486  1  0.15116706  0.56766586  0.31245184  1
  O2-  O487  1  0.18398730  0.58725021  0.66063228  1
  O2-  O488  1  0.10319528  0.56009170  0.96271705  1
  O2-  O489  1  0.15840969  0.82155713  0.31366245  1
  O2-  O490  1  0.12109481  0.81105675  0.62835342  1
  O2-  O491  1  0.17007861  0.83028592  0.98506095  1
  O2-  O492  1  0.37600096  -0.04637165  0.33336090  1
  O2-  O493  1  0.43047516  0.08693836  0.65042693  1
  O2-  O494  1  0.41669732  0.07630095  0.99135873  1
  O2-  O495  1  0.41766747  0.35378849  0.35295600  1
  O2-  O496  1  0.39485805  0.31657421  0.64314394  1
  O2-  O497  1  0.39787552  0.31485322  0.98526590  1
  O2-  O498  1  0.41262289  0.55654717  0.32237444  1
  O2-  O499  1  0.41201091  0.57519342  0.66083077  1
  O2-  O500  1  0.41281309  0.57401029  0.96825883  1
  O2-  O501  1  0.41381211  0.83015398  0.30900591  1
  O2-  O502  1  0.40651502  0.82115518  0.64692372  1
  O2-  O503  1  0.45400257  0.83205632  0.98777009  1
  O2-  O504  1  0.67168723  0.09239376  0.31121568  1
  O2-  O505  1  0.67056709  0.08618413  0.63930151  1
  O2-  O506  1  0.62857736  0.04843927  0.98299595  1
  O2-  O507  1  0.65991405  0.32263645  0.31394103  1
  O2-  O508  1  0.68040531  0.35517288  0.63359667  1
  O2-  O509  1  0.66546671  0.33023744  0.97730108  1
  O2-  O510  1  0.66160256  0.66040791  0.26251386  1
  O2-  O511  1  0.68000019  0.59228182  0.63225226  1
  O2-  O512  1  0.67283845  0.57531119  0.98792115  1
  O2-  O513  1  0.66076304  0.82630585  0.33931610  1
  O2-  O514  1  0.66019901  0.82402943  0.65376085  1
  O2-  O515  1  0.66175056  0.83153637  0.94782332  1
  O2-  O516  1  0.90714416  0.08318874  0.32598585  1
  O2-  O517  1  0.90908091  0.08164677  0.64462404  1
  O2-  O518  1  0.93494677  0.09742693  0.96746428  1
  O2-  O519  1  0.91918110  0.32522420  0.30926025  1
  O2-  O520  1  0.90279051  0.33532006  0.64299101  1
  O2-  O521  1  0.94307804  0.36214044  0.97529686  1
  O2-  O522  1  0.91277081  0.57090572  0.31196722  1
  O2-  O523  1  0.91634881  0.58515694  0.64018650  1
  O2-  O524  1  0.91264984  0.58296491  0.99109292  1
  O2-  O525  1  0.90868202  0.83649986  0.32097398  1
  O2-  O526  1  0.90020159  0.83832250  0.66278830  1
  O2-  O527  1  0.91577181  0.83097821  0.97795149  1
  O2-  O528  1  0.08816225  0.14637092  0.03408680  1
  O2-  O529  1  0.08163535  0.17949198  0.34679933  1
  O2-  O530  1  0.07812332  0.15994714  0.67421384  1
  O2-  O531  1  0.10057589  0.49688823  0.00552359  1
  O2-  O532  1  0.07427179  0.41374293  0.34314929  1
  O2-  O533  1  0.07966422  0.40990242  0.68707676  1
  O2-  O534  1  0.07624525  0.66685954  0.03059639  1
  O2-  O535  1  0.07773201  0.65165561  0.34989564  1
  O2-  O536  1  0.08735135  0.66032640  0.68006691  1
  O2-  O537  1  0.08747997  0.91419521  0.02531065  1
  O2-  O538  1  0.07825820  0.90834762  0.34339425  1
  O2-  O539  1  0.06760499  0.90898159  0.68151645  1
  O2-  O540  1  0.34026810  0.16538813  0.04019462  1
  O2-  O541  1  0.34867931  0.17248409  0.35564255  1
  O2-  O542  1  0.31709266  0.14355935  0.61523590  1
  O2-  O543  1  0.32807861  0.42249269  0.02212888  1
  O2-  O544  1  0.38431660  0.38353030  0.30348130  1
  O2-  O545  1  0.32325724  0.40355833  0.68359687  1
  O2-  O546  1  0.34549494  0.66424630  0.03360447  1
  O2-  O547  1  0.32869456  0.65482468  0.35182250  1
  O2-  O548  1  0.34600576  0.67035990  0.70497517  1
  O2-  O549  1  0.32758014  0.91573180  0.03925404  1
  O2-  O550  1  0.30535612  0.93655726  0.36788658  1
  O2-  O551  1  0.41187709  0.94377013  0.71889803  1
  O2-  O552  1  0.57957431  0.16710813  0.02093544  1
  O2-  O553  1  0.59216810  0.16532049  0.35262308  1
  O2-  O554  1  0.59915196  0.18462014  0.68115088  1
  O2-  O555  1  0.58054819  0.40944174  0.02186350  1
  O2-  O556  1  0.58644292  0.41959290  0.36044104  1
  O2-  O557  1  0.60399286  0.43130213  0.68254423  1
  O2-  O558  1  0.59405150  0.66010126  -0.04874042  1
  O2-  O559  1  0.57448527  0.65412093  0.36855386  1
  O2-  O560  1  0.56802897  0.66633765  0.71586385  1
  O2-  O561  1  0.54512855  0.87378341  0.00523572  1
  O2-  O562  1  0.58286173  0.92813684  0.35023537  1
  O2-  O563  1  0.57874169  0.91735110  0.67351788  1
  O2-  O564  1  0.87898404  0.19588267  0.02389313  1
  O2-  O565  1  0.82868033  0.16752146  0.35872453  1
  O2-  O566  1  0.83994140  0.18025523  0.68205423  1
  O2-  O567  1  0.82977834  0.40968368  0.01836918  1
  O2-  O568  1  0.82459138  0.40536013  0.35022268  1
  O2-  O569  1  0.83984449  0.42562139  0.68037912  1
  O2-  O570  1  0.83207340  0.66083592  0.04167085  1
  O2-  O571  1  0.84144472  0.66052350  0.35387728  1
  O2-  O572  1  0.83514489  0.67598661  0.68807697  1
  O2-  O573  1  0.83121678  0.91831966  -0.00754172  1
  O2-  O574  1  0.83068019  0.92103287  0.36823512  1
  O2-  O575  1  0.82677412  0.91708097  0.68638581  1
