# generated using pymatgen
data_H2O
_symmetry_space_group_name_H-M   'P 1'
_cell_length_a   17.98725906
_cell_length_b   17.99343497
_cell_length_c   22.00538332
_cell_angle_alpha   90.01861819
_cell_angle_beta   89.98733350
_cell_angle_gamma   120.00807940
_symmetry_Int_Tables_number   1
_chemical_formula_structural   H2O
_chemical_formula_sum   'H384 O192'
_cell_volume   6167.41611213
_cell_formula_units_Z   192
loop_
 _symmetry_equiv_pos_site_id
 _symmetry_equiv_pos_as_xyz
  1  'x, y, z'
loop_
 _atom_type_symbol
 _atom_type_oxidation_number
  H+  1.0
  O2-  -2.0
loop_
 _atom_site_type_symbol
 _atom_site_label
 _atom_site_symmetry_multiplicity
 _atom_site_fract_x
 _atom_site_fract_y
 _atom_site_fract_z
 _atom_site_occupancy
  H+  H0  1  0.73810798  0.87242901  0.32151753  1
  H+  H1  1  0.62588197  0.73572916  0.49876886  1
  H+  H2  1  0.73149724  0.87980089  0.16868747  1
  H+  H3  1  0.52534880  0.13977582  0.67851382  1
  H+  H4  1  0.85769412  0.22205779  0.33495857  1
  H+  H5  1  0.39354525  0.86390339  0.16961992  1
  H+  H6  1  0.51194869  0.37727484  0.34047945  1
  H+  H7  1  0.36351270  0.87765708  0.00625467  1
  H+  H8  1  0.38400720  0.36515873  0.66151050  1
  H+  H9  1  0.14007871  0.76315820  -0.00318170  1
  H+  H10  1  0.63293639  0.61940660  0.31369157  1
  H+  H11  1  0.28507047  0.88712898  0.33976508  1
  H+  H12  1  0.12211195  0.98269778  0.65322240  1
  H+  H13  1  0.54029184  0.65562370  0.51709495  1
  H+  H14  1  0.48716590  0.42740552  0.18947289  1
  H+  H15  1  0.03647911  0.63491613  0.68029427  1
  H+  H16  1  0.61555342  0.97419628  0.33382303  1
  H+  H17  1  0.52108591  0.38339627  0.67295892  1
  H+  H18  1  0.16773429  0.32631209  0.56180849  1
  H+  H19  1  0.88992373  0.11424658  0.17164753  1
  H+  H20  1  0.60470117  0.52187329  0.14093343  1
  H+  H21  1  0.80846047  0.15060267  0.42661992  1
  H+  H22  1  0.26205319  0.63245713  0.67976861  1
  H+  H23  1  0.89291568  0.61542166  0.16357267  1
  H+  H24  1  -0.03497208  0.35379409  0.32617415  1
  H+  H25  1  -0.00985789  0.84521904  0.50027867  1
  H+  H26  1  0.42297659  0.37666898  0.35147550  1
  H+  H27  1  0.91810586  0.86520632  0.83242138  1
  H+  H28  1  0.20397322  0.83374203  0.57120158  1
  H+  H29  1  0.37953227  0.62202588  0.67660467  1
  H+  H30  1  0.35118292  0.91209889  0.77731750  1
  H+  H31  1  0.38743380  0.97952052  0.83508732  1
  H+  H32  1  0.12722669  0.97016510  0.00737354  1
  H+  H33  1  0.89086796  0.36368184  0.17148363  1
  H+  H34  1  0.39377836  0.85844992  0.84377051  1
  H+  H35  1  0.13367838  0.22029769  -0.00681943  1
  H+  H36  1  0.13975093  0.36092153  0.65321261  1
  H+  H37  1  0.62338186  0.02182139  1.00576148  1
  H+  H38  1  0.64070910  0.28187138  0.51742730  1
  H+  H39  1  0.88598178  0.27319694  0.00111940  1
  H+  H40  1  0.08524916  0.43082448  0.25674001  1
  H+  H41  1  0.18437830  0.83065800  0.90701275  1
  H+  H42  1  0.75171219  0.34465239  0.17720732  1
  H+  H43  1  0.84515544  0.93710341  0.81238655  1
  H+  H44  1  0.24217722  0.33028160  0.48677184  1
  H+  H45  1  0.11917254  0.38213426  0.00298596  1
  H+  H46  1  0.90089555  0.53463946  0.31987713  1
  H+  H47  1  0.03317684  0.64489924  0.33526006  1
  H+  H48  1  0.39393467  0.01409148  0.16718441  1
  H+  H49  1  0.62213283  0.10846974  1.01597591  1
  H+  H50  1  0.35478414  0.25670154  0.83306199  1
  H+  H51  1  0.64278110  0.10686024  0.16783354  1
  H+  H52  1  0.89844987  0.61126940  0.52498756  1
  H+  H53  1  0.49010965  0.87022286  0.32373793  1
  H+  H54  1  0.35071803  0.16552976  0.43279763  1
  H+  H55  1  0.60802389  0.21303959  0.83123680  1
  H+  H56  1  0.47777250  0.10774528  0.16411373  1
  H+  H57  1  0.32929072  0.41754812  0.76298409  1
  H+  H58  1  0.76931626  0.14388099  0.67746831  1
  H+  H59  1  0.83997433  0.77681075  0.54520254  1
  H+  H60  1  0.39016040  1.01422707  -0.01617987  1
  H+  H61  1  0.15537259  0.89933166  0.48498265  1
  H+  H62  1  0.36890619  0.65278400  0.15275732  1
  H+  H63  1  0.14082755  0.61579334  0.66151733  1
  H+  H64  1  0.12929942  0.26557086  0.33136701  1
  H+  H65  1  0.60905486  0.38507836  0.49919661  1
  H+  H66  1  0.39125912  0.26111495  0.50153660  1
  H+  H67  1  0.03385831  0.63514996  0.83969505  1
  H+  H68  1  0.28831462  0.13799102  0.49356235  1
  H+  H69  1  0.13756563  0.85241947  0.99801554  1
  H+  H70  1  0.63778379  0.78378524  0.65510339  1
  H+  H71  1  0.60976176  0.33344319  0.13910471  1
  H+  H72  1  0.90984060  0.03000168  0.64218692  1
  H+  H73  1  0.09067195  0.13371559  0.47445657  1
  H+  H74  1  0.14941602  0.77646591  0.32609281  1
  H+  H75  1  0.87583463  -0.01250784  0.33287469  1
  H+  H76  1  0.92140337  0.60483903  1.00922021  1
  H+  H77  1  0.22405257  0.36227371  0.83124676  1
  H+  H78  1  0.38662143  0.51081770  0.82586103  1
  H+  H79  1  0.50973260  0.86605432  0.15923785  1
  H+  H80  1  0.61313444  0.38909417  0.67525020  1
  H+  H81  1  0.40612427  0.47113263  0.50489172  1
  H+  H82  1  0.72861119  0.37225976  0.51146288  1
  H+  H83  1  0.86499239  0.38294170  0.68207593  1
  H+  H84  1  0.75088077  0.36633155  1.01425804  1
  H+  H85  1  0.10698108  -0.03918155  0.16705365  1
  H+  H86  1  0.63557807  0.22476801  0.15659056  1
  H+  H87  1  0.04598392  0.99685623  0.44651858  1
  H+  H88  1  0.60324170  0.64400191  0.67392081  1
  H+  H89  1  0.15177730  0.07281533  0.36911955  1
  H+  H90  1  -0.01696934  0.86142077  0.63895711  1
  H+  H91  1  -0.01327857  0.61183592  0.51002528  1
  H+  H92  1  0.24900473  0.86044585  0.84922682  1
  H+  H93  1  0.63521446  0.71759367  0.09879857  1
  H+  H94  1  0.11254393  0.15497842  0.33810726  1
  H+  H95  1  0.44646659  0.63852725  -0.01833408  1
  H+  H96  1  0.85164566  0.68222054  0.47677861  1
  H+  H97  1  0.83134928  0.41729191  0.77438429  1
  H+  H98  1  0.48276285  0.85826486  0.84294148  1
  H+  H99  1  0.13927516  0.37245368  0.19444337  1
  H+  H100  1  0.89823761  0.37702460  0.51207960  1
  H+  H101  1  0.76363391  0.14396836  0.01518946  1
  H+  H102  1  0.42914369  0.89052839  0.49748452  1
  H+  H103  1  0.24643911  0.38693033  0.34411994  1
  H+  H104  1  0.53461417  0.64613932  0.33170996  1
  H+  H105  1  0.37319880  0.72126978  0.83569335  1
  H+  H106  1  0.12301882  0.26437919  0.50112109  1
  H+  H107  1  0.13627034  0.52394926  0.65668086  1
  H+  H108  1  0.29394635  0.62667550  -0.00173912  1
  H+  H109  1  0.64087468  0.27885974  0.66558215  1
  H+  H110  1  0.94455234  0.08632735  0.82597836  1
  H+  H111  1  0.39396013  0.75692873  0.48704811  1
  H+  H112  1  0.24715610  0.63028482  0.50614163  1
  H+  H113  1  0.65506487  0.64828016  0.16068960  1
  H+  H114  1  0.37876313  0.65046418  0.33796138  1
  H+  H115  1  0.27403213  0.87717482  0.00808611  1
  H+  H116  1  0.60955389  0.88381932  0.00956314  1
  H+  H117  1  0.84240235  0.13028737  0.48707685  1
  H+  H118  1  0.40046826  0.02681944  0.51258416  1
  H+  H119  1  0.87604190  0.38755465  1.00998722  1
  H+  H120  1  0.24245798  0.11512684  0.66223624  1
  H+  H121  1  0.52202159  0.65590672  0.68031872  1
  H+  H122  1  0.87256820  0.89611945  0.33229253  1
  H+  H123  1  0.27912277  0.88306437  0.15804638  1
  H+  H124  1  0.67026667  0.29817514  0.34953217  1
  H+  H125  1  0.89723475  0.02915588  0.16787064  1
  H+  H126  1  0.12336118  0.39510801  0.48718307  1
  H+  H127  1  0.32750917  0.23582681  0.15331186  1
  H+  H128  1  0.27336004  0.40354205  0.15458846  1
  H+  H129  1  0.51907179  0.66711317  0.16860190  1
  H+  H130  1  0.72599395  0.36427026  0.84022618  1
  H+  H131  1  0.61684114  0.88632528  0.33348872  1
  H+  H132  1  0.86489699  0.13615345  0.33226507  1
  H+  H133  1  0.62530559  0.73313777  0.32928186  1
  H+  H134  1  0.48685077  0.61186166  0.82590157  1
  H+  H135  1  0.35165806  0.28174886  0.16431803  1
  H+  H136  1  0.64367129  0.87501736  0.65647409  1
  H+  H137  1  0.58533285  0.36031220  0.82292045  1
  H+  H138  1  0.37206225  0.14162049  0.33421611  1
  H+  H139  1  0.87997547  0.27682293  0.84560144  1
  H+  H140  1  0.51912800  0.48616753  0.10186023  1
  H+  H141  1  0.61791439  0.02251913  0.51008317  1
  H+  H142  1  0.51905589  0.11813819  0.83025614  1
  H+  H143  1  0.14993164  0.90750613  0.51778487  1
  H+  H144  1  0.77997522  0.62792164  0.52394093  1
  H+  H145  1  0.84408621  0.64658970  -0.01705530  1
  H+  H146  1  0.86460835  0.88979011  0.15406043  1
  H+  H147  1  0.60528158  0.72721648  0.82886724  1
  H+  H148  1  0.15134325  0.86595193  0.32322642  1
  H+  H149  1  0.88551790  0.77257170  0.16332040  1
  H+  H150  1  0.20388936  0.08099102  0.17837770  1
  H+  H151  1  0.27516610  0.64276787  0.15716099  1
  H+  H152  1  -0.03503548  0.11995390  0.48907850  1
  H+  H153  1  0.64538037  0.54437693  0.98672778  1
  H+  H154  1  0.77902404  0.89334262  0.66001733  1
  H+  H155  1  0.62754915  0.86214821  0.84605100  1
  H+  H156  1  0.15734005  0.63582720  0.32208963  1
  H+  H157  1  0.14456499  0.61196528  0.84786934  1
  H+  H158  1  0.77496442  0.13321328  0.16615115  1
  H+  H159  1  1.05994012  0.89108061  0.81730228  1
  H+  H160  1  0.13698628  0.15036110  0.65995529  1
  H+  H161  1  0.16261367  0.10360649  0.99010056  1
  H+  H162  1  0.40065770  0.09160142  0.82961027  1
  H+  H163  1  0.88439692  0.48368532  0.00601835  1
  H+  H164  1  0.63147058  0.23930830  1.05978627  1
  H+  H165  1  0.89406516  0.78807606  0.98758186  1
  H+  H166  1  0.90276405  0.32765704  0.26838654  1
  H+  H167  1  0.36572444  0.22375637  0.69038414  1
  H+  H168  1  0.57374624  0.33682581  0.12474742  1
  H+  H169  1  0.87084568  0.39720747  0.33823597  1
  H+  H170  1  0.74409498  0.63015048  0.84300591  1
  H+  H171  1  0.17104636  0.33158362  0.27024850  1
  H+  H172  1  0.27851867  0.89283482  0.69670399  1
  H+  H173  1  0.86480002  0.22348602  0.16604103  1
  H+  H174  1  0.24779559  0.63868985  0.32229426  1
  H+  H175  1  0.37622903  0.26549363  0.97912836  1
  H+  H176  1  0.77910466  0.64308423  0.15016269  1
  H+  H177  1  0.24061373  0.12877866  0.33523340  1
  H+  H178  1  -0.01054361  0.38340909  0.51262159  1
  H+  H179  1  0.14124966  0.61666928  0.16875979  1
  H+  H180  1  0.15177904  0.85851698  0.74187707  1
  H+  H181  1  0.33872479  0.09191236  0.15189870  1
  H+  H182  1  0.63228242  0.11415434  0.66057520  1
  H+  H183  1  0.36868955  0.97875686  0.68100862  1
  H+  H184  1  0.42253014  0.48934413  0.47359927  1
  H+  H185  1  1.00665618  0.10651620  0.98011912  1
  H+  H186  1  0.87478139  0.63415151  0.83555232  1
  H+  H187  1  0.44939144  0.34485874  0.83055322  1
  H+  H188  1  0.14514433  0.89053128  0.83305333  1
  H+  H189  1  0.39023281  0.52958933  0.31392386  1
  H+  H190  1  0.19798170  0.15935834  0.52107389  1
  H+  H191  1  0.59052838  0.63242533  -0.00330851  1
  H+  H192  1  0.23188969  0.60793283  0.84595301  1
  H+  H193  1  0.13623777  0.28706038  0.17044695  1
  H+  H194  1  0.65837502  0.85003950  0.55835286  1
  H+  H195  1  0.77458847  0.13773721  0.84035442  1
  H+  H196  1  0.63561164  0.11017028  0.84565250  1
  H+  H197  1  0.89476069  0.86095350  0.64239121  1
  H+  H198  1  0.11075271  0.47617177  0.83072567  1
  H+  H199  1  0.24801322  0.09972697  -0.00393349  1
  H+  H200  1  0.12344494  0.63164582  0.48923425  1
  H+  H201  1  0.35201855  0.37898307  0.00008634  1
  H+  H202  1  0.88428267  0.72584019  0.82959156  1
  H+  H203  1  0.61976913  -0.00981279  0.67273763  1
  H+  H204  1  0.87213825  0.15475603  0.83454091  1
  H+  H205  1  0.15554939  0.51896889  0.99889245  1
  H+  H206  1  0.71445792  0.10462086  0.50266675  1
  H+  H207  1  0.04581509  0.14531412  0.65534282  1
  H+  H208  1  0.13345876  0.72103895  0.49725807  1
  H+  H209  1  0.10142901  0.36998012  0.33581399  1
  H+  H210  1  0.90600572  0.51939514  0.66916416  1
  H+  H211  1  0.33396203  0.14298270  0.85498153  1
  H+  H212  1  -0.01330206  0.12683610  0.32440987  1
  H+  H213  1  0.11803622  0.89342934  0.66779948  1
  H+  H214  1  0.13304900  0.48786169  0.48756466  1
  H+  H215  1  0.83209701  0.66339891  0.71719711  1
  H+  H216  1  0.86869959  0.47956893  0.49596692  1
  H+  H217  1  0.61270913  0.52214936  0.66670335  1
  H+  H218  1  0.84553061  0.41946437  0.09735549  1
  H+  H219  1  0.64795494  0.78167752  0.16721573  1
  H+  H220  1  0.77587373  0.63758677  0.29276000  1
  H+  H221  1  0.38505620  0.02002677  0.32246670  1
  H+  H222  1  0.72610599  0.10915002  0.32274278  1
  H+  H223  1  0.61375232  0.87391520  0.15898742  1
  H+  H224  1  0.39483172  0.76845338  0.99137331  1
  H+  H225  1  0.34426301  0.33308124  0.48111596  1
  H+  H226  1  0.88832389  0.77666669  0.30144558  1
  H+  H227  1  0.11825392  0.72541422  0.15390919  1
  H+  H228  1  0.97789526  0.36534883  0.19155457  1
  H+  H229  1  0.71559915  0.86474798  0.85896560  1
  H+  H230  1  0.40200009  0.65125015  0.51529153  1
  H+  H231  1  0.39329556  0.11193691  0.51081290  1
  H+  H232  1  0.14705728  0.05535798  0.47547521  1
  H+  H233  1  0.39020487  0.60880401  0.83236739  1
  H+  H234  1  0.61606922  0.98031178  0.83392465  1
  H+  H235  1  0.63759189  0.52205828  0.50904406  1
  H+  H236  1  0.12553998  0.72350534  0.83758833  1
  H+  H237  1  0.86729623  0.64213116  0.29663404  1
  H+  H238  1  0.22968326  0.35784732  0.99124754  1
  H+  H239  1  0.89552240  0.52471542  0.85052739  1
  H+  H240  1  0.59751431  0.44450452  0.05367987  1
  H+  H241  1  0.87627558  0.02984659  0.49460175  1
  H+  H242  1  0.78731069  0.40580056  0.33717246  1
  H+  H243  1  0.06951821  0.21330310  0.83646472  1
  H+  H244  1  0.40394720  0.83196846  0.59416269  1
  H+  H245  1  0.64622820  0.61522222  0.51387106  1
  H+  H246  1  0.61630918  0.52319249  0.30101458  1
  H+  H247  1  0.82236249  0.92283224  0.42484887  1
  H+  H248  1  1.02065654  0.87333889  0.15626814  1
  H+  H249  1  0.13132220  0.63178864  1.00773641  1
  H+  H250  1  0.51614958  0.12612508  0.32670981  1
  H+  H251  1  0.87114270  0.47847327  0.15733780  1
  H+  H252  1  0.38907765  0.11390883  0.67268251  1
  H+  H253  1  0.38933001  0.12639251  0.99534617  1
  H+  H254  1  0.61876659  0.14918086  0.50788398  1
  H+  H255  1  0.33752850  0.91047256  0.09757524  1
  H+  H256  1  -0.03106609  0.36586352  0.84323423  1
  H+  H257  1  0.53151067  0.14988076  0.51178425  1
  H+  H258  1  -0.01738828  0.61578996  0.16227629  1
  H+  H259  1  0.27339355  0.39192358  0.66821545  1
  H+  H260  1  0.48547279  0.71576864  0.20840221  1
  H+  H261  1  0.57701496  0.87894804  0.49878465  1
  H+  H262  1  0.35777998  0.85607595  0.64848072  1
  H+  H263  1  0.64734955  0.47453663  0.36056011  1
  H+  H264  1  0.63513379  0.10731280  0.32072504  1
  H+  H265  1  0.38260267  0.74193281  0.33816553  1
  H+  H266  1  0.12231150  0.97186780  0.31691566  1
  H+  H267  1  -0.01277725  0.87269218  -0.00650242  1
  H+  H268  1  0.37658836  0.89157638  0.33773374  1
  H+  H269  1  0.01727261  0.15418641  0.14589329  1
  H+  H270  1  0.86750375  0.89261951  0.00196936  1
  H+  H271  1  0.86721164  0.95223444  0.88663380  1
  H+  H272  1  0.08685085  0.42260650  0.72860259  1
  H+  H273  1  0.35502835  0.38023445  0.82234063  1
  H+  H274  1  0.62384313  0.77038638  0.99801568  1
  H+  H275  1  0.85633922  0.38594895  0.83515798  1
  H+  H276  1  0.97985272  0.88013393  0.50683864  1
  H+  H277  1  0.64587787  0.37253775  0.33484054  1
  H+  H278  1  0.14023891  0.85783944  0.17137176  1
  H+  H279  1  0.36090109  0.48336149  0.67506217  1
  H+  H280  1  0.65457103  0.63002652  0.83627546  1
  H+  H281  1  0.30873311  0.88180995  0.49585021  1
  H+  H282  1  0.36828737  0.42705916  0.16585913  1
  H+  H283  1  0.90753875  0.03074081  0.98316190  1
  H+  H284  1  0.70614753  0.88359029  0.49428271  1
  H+  H285  1  0.03483482  0.38910078  0.00626154  1
  H+  H286  1  0.11709407  0.48704027  0.19703465  1
  H+  H287  1  0.64616099  0.41143412  1.01075923  1
  H+  H288  1  0.67566264  0.29593634  0.97250543  1
  H+  H289  1  0.59184378  0.92618499  0.77148318  1
  H+  H290  1  0.67253640  0.34116447  0.60730290  1
  H+  H291  1  0.67210703  0.59990563  0.21742552  1
  H+  H292  1  0.09036276  0.67127331  0.39688496  1
  H+  H293  1  0.14545890  0.27232412  0.65176392  1
  H+  H294  1  0.85247752  0.92553040  0.71492566  1
  H+  H295  1  0.10320232  0.38479969  0.82419444  1
  H+  H296  1  0.67787730  0.84365569  0.26237463  1
  H+  H297  1  0.41057726  0.20178722  0.04410751  1
  H+  H298  1  0.83340271  0.69361918  0.39808983  1
  H+  H299  1  0.95230527  0.11437620  0.89478391  1
  H+  H300  1  0.58656005  0.16538552  0.73677628  1
  H+  H301  1  0.42324427  0.83068897  0.93385655  1
  H+  H302  1  0.92127720  0.34068662  0.60847370  1
  H+  H303  1  0.42522998  0.83806137  0.26541758  1
  H+  H304  1  0.15850944  0.07191384  0.24189060  1
  H+  H305  1  0.91647293  0.83656088  0.22111606  1
  H+  H306  1  0.82650128  0.16948506  0.07199305  1
  H+  H307  1  0.03509211  0.62042959  0.00272222  1
  H+  H308  1  0.09314693  0.66048546  0.74185246  1
  H+  H309  1  0.83621170  0.67066408  0.09021031  1
  H+  H310  1  0.18304805  0.59199399  0.56363640  1
  H+  H311  1  0.07513157  0.17842921  0.41365918  1
  H+  H312  1  0.47092644  0.35873503  0.50030250  1
  H+  H313  1  0.02415494  0.38784369  0.67220863  1
  H+  H314  1  0.39458179  0.32478544  0.92189016  1
  H+  H315  1  0.58509531  0.67810118  0.76386027  1
  H+  H316  1  0.65417492  0.82999024  0.94005743  1
  H+  H317  1  0.65886880  0.08191224  0.90861535  1
  H+  H318  1  0.18347732  0.60567015  0.23088287  1
  H+  H319  1  0.66900353  0.08106018  0.23060145  1
  H+  H320  1  0.64730439  0.58047758  0.60793276  1
  H+  H321  1  0.09124285  0.66435999  0.09408097  1
  H+  H322  1  0.83771918  0.92458423  0.09618915  1
  H+  H323  1  0.86447734  0.93175378  0.76542088  1
  H+  H324  1  0.16812291  0.32575028  0.93169112  1
  H+  H325  1  0.93301669  0.09270116  0.58649353  1
  H+  H326  1  0.80761253  0.64505630  0.39769905  1
  H+  H327  1  0.43237747  0.60084977  0.26066867  1
  H+  H328  1  0.44084209  0.38737300  0.25288582  1
  H+  H329  1  0.26796747  0.79837768  0.57463152  1
  H+  H330  1  0.33522336  0.66585630  0.77500844  1
  H+  H331  1  0.35499123  0.92188721  0.43113250  1
  H+  H332  1  0.51776135  0.88036586  0.00803723  1
  H+  H333  1  0.67021351  0.60725557  0.92867970  1
  H+  H334  1  0.38482865  0.23649230  0.34229398  1
  H+  H335  1  0.88669275  0.27579962  0.66693006  1
  H+  H336  1  0.10184691  0.16338318  0.05191827  1
  H+  H337  1  0.57303677  0.89893369  0.09369431  1
  H+  H338  1  0.41659413  0.60559670  0.61601616  1
  H+  H339  1  0.76148654  0.65386031  -0.00416292  1
  H+  H340  1  0.07902591  0.41675266  0.38780164  1
  H+  H341  1  0.20529422  0.08403274  0.82561503  1
  H+  H342  1  0.93313086  0.58849626  0.25750712  1
  H+  H343  1  0.41283347  0.07600833  0.26062437  1
  H+  H344  1  0.69040207  0.31371843  0.23652500  1
  H+  H345  1  0.59932981  0.20662631  0.30431716  1
  H+  H346  1  0.04366966  0.22761185  0.09791440  1
  H+  H347  1  0.81780818  0.88096017  0.49071027  1
  H+  H348  1  0.40357366  0.56459723  0.52241798  1
  H+  H349  1  0.91735063  0.33232697  0.94082441  1
  H+  H350  1  0.77784014  0.38800162  0.68036126  1
  H+  H351  1  0.18260788  0.57851806  0.93980040  1
  H+  H352  1  0.85928065  0.72311851  0.66019023  1
  H+  H353  1  0.42336609  0.07062970  0.92148127  1
  H+  H354  1  0.97922878  0.86295990  0.31466843  1
  H+  H355  1  0.38350300  0.76919178  0.16866739  1
  H+  H356  1  0.34213499  0.72474088  0.67683823  1
  H+  H357  1  0.40716082  0.32662096  0.60418695  1
  H+  H358  1  0.66181176  0.08271590  0.60057876  1
  H+  H359  1  0.93129381  0.58000881  0.91244700  1
  H+  H360  1  0.82459175  0.17327056  0.73830383  1
  H+  H361  1  0.30137419  0.10856327  0.09173665  1
  H+  H362  1  0.33241550  0.16098407  0.74921533  1
  H+  H363  1  0.08791429  0.91001817  0.06653595  1
  H+  H364  1  0.92897570  0.09106304  0.26328000  1
  H+  H365  1  0.09588241  0.94016667  0.38158054  1
  H+  H366  1  0.19589778  0.09324574  0.59598880  1
  H+  H367  1  0.32723435  0.41699835  0.05834491  1
  H+  H368  1  0.66244413  0.35397794  0.89364005  1
  H+  H369  1  0.93976633  0.57485963  0.60825563  1
  H+  H370  1  0.54115201  0.64186539  0.05376683  1
  H+  H371  1  0.17577537  0.83059502  0.22923580  1
  H+  H372  1  0.53386805  0.89901668  0.67769701  1
  H+  H373  1  0.77606091  0.88891859  0.00408532  1
  H+  H374  1  0.30263944  0.37174802  0.42268219  1
  H+  H375  1  0.94202613  0.84524015  0.89728824  1
  H+  H376  1  0.83865675  0.42467063  0.43471507  1
  H+  H377  1  0.14062612  0.77904432  0.70090427  1
  H+  H378  1  0.29148081  0.47044818  0.38806727  1
  H+  H379  1  0.56381769  0.40002789  0.76680066  1
  H+  H380  1  0.35680627  0.68974600  0.43150742  1
  H+  H381  1  0.76756932  0.78959013  0.57046279  1
  H+  H382  1  0.41605583  0.08378621  0.61093824  1
  H+  H383  1  0.58462178  0.40867128  0.43494526  1
  O2-  O384  1  0.06815665  0.20013910  0.12256154  1
  O2-  O385  1  0.06992318  0.17285064  0.46387923  1
  O2-  O386  1  0.13079627  0.24575908  0.82233980  1
  O2-  O387  1  0.08453536  0.42564850  0.21214305  1
  O2-  O388  1  0.09775745  0.42858341  0.47122238  1
  O2-  O389  1  0.07559311  0.41809997  0.81167215  1
  O2-  O390  1  0.08630752  0.66443118  0.13989350  1
  O2-  O391  1  0.09546274  0.66568089  0.47733057  1
  O2-  O392  1  0.09399980  0.66260915  0.82305917  1
  O2-  O393  1  0.08338597  0.90322137  0.14645693  1
  O2-  O394  1  0.10587053  1.01854306  0.43591158  1
  O2-  O395  1  0.11909191  0.91198618  0.80238749  1
  O2-  O396  1  0.28833070  0.09301934  0.13480933  1
  O2-  O397  1  0.35194511  0.16556770  0.47814882  1
  O2-  O398  1  0.31413104  0.16131279  0.81991602  1
  O2-  O399  1  0.33154766  0.43602017  0.13671844  1
  O2-  O400  1  0.29056148  0.33047329  0.45854282  1
  O2-  O401  1  0.33028446  0.41936387  0.80871525  1
  O2-  O402  1  0.33502601  0.67986385  0.14143886  1
  O2-  O403  1  0.35637718  0.69501984  0.47724100  1
  O2-  O404  1  0.34231513  0.66058812  0.81956512  1
  O2-  O405  1  0.34014560  0.91202539  0.14354197  1
  O2-  O406  1  0.36419899  0.92309293  0.47642980  1
  O2-  O407  1  0.35207693  0.91208846  0.82235126  1
  O2-  O408  1  0.59051439  0.16658190  0.13582723  1
  O2-  O409  1  0.59180399  0.18433696  0.49779640  1
  O2-  O410  1  0.58414596  0.15451061  0.81470679  1
  O2-  O411  1  0.55600416  0.46799714  0.12135265  1
  O2-  O412  1  0.57602512  0.41072376  0.48034187  1
  O2-  O413  1  0.55209702  0.38774682  0.81106689  1
  O2-  O414  1  0.61458597  0.69921184  0.14001574  1
  O2-  O415  1  0.59643302  0.67254702  0.49870954  1
  O2-  O416  1  0.57881972  0.66906666  0.80966452  1
  O2-  O417  1  0.57144640  0.89295969  0.14081098  1
  O2-  O418  1  0.54413528  0.90948066  0.48715508  1
  O2-  O419  1  0.58752079  0.92048542  0.81653061  1
  O2-  O420  1  0.83673257  0.16325584  0.15084574  1
  O2-  O421  1  0.80219399  0.14870577  0.47143081  1
  O2-  O422  1  0.83213165  0.17497290  0.82172009  1
  O2-  O423  1  0.84407293  0.41749238  0.14346561  1
  O2-  O424  1  0.83384289  0.41968051  0.47974309  1
  O2-  O425  1  0.82704429  0.41743326  0.82006852  1
  O2-  O426  1  0.84008678  0.66932290  0.13502364  1
  O2-  O427  1  0.84410775  0.66175337  0.51851611  1
  O2-  O428  1  0.84666548  0.66506334  0.81800637  1
  O2-  O429  1  0.83705390  0.92411870  0.14167536  1
  O2-  O430  1  0.81127101  0.92622983  0.46903337  1
  O2-  O431  1  0.82331127  0.94083722  0.85619391  1
  O2-  O432  1  0.14693232  0.05779418  0.19860568  1
  O2-  O433  1  0.20078403  0.10682539  0.51869052  1
  O2-  O434  1  0.14113844  0.04402610  0.83335425  1
  O2-  O435  1  0.17165950  0.34070066  0.19400849  1
  O2-  O436  1  0.16738003  0.32397887  0.51551888  1
  O2-  O437  1  0.16308609  0.33226290  0.84735017  1
  O2-  O438  1  0.17515283  0.59120943  0.18574570  1
  O2-  O439  1  0.18626498  0.59261479  0.51820182  1
  O2-  O440  1  0.17196531  0.57764478  0.86145652  1
  O2-  O441  1  0.17399697  0.82947193  0.18390747  1
  O2-  O442  1  0.22907502  0.80689883  0.54646520  1
  O2-  O443  1  0.18688815  0.83026781  0.86157635  1
  O2-  O444  1  0.42008197  0.07471956  0.18260893  1
  O2-  O445  1  0.42123158  0.08310073  0.53267652  1
  O2-  O446  1  0.43131522  0.06722981  0.85055837  1
  O2-  O447  1  0.44340524  0.42368598  0.21833922  1
  O2-  O448  1  0.40886139  0.32280590  0.51341130  1
  O2-  O449  1  0.38826552  0.32268217  0.84384262  1
  O2-  O450  1  0.46686744  0.65867752  0.19221508  1
  O2-  O451  1  0.42808788  0.62214092  0.53961251  1
  O2-  O452  1  0.42234861  0.57567423  0.83952755  1
  O2-  O453  1  0.42188905  0.83130689  0.18476524  1
  O2-  O454  1  0.45958086  0.86067356  0.51592877  1
  O2-  O455  1  0.42271461  0.82484493  0.85852497  1
  O2-  O456  1  0.67642525  0.08278509  0.18543303  1
  O2-  O457  1  0.65725671  0.08040772  0.52597748  1
  O2-  O458  1  0.66574851  0.08041335  0.86394819  1
  O2-  O459  1  0.69904873  0.29602701  0.19588216  1
  O2-  O460  1  0.67010964  0.34498996  0.52990598  1
  O2-  O461  1  0.66420144  0.32918513  0.85480191  1
  O2-  O462  1  0.67814998  0.60722272  0.17237540  1
  O2-  O463  1  0.67243290  0.58006390  0.52715603  1
  O2-  O464  1  0.68513740  0.60747704  0.86020100  1
  O2-  O465  1  0.67100767  0.84599572  0.18384688  1
  O2-  O466  1  0.64822208  0.84994697  0.51371672  1
  O2-  O467  1  0.65227453  0.82763884  0.86397978  1
  O2-  O468  1  0.92773985  0.08968585  0.18298022  1
  O2-  O469  1  0.90771001  0.09039707  0.50938914  1
  O2-  O470  1  0.95860928  0.13642290  0.85101134  1
  O2-  O471  1  0.91395319  0.32926855  0.19150835  1
  O2-  O472  1  0.93357603  0.35711074  0.53347021  1
  O2-  O473  1  0.91030678  0.33748177  0.86137317  1
  O2-  O474  1  0.92256838  0.58483515  0.17899993  1
  O2-  O475  1  0.92919662  0.57746406  0.52862534  1
  O2-  O476  1  0.93033692  0.58448319  0.86592255  1
  O2-  O477  1  0.91523331  0.83451108  0.17565339  1
  O2-  O478  1  0.79869831  0.79483640  0.53308304  1
  O2-  O479  1  0.94750652  0.83883310  0.85238657  1
  O2-  O480  1  0.17697241  0.09627190  0.32820559  1
  O2-  O481  1  0.18603221  0.09066164  0.64098655  1
  O2-  O482  1  0.18794323  0.06626019  0.98330683  1
  O2-  O483  1  0.16643211  0.33225943  0.31567125  1
  O2-  O484  1  0.17378298  0.33609140  0.63624466  1
  O2-  O485  1  0.16661641  0.32085421  0.97631917  1
  O2-  O486  1  0.19049265  0.61167591  0.30273938  1
  O2-  O487  1  0.16991405  0.58559341  0.64307442  1
  O2-  O488  1  0.19055192  0.58112628  0.98486300  1
  O2-  O489  1  0.18317642  0.83672411  0.30978047  1
  O2-  O490  1  0.17144088  0.84337473  0.70425407  1
  O2-  O491  1  0.17099629  0.82485954  0.98365724  1
  O2-  O492  1  0.41219857  0.07985039  0.30597605  1
  O2-  O493  1  0.41829500  0.08261475  0.65635468  1
  O2-  O494  1  0.42200634  0.07355430  0.96797853  1
  O2-  O495  1  0.44684566  0.34722765  0.32850999  1
  O2-  O496  1  0.41201732  0.33165122  0.64880570  1
  O2-  O497  1  0.39741333  0.32535823  0.96732570  1
  O2-  O498  1  0.42317304  0.59135877  0.30540256  1
  O2-  O499  1  0.41286060  0.59512434  0.66081111  1
  O2-  O500  1  0.39576945  0.63440986  0.96045047  1
  O2-  O501  1  0.42631660  0.84005798  0.31061978  1
  O2-  O502  1  0.35380703  0.80839572  0.62134163  1
  O2-  O503  1  0.42152333  0.83040725  0.97975456  1
  O2-  O504  1  0.66557638  0.07647154  0.30713999  1
  O2-  O505  1  0.66094780  0.08157037  0.64654905  1
  O2-  O506  1  0.64921374  0.08230302  0.99166731  1
  O2-  O507  1  0.68083639  0.34130479  0.31850933  1
  O2-  O508  1  0.67199090  0.34038261  0.65301361  1
  O2-  O509  1  0.68474012  0.32785008  1.01015709  1
  O2-  O510  1  0.65806785  0.58383970  0.29452285  1
  O2-  O511  1  0.61743217  0.57388443  0.64698296  1
  O2-  O512  1  0.66289092  0.60520977  0.97526949  1
  O2-  O513  1  0.67699749  0.83948142  0.30761081  1
  O2-  O514  1  0.66958544  0.84319565  0.63724538  1
  O2-  O515  1  0.65949003  0.83159934  0.98569293  1
  O2-  O516  1  0.92510473  0.09012676  0.30851129  1
  O2-  O517  1  0.94620188  0.09058300  0.63007314  1
  O2-  O518  1  0.94878576  0.08265291  0.96081125  1
  O2-  O519  1  0.90300925  0.32825642  0.31400388  1
  O2-  O520  1  0.92059466  0.33818147  0.65416650  1
  O2-  O521  1  0.92212746  0.33423218  0.98598468  1
  O2-  O522  1  0.93302038  0.59435493  0.30275870  1
  O2-  O523  1  0.94711481  0.57717769  0.65300540  1
  O2-  O524  1  0.93827755  0.57164851  0.98373310  1
  O2-  O525  1  0.91998329  0.84160795  0.29975215  1
  O2-  O526  1  0.92012420  0.82632634  0.62860871  1
  O2-  O527  1  0.92847217  0.84909200  0.97448697  1
  O2-  O528  1  0.10860233  0.15892677  0.00779061  1
  O2-  O529  1  0.08050530  0.18304789  0.35160788  1
  O2-  O530  1  0.10614895  0.18159052  0.67087339  1
  O2-  O531  1  0.09622190  0.41868210  0.01835575  1
  O2-  O532  1  0.06808437  0.39987606  0.34435343  1
  O2-  O533  1  0.08714641  0.42097623  0.68345755  1
  O2-  O534  1  0.09671701  0.65895767  0.01940636  1
  O2-  O535  1  0.09329463  0.67604256  0.35174982  1
  O2-  O536  1  0.09802265  0.67006709  0.69707584  1
  O2-  O537  1  0.08732067  0.90856315  0.02114604  1
  O2-  O538  1  0.09280240  0.91728416  0.33974244  1
  O2-  O539  1  0.08403369  0.91924229  0.65403802  1
  O2-  O540  1  0.36488945  0.16188319  0.01733271  1
  O2-  O541  1  0.34741630  0.17489047  0.35370722  1
  O2-  O542  1  0.33901499  0.16296600  0.70270562  1
  O2-  O543  1  0.32158873  0.40997912  0.01334013  1
  O2-  O544  1  0.30415699  0.42914405  0.36887612  1
  O2-  O545  1  0.33263019  0.42145093  0.68659414  1
  O2-  O546  1  0.35821584  0.66272956  0.00760662  1
  O2-  O547  1  0.35192614  0.68211364  0.35610153  1
  O2-  O548  1  0.32153885  0.66900761  0.69766664  1
  O2-  O549  1  0.33521116  0.90912089  0.02247177  1
  O2-  O550  1  0.34563988  0.92055032  0.35504011  1
  O2-  O551  1  0.34246823  0.91725883  0.69430462  1
  O2-  O552  1  0.59513959  0.17644709  0.06939066  1
  O2-  O553  1  0.57981676  0.15972805  0.33351545  1
  O2-  O554  1  0.58709418  0.17000326  0.69118912  1
  O2-  O555  1  0.61972998  0.44778983  0.01200698  1
  O2-  O556  1  0.60358149  0.41400232  0.35936727  1
  O2-  O557  1  0.57991131  0.41629676  0.69030352  1
  O2-  O558  1  0.55410717  0.65772252  0.01093636  1
  O2-  O559  1  0.59619160  0.67138997  0.34133907  1
  O2-  O560  1  0.58444502  0.68571045  0.69048691  1
  O2-  O561  1  0.57748279  0.91174857  0.02660068  1
  O2-  O562  1  0.58278929  0.91293129  0.34716877  1
  O2-  O563  1  0.59363889  0.92888540  0.69058987  1
  O2-  O564  1  0.82470512  0.17567897  0.02715281  1
  O2-  O565  1  0.82842965  0.16014735  0.34684008  1
  O2-  O566  1  0.82833507  0.17813733  0.69353514  1
  O2-  O567  1  0.84719126  0.42052367  0.02395766  1
  O2-  O568  1  0.84802026  0.43523220  0.35223637  1
  O2-  O569  1  0.83659400  0.41493093  0.69840023  1
  O2-  O570  1  0.82504454  0.67951751  0.00706342  1
  O2-  O571  1  0.83787068  0.67432444  0.28503893  1
  O2-  O572  1  0.81592132  0.66527195  0.67512508  1
  O2-  O573  1  0.83689926  0.92254448  0.01723395  1
  O2-  O574  1  0.84269410  0.92642895  0.34789561  1
  O2-  O575  1  0.84167597  0.91994684  0.66838251  1
