# generated using pymatgen
data_H2O
_symmetry_space_group_name_H-M   'P 1'
_cell_length_a   17.99357672
_cell_length_b   17.98841158
_cell_length_c   21.99934352
_cell_angle_alpha   89.97055581
_cell_angle_beta   90.00022035
_cell_angle_gamma   119.98738975
_symmetry_Int_Tables_number   1
_chemical_formula_structural   H2O
_chemical_formula_sum   'H384 O192'
_cell_volume   6167.45180219
_cell_formula_units_Z   192
loop_
 _symmetry_equiv_pos_site_id
 _symmetry_equiv_pos_as_xyz
  1  'x, y, z'
loop_
 _atom_type_symbol
 _atom_type_oxidation_number
  H+  1.0
  O2-  -2.0
loop_
 _atom_site_type_symbol
 _atom_site_label
 _atom_site_symmetry_multiplicity
 _atom_site_fract_x
 _atom_site_fract_y
 _atom_site_fract_z
 _atom_site_occupancy
  H+  H0  1  0.63752678  0.34943181  0.31659150  1
  H+  H1  1  0.64204542  0.76709563  0.00085072  1
  H+  H2  1  0.22506537  0.11117885  0.16557398  1
  H+  H3  1  0.14121321  0.78009484  0.99380850  1
  H+  H4  1  0.58192760  0.92072777  0.10774730  1
  H+  H5  1  0.12196125  0.86230004  0.18414701  1
  H+  H6  1  0.60784965  0.63958064  0.81223977  1
  H+  H7  1  0.37164506  0.23563207  0.82794608  1
  H+  H8  1  0.37989037  0.60507611  0.32019346  1
  H+  H9  1  0.60939615  0.47836106  0.03741046  1
  H+  H10  1  0.64573051  0.56864164  0.87499431  1
  H+  H11  1  0.94097565  0.57327122  0.56331800  1
  H+  H12  1  0.61690547  0.37352805  0.16926279  1
  H+  H13  1  0.70683381  0.78596553  0.52549813  1
  H+  H14  1  0.60809981  0.46103408  0.81700981  1
  H+  H15  1  0.22771090  0.60856380  0.99878079  1
  H+  H16  1  0.63394078  0.77567133  0.84342306  1
  H+  H17  1  0.36105977  0.39260161  0.68457859  1
  H+  H18  1  0.52350130  0.13928442  0.00436550  1
  H+  H19  1  0.51314509  0.13723624  0.67349955  1
  H+  H20  1  0.85792491  0.16114129  0.48577403  1
  H+  H21  1  0.37908649  0.36989713  1.00203901  1
  H+  H22  1  0.13133896  0.01698325  0.31497132  1
  H+  H23  1  0.12739711  0.35309684  0.49896696  1
  H+  H24  1  0.86493880  0.65286885  0.17232065  1
  H+  H25  1  0.03641775  0.63691179  0.49251858  1
  H+  H26  1  0.99055715  0.37000646  0.68325104  1
  H+  H27  1  0.11840323  0.13691732  0.66654044  1
  H+  H28  1  0.70994630  0.62670092  0.66854487  1
  H+  H29  1  0.36092288  0.88341330  0.68019859  1
  H+  H30  1  0.88715827  0.51885408  0.84208732  1
  H+  H31  1  0.63625531  0.10932400  0.17265209  1
  H+  H32  1  0.38085325  0.27620091  0.66640844  1
  H+  H33  1  0.83475529  0.17887902  0.41652494  1
  H+  H34  1  0.61868484  0.75135629  0.16585513  1
  H+  H35  1  0.56490231  0.71569692  0.44932945  1
  H+  H36  1  0.63043061  0.01864072  0.83527402  1
  H+  H37  1  0.13358499  0.60386047  0.84334891  1
  H+  H38  1  0.72146839  0.33792924  0.32599951  1
  H+  H39  1  0.89503279  0.48398076  0.00958721  1
  H+  H40  1  0.64197923  0.52412154  0.50290165  1
  H+  H41  1  0.47097454  0.61954943  0.65944232  1
  H+  H42  1  0.38001821  0.77582174  0.99141300  1
  H+  H43  1  0.38548958  0.35586803  0.33125904  1
  H+  H44  1  0.91302080  0.93815177  0.48555235  1
  H+  H45  1  0.14795006  0.51004110  0.66065842  1
  H+  H46  1  0.49919099  0.13452467  0.34454190  1
  H+  H47  1  0.88444544  0.61729132  0.68351630  1
  H+  H48  1  0.34630971  0.35284660  0.50311648  1
  H+  H49  1  0.45799521  0.60617202  0.50243421  1
  H+  H50  1  0.92982686  0.82503640  0.58218123  1
  H+  H51  1  0.71819738  0.59789066  0.82663791  1
  H+  H52  1  0.35827322  0.49982162  0.17140893  1
  H+  H53  1  0.51727162  0.88508328  0.83134021  1
  H+  H54  1  0.84472076  0.37600425  0.69236191  1
  H+  H55  1  0.60280316  0.22616277  0.33746887  1
  H+  H56  1  0.35557895  0.67696110  0.06119361  1
  H+  H57  1  0.77594146  0.88646336  0.82613217  1
  H+  H58  1  0.89287958  0.35342595  0.98497665  1
  H+  H59  1  0.38287085  0.05048811  0.48765138  1
  H+  H60  1  0.74185801  0.16204842  0.48367126  1
  H+  H61  1  0.11786118  0.70474301  0.67213553  1
  H+  H62  1  0.10682264  0.72568513  0.34244349  1
  H+  H63  1  0.33807457  0.37827500  0.10825687  1
  H+  H64  1  0.86980563  0.14252379  0.15079925  1
  H+  H65  1  0.37382639  0.88736894  0.15251914  1
  H+  H66  1  0.64757541  0.26900508  0.99381617  1
  H+  H67  1  0.91001073  0.25823838  0.29493055  1
  H+  H68  1  0.87107866  0.72558294  0.01108616  1
  H+  H69  1  0.92237348  0.32919552  0.89646887  1
  H+  H70  1  0.12859499  0.26143082  0.49520139  1
  H+  H71  1  0.85032027  0.67505493  0.07404101  1
  H+  H72  1  0.60406757  0.61724586  0.32628734  1
  H+  H73  1  0.14571330  0.27575259  0.16233388  1
  H+  H74  1  0.43078761  0.34283970  0.51813827  1
  H+  H75  1  0.87276082  0.23163881  0.14166939  1
  H+  H76  1  0.63233908  0.86271449  0.84927761  1
  H+  H77  1  0.77062317  0.14018300  0.82916877  1
  H+  H78  1  0.27358726  0.63232106  0.67958498  1
  H+  H79  1  0.38450158  0.63449840  0.15254668  1
  H+  H80  1  0.73060913  0.64121369  0.17323455  1
  H+  H81  1  0.03456253  0.64608441  0.00118282  1
  H+  H82  1  0.72193365  0.62276498  0.34053407  1
  H+  H83  1  0.51530445  0.39194270  1.02932845  1
  H+  H84  1  0.64394040  0.61399906  1.03027186  1
  H+  H85  1  0.60313911  0.48136208  0.66881536  1
  H+  H86  1  0.36217557  0.89215558  0.82950581  1
  H+  H87  1  0.10985248  0.85617513  0.48850704  1
  H+  H88  1  0.86893008  -0.01531124  0.15739252  1
  H+  H89  1  0.72688405  0.10054894  0.32728093  1
  H+  H90  1  0.72356655  0.10725474  0.99007133  1
  H+  H91  1  0.27214221  0.63561653  0.83499371  1
  H+  H92  1  0.63836886  0.35438417  0.84285178  1
  H+  H93  1  0.13806419  0.83828364  0.65368020  1
  H+  H94  1  0.38811554  0.61892898  0.84202194  1
  H+  H95  1  -0.03875556  1.02488466  0.85172218  1
  H+  H96  1  0.08239112  0.91701652  0.69810724  1
  H+  H97  1  0.85790944  0.96925535  0.00420490  1
  H+  H98  1  0.93329172  0.80245882  0.83588728  1
  H+  H99  1  0.46715568  0.60059931  0.31438546  1
  H+  H100  1  0.11474372  0.64031417  0.33387331  1
  H+  H101  1  0.86203646  0.24113588  0.68637575  1
  H+  H102  1  0.64362742  0.88074048  0.18283403  1
  H+  H103  1  0.79236670  0.40517185  0.49392525  1
  H+  H104  1  0.72948876  0.11651963  0.17110864  1
  H+  H105  1  0.03117698  0.37829839  0.82947913  1
  H+  H106  1  0.12191819  0.37173522  0.68030509  1
  H+  H107  1  0.62556028  0.11713641  0.69356723  1
  H+  H108  1  0.40641115  0.58895962  0.56596603  1
  H+  H109  1  0.14433463  0.61100309  0.50517309  1
  H+  H110  1  0.35740653  0.72473994  0.32878159  1
  H+  H111  1  0.38950501  0.52971116  0.84319161  1
  H+  H112  1  0.87536942  0.49775305  0.48383586  1
  H+  H113  1  0.10019409  0.04595615  0.81679081  1
  H+  H114  1  0.90977924  0.39074039  0.46216987  1
  H+  H115  1  0.97679388  0.86345021  1.00185751  1
  H+  H116  1  0.33241643  0.82046126  0.52478889  1
  H+  H117  1  0.07033149  0.51886044  0.16225829  1
  H+  H118  1  0.10277654  0.40676641  0.74218564  1
  H+  H119  1  0.38944256  0.34543596  0.18290321  1
  H+  H120  1  0.14115499  0.14867109  0.47670721  1
  H+  H121  1  0.37994288  0.02094735  0.33327821  1
  H+  H122  1  0.96766228  0.09050203  0.66061242  1
  H+  H123  1  0.51818800  0.36341847  0.17579442  1
  H+  H124  1  0.32888862  0.91851646  0.73537814  1
  H+  H125  1  0.14076714  0.35997694  0.31916737  1
  H+  H126  1  0.11028751  0.88892732  0.01188048  1
  H+  H127  1  0.61918720  0.98441269  0.16580304  1
  H+  H128  1  0.36713551  0.14124762  0.67431999  1
  H+  H129  1  0.72538009  0.67151222  0.50293748  1
  H+  H130  1  0.64724035  0.83961486  0.45738995  1
  H+  H131  1  0.13216290  0.27008473  0.02765239  1
  H+  H132  1  0.25787687  0.12736190  0.33765172  1
  H+  H133  1  0.04565376  0.41962409  0.06581632  1
  H+  H134  1  0.90201038  0.29831754  0.45675155  1
  H+  H135  1  0.89060081  1.03019669  0.31790932  1
  H+  H136  1  0.13838689  0.51673964  0.84391678  1
  H+  H137  1  0.87967581  0.89931745  0.33984116  1
  H+  H138  1  0.76960777  0.15250725  0.69214124  1
  H+  H139  1  0.86002154  0.88054266  0.82803132  1
  H+  H140  1  0.66060778  0.37259644  0.50840709  1
  H+  H141  1  0.86093442  0.94040256  0.42690958  1
  H+  H142  1  0.16026384  0.27465066  0.85514420  1
  H+  H143  1  0.35970932  0.98115437  0.82909452  1
  H+  H144  1  0.88846622  0.11840552  0.31844150  1
  H+  H145  1  0.61366380  0.66082040  0.16501799  1
  H+  H146  1  0.37000380  0.97346450  0.15626203  1
  H+  H147  1  0.91903688  0.58255907  0.93711868  1
  H+  H148  1  0.38256837  0.77723384  0.84202414  1
  H+  H149  1  0.60270559  0.73359636  0.66490572  1
  H+  H150  1  0.49729052  0.87364367  0.52243200  1
  H+  H151  1  0.66521032  -0.01731365  0.46082656  1
  H+  H152  1  0.77010387  0.88361125  0.50858186  1
  H+  H153  1  0.62028474  0.16464026  0.48526868  1
  H+  H154  1  0.98262488  0.12047852  0.16038043  1
  H+  H155  1  0.41155881  0.08834128  0.93525647  1
  H+  H156  1  0.89220315  0.43442208  0.14741831  1
  H+  H157  1  0.24188701  0.12882630  0.65451893  1
  H+  H158  1  0.02109974  0.89319405  0.16741035  1
  H+  H159  1  0.73268872  0.87931712  0.18182639  1
  H+  H160  1  0.51394278  0.39214487  0.66805866  1
  H+  H161  1  0.23216870  0.85261373  0.66212746  1
  H+  H162  1  0.97633127  0.60952888  0.83896420  1
  H+  H163  1  0.84954848  0.72853097  0.69177830  1
  H+  H164  1  0.53080268  0.64479095  0.01637932  1
  H+  H165  1  0.89331141  0.61217518  0.99911989  1
  H+  H166  1  0.16826594  0.57675962  0.93954654  1
  H+  H167  1  0.48643405  0.87200079  0.17843046  1
  H+  H168  1  0.62857302  0.10942524  0.83639981  1
  H+  H169  1  0.35981279  0.22878820  1.01314998  1
  H+  H170  1  0.63283230  0.86750813  0.65373557  1
  H+  H171  1  0.84177896  0.33971916  0.34588374  1
  H+  H172  1  0.03523362  0.39795718  0.46697986  1
  H+  H173  1  0.35453172  0.88427891  0.33385486  1
  H+  H174  1  0.86500604  0.23444308  0.83254871  1
  H+  H175  1  0.87471864  0.08372603  -0.01092557  1
  H+  H176  1  0.38417712  0.52863572  0.66439467  1
  H+  H177  1  0.98671716  0.90405894  0.84339736  1
  H+  H178  1  0.13935652  0.86260337  0.83718949  1
  H+  H179  1  0.09073261  0.64180195  0.16787343  1
  H+  H180  1  0.09364011  0.95590650  0.38958820  1
  H+  H181  1  0.92672883  0.09403146  0.22235257  1
  H+  H182  1  0.21604006  0.10786526  1.01242425  1
  H+  H183  1  0.11948342  0.37798028  0.83976933  1
  H+  H184  1  0.16570991  0.08214611  0.25659204  1
  H+  H185  1  0.36921447  1.12485857  0.50976777  1
  H+  H186  1  0.62783127  0.36718811  0.66104885  1
  H+  H187  1  0.10352134  0.21465974  0.67140179  1
  H+  H188  1  0.27476667  0.36462055  0.16408422  1
  H+  H189  1  0.73076570  0.60941402  1.02593456  1
  H+  H190  1  0.46819163  0.11522549  0.84112547  1
  H+  H191  1  0.52620162  0.16013125  0.49548262  1
  H+  H192  1  0.52131709  0.64221784  0.82256962  1
  H+  H193  1  0.49417322  0.87844277  0.48868358  1
  H+  H194  1  0.09558230  0.16697580  0.42117795  1
  H+  H195  1  0.45931857  0.86532007  0.33045809  1
  H+  H196  1  0.65830612  0.08316793  0.74709335  1
  H+  H197  1  0.77504054  0.38220127  0.83685792  1
  H+  H198  1  0.38839711  0.53127665  0.98929631  1
  H+  H199  1  0.88971906  0.79021258  0.34563530  1
  H+  H200  1  0.83219387  0.68589580  0.87082448  1
  H+  H201  1  0.93812288  0.38890888  0.63560257  1
  H+  H202  1  0.12650036  0.47851273  0.48962530  1
  H+  H203  1  0.64927465  0.52346095  0.32160933  1
  H+  H204  1  0.22919647  0.86624946  0.83706292  1
  H+  H205  1  0.25209433  0.37009178  0.48413878  1
  H+  H206  1  0.68222517  0.97856313  0.49125541  1
  H+  H207  1  0.87869420  0.72726717  0.49656762  1
  H+  H208  1  0.13691161  0.26843129  0.31866903  1
  H+  H209  1  0.22279944  0.61536430  0.31059230  1
  H+  H210  1  0.74905992  0.86245080  1.00079107  1
  H+  H211  1  0.13629715  0.52716722  0.31674957  1
  H+  H212  1  0.17370062  0.32916828  0.22480895  1
  H+  H213  1  0.31614088  0.45564211  0.06319803  1
  H+  H214  1  0.38123510  0.10455860  0.17534937  1
  H+  H215  1  0.74077219  0.35113659  -0.00749185  1
  H+  H216  1  0.37255737  0.10732799  0.33569227  1
  H+  H217  1  0.27604843  0.89546277  1.00657600  1
  H+  H218  1  0.03459501  0.39399951  0.34776509  1
  H+  H219  1  0.12433269  0.61989173  0.67674365  1
  H+  H220  1  0.76331879  0.86340873  0.66472404  1
  H+  H221  1  0.14820356  0.04591624  0.64573571  1
  H+  H222  1  0.59856566  0.66124772  0.48539824  1
  H+  H223  1  0.38007262  1.01782417  0.65845154  1
  H+  H224  1  -0.01160347  0.87508266  0.33641610  1
  H+  H225  1  0.80311671  0.61542943  0.43728080  1
  H+  H226  1  0.60362330  0.97353290  0.68609717  1
  H+  H227  1  0.36156221  0.21430645  0.16607417  1
  H+  H228  1  0.27270867  0.37791891  0.33230035  1
  H+  H229  1  0.82860970  0.41581000  0.77578344  1
  H+  H230  1  0.14945945  0.76231442  0.50181679  1
  H+  H231  1  0.65442788  0.07395283  0.48956257  1
  H+  H232  1  0.12707767  0.87162287  0.33718540  1
  H+  H233  1  0.36364915  0.63686853  0.68039570  1
  H+  H234  1  0.61124981  0.22359667  0.83294855  1
  H+  H235  1  0.86178684  0.21060702  0.99573808  1
  H+  H236  1  0.11340708  0.72040029  0.82596491  1
  H+  H237  1  0.12234976  0.64550897  0.00257758  1
  H+  H238  1  0.27613881  0.39709406  0.68148282  1
  H+  H239  1  0.60934303  0.13296962  0.00389849  1
  H+  H240  1  0.31958103  0.39812212  0.42709722  1
  H+  H241  1  0.47845278  0.36327954  0.84729270  1
  H+  H242  1  0.88706265  1.05339308  0.50170727  1
  H+  H243  1  0.35991819  0.46825650  0.33531832  1
  H+  H244  1  0.37276237  0.64119817  0.49175691  1
  H+  H245  1  0.52599835  0.37754579  0.32522818  1
  H+  H246  1  0.89183585  0.36232234  0.83836509  1
  H+  H247  1  0.89925593  0.49338114  0.65098639  1
  H+  H248  1  0.82557089  0.88592197  0.72152962  1
  H+  H249  1  0.60074859  0.52243054  0.49309164  1
  H+  H250  1  0.02465143  0.13657242  0.32792641  1
  H+  H251  1  0.11219251  0.13232381  0.32569295  1
  H+  H252  1  0.97345104  0.59611919  0.33295406  1
  H+  H253  1  0.75871174  0.38149975  0.68252302  1
  H+  H254  1  0.65725182  0.28657848  0.51218604  1
  H+  H255  1  0.10679088  0.97704333  0.01946377  1
  H+  H256  1  0.91898442  0.63867128  0.70709548  1
  H+  H257  1  0.37282880  0.94461894  0.51310553  1
  H+  H258  1  0.38581581  0.02923439  0.99451410  1
  H+  H259  1  0.57358690  0.16866310  0.77190271  1
  H+  H260  1  0.85741362  0.87464977  0.00901995  1
  H+  H261  1  0.41244314  0.83778519  0.90088195  1
  H+  H262  1  0.37998524  0.11720294  0.83859107  1
  H+  H263  1  0.13106713  0.10987759  1.02905945  1
  H+  H264  1  0.83168551  0.91386080  0.10488956  1
  H+  H265  1  0.57156625  0.39579445  0.76356223  1
  H+  H266  1  0.12159714  0.35332921  1.01459968  1
  H+  H267  1  0.10710751  0.47470664  1.01131413  1
  H+  H268  1  0.27242802  0.88238119  0.49573519  1
  H+  H269  1  0.12118857  0.13967156  0.14279332  1
  H+  H270  1  -0.02184173  0.78935828  0.50552007  1
  H+  H271  1  0.60091853  0.22927999  0.67549786  1
  H+  H272  1  0.97515309  0.36217024  0.19494931  1
  H+  H273  1  0.60175559  -0.02540982  1.01327005  1
  H+  H274  1  0.33656346  0.73656453  0.52886138  1
  H+  H275  1  0.88048972  0.53997455  0.18251861  1
  H+  H276  1  0.51247319  0.88847913  1.01457737  1
  H+  H277  1  0.64574195  0.75433126  0.32110394  1
  H+  H278  1  0.25264437  0.38747189  1.01544812  1
  H+  H279  1  0.23271316  0.61242457  0.50432108  1
  H+  H280  1  0.59184835  0.97684506  0.34890868  1
  H+  H281  1  0.52799503  0.31717273  0.46115736  1
  H+  H282  1  0.37961662  0.26367537  0.33637145  1
  H+  H283  1  0.73644094  0.37503096  0.17540498  1
  H+  H284  1  0.97959286  0.35308566  0.98702492  1
  H+  H285  1  0.21432926  0.86519473  0.33399237  1
  H+  H286  1  0.89063095  0.86925540  0.62666998  1
  H+  H287  1  0.89189517  0.50209166  0.32506962  1
  H+  H288  1  0.33045224  0.41910692  0.78106821  1
  H+  H289  1  0.33451363  0.91519930  0.39647609  1
  H+  H290  1  0.51639410  0.88308641  0.67622085  1
  H+  H291  1  0.67180103  0.82795000  0.93744688  1
  H+  H292  1  0.16371532  0.32110674  0.91852943  1
  H+  H293  1  0.38727102  0.81490070  0.61659094  1
  H+  H294  1  0.67318298  0.32741942  0.90315968  1
  H+  H295  1  0.01735413  0.92208966  0.65006051  1
  H+  H296  1  0.33033210  0.66552563  0.77489475  1
  H+  H297  1  0.27550695  0.15998057  0.81633231  1
  H+  H298  1  0.81250112  0.68721689  0.75518806  1
  H+  H299  1  0.56957981  0.41662558  0.47507943  1
  H+  H300  1  0.51763086  0.11855049  0.16079720  1
  H+  H301  1  0.10846975  0.42851965  0.39468988  1
  H+  H302  1  0.33345337  0.16204356  0.10270187  1
  H+  H303  1  0.13252199  0.57182558  0.21827273  1
  H+  H304  1  0.39268041  0.36966377  0.85031516  1
  H+  H305  1  0.40854510  0.77898101  0.17079649  1
  H+  H306  1  0.61098691  0.61978675  0.92965604  1
  H+  H307  1  0.34089261  0.17492553  0.73454667  1
  H+  H308  1  0.57468041  0.67850920  0.72728282  1
  H+  H309  1  0.88316606  0.00103864  0.65368205  1
  H+  H310  1  0.36751580  0.64329531  0.99883726  1
  H+  H311  1  0.72350585  0.01093033  0.59367330  1
  H+  H312  1  0.92498805  0.27434586  0.57169092  1
  H+  H313  1  0.68040803  0.64972447  0.56915034  1
  H+  H314  1  0.58631890  0.68471977  0.07893345  1
  H+  H315  1  0.91948418  0.84331852  0.24352380  1
  H+  H316  1  0.90834618  0.58504957  0.24848522  1
  H+  H317  1  0.38045831  0.86632239  -0.00830784  1
  H+  H318  1  0.27823545  0.39125208  0.84402038  1
  H+  H319  1  0.57297941  0.40463086  0.10669629  1
  H+  H320  1  0.46973096  0.70850354  0.12581133  1
  H+  H321  1  0.78642801  0.88892239  0.34149935  1
  H+  H322  1  0.88895867  0.87396815  0.18369601  1
  H+  H323  1  0.92409804  0.83654558  0.93987000  1
  H+  H324  1  0.41092570  0.83264895  0.26514047  1
  H+  H325  1  0.67376696  0.83394669  0.27649753  1
  H+  H326  1  0.56720851  0.89399012  0.39008175  1
  H+  H327  1  0.56770459  0.17735580  0.40679969  1
  H+  H328  1  0.86275232  0.62581790  0.83918038  1
  H+  H329  1  0.82910281  0.39978884  0.39334762  1
  H+  H330  1  0.91476293  0.42889201  0.05865871  1
  H+  H331  1  0.16899919  0.84280416  0.93697623  1
  H+  H332  1  0.40653325  0.73359528  0.45945123  1
  H+  H333  1  0.57723068  0.15092334  0.10162490  1
  H+  H334  1  0.04424017  0.98239721  0.76298182  1
  H+  H335  1  0.09269995  0.66246505  0.43078762  1
  H+  H336  1  0.36312411  0.14117222  0.00829517  1
  H+  H337  1  0.63437035  0.82448065  0.38544263  1
  H+  H338  1  0.16905247  0.32099248  0.58489072  1
  H+  H339  1  0.66828700  0.33922402  0.60649922  1
  H+  H340  1  0.38986821  0.33156718  0.60736942  1
  H+  H341  1  0.41738605  0.34311446  0.94629399  1
  H+  H342  1  0.56434476  0.64259748  0.38224307  1
  H+  H343  1  0.82798214  0.44300425  0.10551486  1
  H+  H344  1  0.10146376  0.74709873  0.18244839  1
  H+  H345  1  0.92958415  0.64704159  0.52835566  1
  H+  H346  1  0.34181077  0.92340738  0.06352125  1
  H+  H347  1  0.67100181  0.32184353  0.22823320  1
  H+  H348  1  0.17398588  0.57135090  0.60108536  1
  H+  H349  1  0.65653829  0.65631260  0.92869693  1
  H+  H350  1  0.14556298  0.83040609  0.24748367  1
  H+  H351  1  0.08564159  0.65666947  0.76855836  1
  H+  H352  1  0.89870650  0.09379783  0.56660461  1
  H+  H353  1  1.00238170  0.64795345  0.17966885  1
  H+  H354  1  0.71197917  0.04558386  0.59526439  1
  H+  H355  1  0.13281662  0.02421498  0.16610324  1
  H+  H356  1  0.66288775  0.07786964  0.93202757  1
  H+  H357  1  0.99670394  0.56751637  0.65048941  1
  H+  H358  1  0.21044741  0.11031968  0.55494152  1
  H+  H359  1  0.06173644  0.86226249  0.42983459  1
  H+  H360  1  0.21782745  0.28916670  0.62693927  1
  H+  H361  1  0.42761568  0.59344894  0.93225187  1
  H+  H362  1  0.57627533  0.90717544  0.77188640  1
  H+  H363  1  0.32252348  0.22155276  0.50658596  1
  H+  H364  1  0.83385058  0.17829423  0.76460493  1
  H+  H365  1  0.97306674  0.29730992  0.57004233  1
  H+  H366  1  0.13325120  0.17886321  0.76254435  1
  H+  H367  1  0.90979903  0.04498388  0.93475718  1
  H+  H368  1  0.83056562  0.15647005  0.05667699  1
  H+  H369  1  0.37538153  0.55668982  0.22990662  1
  H+  H370  1  0.41499085  0.31416587  0.24385515  1
  H+  H371  1  0.17579983  0.81852479  0.56323174  1
  H+  H372  1  0.32625135  0.66104281  0.38534285  1
  H+  H373  1  0.41106213  0.07825353  0.23595822  1
  H+  H374  1  0.40760085  0.07893007  0.59908091  1
  H+  H375  1  0.59140419  0.40141079  0.37846446  1
  H+  H376  1  0.62081980  0.61947775  0.65861031  1
  H+  H377  1  0.67389534  0.60670328  0.23223563  1
  H+  H378  1  0.07735911  0.91289246  0.10585278  1
  H+  H379  1  0.87164090  0.74439082  0.16643437  1
  H+  H380  1  0.66695236  0.07180127  0.26922948  1
  H+  H381  1  0.38203876  0.76990736  0.67834134  1
  H+  H382  1  0.67269152  0.84361234  0.59478736  1
  H+  H383  1  0.30337829  0.15295181  0.40333911  1
  O2-  O384  1  0.09251232  0.17334802  0.12922384  1
  O2-  O385  1  0.10224719  0.17032506  0.46618682  1
  O2-  O386  1  0.17009022  0.20532670  0.79923460  1
  O2-  O387  1  -0.02214252  0.43020809  0.12464342  1
  O2-  O388  1  0.10004580  0.42143727  0.46928455  1
  O2-  O389  1  0.09325032  0.40841944  0.81824064  1
  O2-  O390  1  0.06360314  0.68037728  0.16275210  1
  O2-  O391  1  0.09704009  0.66324075  0.47663932  1
  O2-  O392  1  0.08220095  0.65883461  0.81397355  1
  O2-  O393  1  0.08119050  0.91912348  0.15149214  1
  O2-  O394  1  0.06223259  0.86500610  0.47447700  1
  O2-  O395  1  0.04779121  0.98762645  0.80742887  1
  O2-  O396  1  0.32924272  0.15534890  0.14827421  1
  O2-  O397  1  0.30181675  0.16043481  0.49023883  1
  O2-  O398  1  0.33951055  0.17772005  0.80902161  1
  O2-  O399  1  0.33903353  0.39126082  0.15146616  1
  O2-  O400  1  0.31408781  0.39539629  0.47243626  1
  O2-  O401  1  0.33707600  0.42276723  0.82613273  1
  O2-  O402  1  0.40917503  0.69176580  0.12994042  1
  O2-  O403  1  0.35317994  0.68106307  0.46934954  1
  O2-  O404  1  0.33297285  0.66858740  0.82048644  1
  O2-  O405  1  0.34601833  0.91795673  0.13450019  1
  O2-  O406  1  0.33415830  0.91342533  0.47971840  1
  O2-  O407  1  0.33019240  0.92049091  0.81323083  1
  O2-  O408  1  0.57741150  0.14319196  0.14616691  1
  O2-  O409  1  0.58258701  0.19288069  0.47511563  1
  O2-  O410  1  0.57635942  0.16316161  0.81689566  1
  O2-  O411  1  0.57749950  0.39849393  0.15765824  1
  O2-  O412  1  0.57997739  0.37294041  0.45685049  1
  O2-  O413  1  0.57705876  0.39813834  0.80858441  1
  O2-  O414  1  0.58480219  0.69238203  0.14844995  1
  O2-  O415  1  0.55081095  0.65540413  0.45919058  1
  O2-  O416  1  0.58069089  0.67477101  0.80464026  1
  O2-  O417  1  0.58697000  0.92184157  0.15361297  1
  O2-  O418  1  0.60321843  0.81852518  0.42452456  1
  O2-  O419  1  0.57862700  0.91423387  0.81705277  1
  O2-  O420  1  0.83694316  0.16943073  0.13423094  1
  O2-  O421  1  0.83464558  0.19314726  0.46211556  1
  O2-  O422  1  0.83218367  0.17300373  0.81483497  1
  O2-  O423  1  0.84063961  0.44351320  0.14907675  1
  O2-  O424  1  0.84449142  0.43767669  0.46849415  1
  O2-  O425  1  0.83574897  0.41466344  0.82099847  1
  O2-  O426  1  0.84171967  0.68481446  0.14942560  1
  O2-  O427  1  0.79527684  0.66490449  0.44409509  1
  O2-  O428  1  0.82873305  0.65694731  0.83256608  1
  O2-  O429  1  0.83579730  0.92139415  0.14983490  1
  O2-  O430  1  0.86623486  0.94700711  0.47278772  1
  O2-  O431  1  0.82333232  0.89164124  0.80057111  1
  O2-  O432  1  0.16338199  0.08665412  0.17822154  1
  O2-  O433  1  0.21148374  0.10788327  0.50882129  1
  O2-  O434  1  0.18260422  0.13741719  0.82544460  1
  O2-  O435  1  0.18250145  0.33365972  0.18000286  1
  O2-  O436  1  0.15513810  0.32060293  0.51500608  1
  O2-  O437  1  0.17235904  0.32986736  0.87388647  1
  O2-  O438  1  0.11923330  0.57522608  0.17498424  1
  O2-  O439  1  0.17473775  0.58085205  0.52153509  1
  O2-  O440  1  0.16654589  0.57691829  0.85925910  1
  O2-  O441  1  0.14397609  0.82555318  0.20192929  1
  O2-  O442  1  0.17764125  0.82317301  0.51808353  1
  O2-  O443  1  0.16746006  0.83137106  0.85109261  1
  O2-  O444  1  0.41279767  0.07592011  0.19122739  1
  O2-  O445  1  0.40812786  0.10011930  0.51498872  1
  O2-  O446  1  0.40714767  0.08402085  0.85473990  1
  O2-  O447  1  0.41856491  0.31364419  0.19834042  1
  O2-  O448  1  0.37072459  0.31694821  0.52954671  1
  O2-  O449  1  0.42075636  0.33802981  0.86667660  1
  O2-  O450  1  0.35290948  0.54796388  0.18757054  1
  O2-  O451  1  0.40071821  0.58732876  0.52096682  1
  O2-  O452  1  0.42299679  0.59197526  0.85474212  1
  O2-  O453  1  0.42381829  0.83519088  0.18943325  1
  O2-  O454  1  0.32794161  0.77731889  0.55420423  1
  O2-  O455  1  0.41314228  0.83881697  0.85475402  1
  O2-  O456  1  0.67160099  0.08373231  0.18925182  1
  O2-  O457  1  0.67962942  0.13467311  0.49939102  1
  O2-  O458  1  0.66540060  0.08253800  0.84266169  1
  O2-  O459  1  0.67469384  0.33918088  0.18523810  1
  O2-  O460  1  0.69018364  0.34596844  0.52900152  1
  O2-  O461  1  0.67067146  0.32590070  0.85669488  1
  O2-  O462  1  0.67092737  0.61619122  0.18828279  1
  O2-  O463  1  0.68760789  0.68135234  0.53031323  1
  O2-  O464  1  0.65442826  0.56875630  0.83107480  1
  O2-  O465  1  0.67388797  0.85075653  0.19963266  1
  O2-  O466  1  0.71000757  0.84267799  0.52191586  1
  O2-  O467  1  0.66295829  0.83275262  0.86370257  1
  O2-  O468  1  0.92334091  0.09171917  0.17686237  1
  O2-  O469  1  0.89383683  0.10465217  0.52279679  1
  O2-  O470  1  0.91284383  0.03033317  0.86730994  1
  O2-  O471  1  0.95383428  0.34620602  0.15344166  1
  O2-  O472  1  0.94029585  0.36105331  0.44776117  1
  O2-  O473  1  0.92121912  0.32948642  0.85014642  1
  O2-  O474  1  0.90878115  0.59721285  0.20311844  1
  O2-  O475  1  0.93877352  0.59703254  0.52238466  1
  O2-  O476  1  0.91629422  0.58072932  0.85526125  1
  O2-  O477  1  0.92082845  0.84492673  0.19800547  1
  O2-  O478  1  0.92479803  0.74358232  0.52709644  1
  O2-  O479  1  0.93794097  0.84874561  0.86141623  1
  O2-  O480  1  0.16477795  0.08012849  0.30213505  1
  O2-  O481  1  0.18766494  0.10521148  0.62999947  1
  O2-  O482  1  0.15317300  0.07661030  1.00652551  1
  O2-  O483  1  0.17055716  0.32965801  0.30413554  1
  O2-  O484  1  0.18350075  0.31731779  0.62977338  1
  O2-  O485  1  0.15476917  0.32485565  1.00262240  1
  O2-  O486  1  0.16064956  0.58585584  0.29934028  1
  O2-  O487  1  0.17443921  0.57059457  0.64652635  1
  O2-  O488  1  0.16664661  0.57645472  0.98482333  1
  O2-  O489  1  0.15233713  0.83375619  0.32369770  1
  O2-  O490  1  0.17388410  0.81394285  0.64272971  1
  O2-  O491  1  0.16900261  0.84316273  0.98178165  1
  O2-  O492  1  0.40962949  0.08380427  0.32147565  1
  O2-  O493  1  0.41044467  0.07882529  0.64398991  1
  O2-  O494  1  0.41536593  0.09082635  0.98047913  1
  O2-  O495  1  0.41531669  0.32297037  0.31988587  1
  O2-  O496  1  0.40381932  0.33693410  0.65161625  1
  O2-  O497  1  0.41254694  0.34189482  0.99172086  1
  O2-  O498  1  0.40378937  0.56861399  0.30606709  1
  O2-  O499  1  0.40884046  0.58707647  0.64643544  1
  O2-  O500  1  0.42485378  0.59231851  0.97780342  1
  O2-  O501  1  0.40110906  0.82865682  0.31039540  1
  O2-  O502  1  0.40863679  0.82881398  0.65973189  1
  O2-  O503  1  0.41059297  0.83586955  0.97551678  1
  O2-  O504  1  0.66582644  0.06683869  0.31419709  1
  O2-  O505  1  0.65855182  0.08669586  0.70252669  1
  O2-  O506  1  0.66193100  0.08004715  0.97667872  1
  O2-  O507  1  0.66083277  0.30965631  0.30977637  1
  O2-  O508  1  0.65831316  0.33465294  0.65136811  1
  O2-  O509  1  0.68353954  0.32702107  0.97493827  1
  O2-  O510  1  0.67189239  0.58478583  0.31243253  1
  O2-  O511  1  0.65670893  0.59467907  0.64379231  1
  O2-  O512  1  0.66749797  0.57588418  1.02105106  1
  O2-  O513  1  0.67980761  0.81843335  0.31925348  1
  O2-  O514  1  0.65953818  0.83373921  0.63913824  1
  O2-  O515  1  0.67839036  0.82743842  0.98311338  1
  O2-  O516  1  0.92033512  0.09000971  0.30124714  1
  O2-  O517  1  0.91038608  0.06216011  0.64186073  1
  O2-  O518  1  0.90224919  0.04880675  0.98175088  1
  O2-  O519  1  0.86150337  0.24936188  0.32000301  1
  O2-  O520  1  0.93046100  0.35278920  0.67105221  1
  O2-  O521  1  0.92037670  0.32115656  0.96857529  1
  O2-  O522  1  0.91349561  0.56347160  0.31766682  1
  O2-  O523  1  0.95089655  0.52247612  0.62473899  1
  O2-  O524  1  0.92326951  0.58226325  0.98211444  1
  O2-  O525  1  0.92418559  0.84400448  0.32228109  1
  O2-  O526  1  0.94245093  0.87805712  0.60412525  1
  O2-  O527  1  0.91664088  0.83060843  0.98477424  1
  O2-  O528  1  0.09972477  0.17698438  0.06285239  1
  O2-  O529  1  0.08569307  0.16583760  0.34210246  1
  O2-  O530  1  0.08507149  0.15804339  0.68976262  1
  O2-  O531  1  0.07043076  0.41425704  0.02661292  1
  O2-  O532  1  0.09717473  0.42356879  0.34925440  1
  O2-  O533  1  0.09885406  0.40691533  0.69640980  1
  O2-  O534  1  0.09605602  0.68111932  0.01198016  1
  O2-  O535  1  0.08268344  0.66451447  0.35567439  1
  O2-  O536  1  0.08979616  0.64665204  0.69058504  1
  O2-  O537  1  0.07566961  0.91291440  0.02980056  1
  O2-  O538  1  0.08279552  0.92528015  0.35112615  1
  O2-  O539  1  0.06707834  0.95674046  0.67994579  1
  O2-  O540  1  0.33181394  0.16835925  0.02729378  1
  O2-  O541  1  0.31552709  0.15605973  0.35934049  1
  O2-  O542  1  0.33957453  0.17425529  0.68841507  1
  O2-  O543  1  0.31663118  0.42714516  0.02553447  1
  O2-  O544  1  0.33207498  0.40712782  0.35000671  1
  O2-  O545  1  0.33363836  0.42580029  0.70019199  1
  O2-  O546  1  0.33593859  0.66987767  0.01786734  1
  O2-  O547  1  0.32690599  0.66187374  0.34042827  1
  O2-  O548  1  0.33191172  0.66480497  0.69826295  1
  O2-  O549  1  0.33837476  0.92533475  0.01707329  1
  O2-  O550  1  0.32887999  0.91815647  0.35205862  1
  O2-  O551  1  0.32844723  0.91446504  0.68979112  1
  O2-  O552  1  0.58356243  0.16685677  0.02000612  1
  O2-  O553  1  0.56249268  0.16835199  0.36033262  1
  O2-  O554  1  0.57119566  0.16970267  0.69256962  1
  O2-  O555  1  0.57258098  0.41507694  0.04850031  1
  O2-  O556  1  0.58909203  0.40631656  0.33386837  1
  O2-  O557  1  0.57490167  0.42005782  0.68200156  1
  O2-  O558  1  0.58992303  0.67728948  0.03277274  1
  O2-  O559  1  0.57064160  0.64681839  0.33711339  1
  O2-  O560  1  0.57086796  0.67359815  0.68191519  1
  O2-  O561  1  0.57012711  0.91811282  0.03357903  1
  O2-  O562  1  0.54336999  0.92652152  0.37024297  1
  O2-  O563  1  0.57701723  0.91041079  0.69126203  1
  O2-  O564  1  0.82719459  0.15106784  0.01129770  1
  O2-  O565  1  0.83425677  0.16405683  0.34801597  1
  O2-  O566  1  0.83139842  0.18243817  0.70378510  1
  O2-  O567  1  0.87327010  0.42467336  0.02661395  1
  O2-  O568  1  0.82243423  0.38220773  0.34983255  1
  O2-  O569  1  0.81831339  0.41184502  0.69994548  1
  O2-  O570  1  0.84599747  0.66655520  0.02866533  1
  O2-  O571  1  0.79688648  0.69707815  0.38237590  1
  O2-  O572  1  0.79628371  0.69698722  0.71449351  1
  O2-  O573  1  0.82346971  0.90211787  0.02284497  1
  O2-  O574  1  0.84727371  0.92964511  0.35281712  1
  O2-  O575  1  0.82384519  0.88367447  0.67627613  1
