# generated using pymatgen
data_H2O
_symmetry_space_group_name_H-M   'P 1'
_cell_length_a   17.98289538
_cell_length_b   17.98673425
_cell_length_c   21.98987739
_cell_angle_alpha   90.01464305
_cell_angle_beta   89.97414422
_cell_angle_gamma   120.01484809
_symmetry_Int_Tables_number   1
_chemical_formula_structural   H2O
_chemical_formula_sum   'H384 O192'
_cell_volume   6158.86000733
_cell_formula_units_Z   192
loop_
 _symmetry_equiv_pos_site_id
 _symmetry_equiv_pos_as_xyz
  1  'x, y, z'
loop_
 _atom_type_symbol
 _atom_type_oxidation_number
  H+  1.0
  O2-  -2.0
loop_
 _atom_site_type_symbol
 _atom_site_label
 _atom_site_symmetry_multiplicity
 _atom_site_fract_x
 _atom_site_fract_y
 _atom_site_fract_z
 _atom_site_occupancy
  H+  H0  1  0.61246280  0.88674877  0.16051755  1
  H+  H1  1  0.72900831  0.87030758  0.17331074  1
  H+  H2  1  0.17894861  0.74342888  0.65545717  1
  H+  H3  1  0.85950690  0.13829561  0.49604540  1
  H+  H4  1  0.88823348  0.65756514  0.67444793  1
  H+  H5  1  0.89385435  0.12152482  0.17027910  1
  H+  H6  1  0.64494207  0.62993140  0.83961725  1
  H+  H7  1  0.13638983  1.02364171  0.83620783  1
  H+  H8  1  0.60665440  0.39103410  0.82627091  1
  H+  H9  1  0.84276803  0.40082796  0.64864734  1
  H+  H10  1  0.87176602  0.47067484  0.33781160  1
  H+  H11  1  0.13006325  0.71892615  0.48208854  1
  H+  H12  1  0.18298815  0.34791077  0.27092303  1
  H+  H13  1  0.88276065  0.53272091  0.65451504  1
  H+  H14  1  0.53147038  0.13957491  0.00876427  1
  H+  H15  1  0.36114703  0.11642858  0.67192762  1
  H+  H16  1  0.87258298  0.22236543  0.67605849  1
  H+  H17  1  0.63461342  0.61669271  0.99326613  1
  H+  H18  1  0.70319674  0.89017618  0.83020001  1
  H+  H19  1  0.63533020  0.53575856  0.83637911  1
  H+  H20  1  0.51672202  0.89623648  0.33300879  1
  H+  H21  1  0.61977770  0.23125823  0.33558841  1
  H+  H22  1  0.98801125  0.61602694  0.50049389  1
  H+  H23  1  0.87345497  0.11258197  0.85108761  1
  H+  H24  1  0.13575431  0.49552991  0.66113228  1
  H+  H25  1  0.86765708  0.88974026  0.67844493  1
  H+  H26  1  0.57604019  0.41881384  0.76659125  1
  H+  H27  1  0.37059157  0.40134769  0.16004745  1
  H+  H28  1  0.36296679  -0.03292978  0.15808187  1
  H+  H29  1  0.14618411  0.85640189  0.67838159  1
  H+  H30  1  0.52501576  0.63782026  0.00800709  1
  H+  H31  1  0.30138044  0.13303320  0.06561551  1
  H+  H32  1  0.38999275  0.61610878  0.32271306  1
  H+  H33  1  0.40461546  0.29934127  0.18794381  1
  H+  H34  1  0.15503792  0.84387964  0.89210046  1
  H+  H35  1  0.59795053  0.68437113  0.77143419  1
  H+  H36  1  0.53204060  0.14005285  0.33585184  1
  H+  H37  1  0.14131998  0.62092160  0.84457248  1
  H+  H38  1  0.87865395  0.86915229  0.17689144  1
  H+  H39  1  0.01806332  0.61991941  0.66927377  1
  H+  H40  1  0.12289823  0.39012515  0.48595021  1
  H+  H41  1  0.52925347  0.38541519  0.34651224  1
  H+  H42  1  0.26731096  0.15425094  0.48145512  1
  H+  H43  1  0.15115922  0.28491795  0.32792528  1
  H+  H44  1  -0.02094961  0.35911458  0.32501579  1
  H+  H45  1  0.48253433  0.61887510  0.17155840  1
  H+  H46  1  0.38373613  0.97604168  0.83989719  1
  H+  H47  1  0.12105045  0.24799628  0.16564044  1
  H+  H48  1  0.48463640  0.11026816  0.16851176  1
  H+  H49  1  0.64667434  0.12593238  0.32329221  1
  H+  H50  1  0.39442094  0.11528668  0.84774034  1
  H+  H51  1  0.62321764  0.48541312  0.15842836  1
  H+  H52  1  0.75752324  0.63553568  0.67063752  1
  H+  H53  1  0.77262623  0.39456613  0.15529057  1
  H+  H54  1  0.64113658  0.36311568  0.32814375  1
  H+  H55  1  0.86465890  0.64237773  0.82897484  1
  H+  H56  1  0.48097808  0.36324685  0.51840476  1
  H+  H57  1  0.37439912  0.71759278  0.67275466  1
  H+  H58  1  0.86985978  0.86043899  0.50472505  1
  H+  H59  1  0.89927158  0.52699595  0.50425903  1
  H+  H60  1  0.31923460  0.88635627  0.48620381  1
  H+  H61  1  0.12270201  0.72237919  0.32873467  1
  H+  H62  1  0.15656161  0.04481809  0.99504533  1
  H+  H63  1  0.23740148  0.16856931  0.65282659  1
  H+  H64  1  0.42380534  0.07927391  0.60311522  1
  H+  H65  1  0.22259317  0.59655646  0.49152838  1
  H+  H66  1  0.26621505  0.37650074  0.82381368  1
  H+  H67  1  0.06239898  0.57812229  0.70690256  1
  H+  H68  1  -0.01081100  0.62421654  0.15446659  1
  H+  H69  1  0.13100513  0.50894384  0.49771370  1
  H+  H70  1  0.38425213  0.27250720  0.83191308  1
  H+  H71  1  0.13599905  0.28470062  0.99280794  1
  H+  H72  1  0.27969723  0.13426508  0.82886788  1
  H+  H73  1  0.71993545  0.36583764  0.83796501  1
  H+  H74  1  0.50274995  0.36875692  0.67261928  1
  H+  H75  1  0.36024776  0.87707029  0.15883752  1
  H+  H76  1  0.36999043  0.72773807  0.82604790  1
  H+  H77  1  0.51861106  0.89276234  0.49176141  1
  H+  H78  1  0.88945127  0.36935191  0.99263492  1
  H+  H79  1  0.61593391  0.72803746  0.15880946  1
  H+  H80  1  0.39499119  0.37806489  0.33609400  1
  H+  H81  1  0.26269593  0.40729757  0.48877617  1
  H+  H82  1  0.61553509  0.48152384  0.00471854  1
  H+  H83  1  0.79225158  0.27397850  0.21933755  1
  H+  H84  1  0.83208094  0.16870487  0.77160216  1
  H+  H85  1  0.88702835  0.87474910  0.32637968  1
  H+  H86  1  0.28638058  0.15922222  0.18938748  1
  H+  H87  1  0.10719261  0.14898334  1.01061743  1
  H+  H88  1  0.34116791  0.15981216  0.77115810  1
  H+  H89  1  0.91499551  0.58443720  0.89800060  1
  H+  H90  1  0.12027310  0.95611566  0.67208172  1
  H+  H91  1  0.12725083  0.14194242  0.82820265  1
  H+  H92  1  0.35446774  0.18148312  0.24105949  1
  H+  H93  1  0.15189401  0.61367725  0.63942402  1
  H+  H94  1  1.02666845  0.37799231  0.49500344  1
  H+  H95  1  0.61099897  0.97521499  0.16147032  1
  H+  H96  1  0.14246449  0.41481232  0.68201164  1
  H+  H97  1  0.85901284  0.71771356  0.49220777  1
  H+  H98  1  0.11568293  0.15413740  0.48791094  1
  H+  H99  1  0.02066346  0.63716249  0.83044450  1
  H+  H100  1  0.15235942  0.61620732  0.29182195  1
  H+  H101  1  0.11266250  0.38622150  0.33599799  1
  H+  H102  1  0.61810328  0.13932350  0.15961735  1
  H+  H103  1  0.88621771  0.27013592  0.51105293  1
  H+  H104  1  0.41264918  0.32084887  0.59966729  1
  H+  H105  1  0.91358536  0.83925285  0.93330048  1
  H+  H106  1  0.60628698  0.69289678  0.33182759  1
  H+  H107  1  0.47058585  0.36767620  0.83186697  1
  H+  H108  1  0.77849506  0.14032975  0.34087722  1
  H+  H109  1  0.89115956  0.52173430  0.16016685  1
  H+  H110  1  0.37894906  0.25776474  0.66048216  1
  H+  H111  1  0.23008045  0.86645654  0.98946616  1
  H+  H112  1  0.42440041  0.59175021  0.93260478  1
  H+  H113  1  0.87191313  0.38982054  0.49530293  1
  H+  H114  1  0.13782980  0.86125177  0.17481544  1
  H+  H115  1  0.33447183  0.66328509  0.76907881  1
  H+  H116  1  0.14320490  1.03628297  0.51610058  1
  H+  H117  1  0.61891094  0.15842714  0.49554799  1
  H+  H118  1  0.07412993  0.88285128  0.49519579  1
  H+  H119  1  0.63754930  0.89471088  0.33030993  1
  H+  H120  1  0.61415195  0.47800917  0.50181808  1
  H+  H121  1  0.77067227  0.14239887  0.82998685  1
  H+  H122  1  0.00364009  0.86552727  0.01277569  1
  H+  H123  1  0.23313055  0.37447891  0.17455633  1
  H+  H124  1  0.46859011  0.93904913  0.46970863  1
  H+  H125  1  0.61662160  0.74560448  0.82977190  1
  H+  H126  1  0.17033486  0.11516569  0.56210643  1
  H+  H127  1  0.39055395  0.52704760  0.99022688  1
  H+  H128  1  0.61432362  0.85312686  0.48449302  1
  H+  H129  1  0.48662160  0.60993134  0.48773652  1
  H+  H130  1  0.39650376  0.11044046  0.18051451  1
  H+  H131  1  0.97752586  0.12502405  0.50524174  1
  H+  H132  1  0.09924694  -0.02908446  0.17279204  1
  H+  H133  1  0.23911273  0.62361617  0.19261885  1
  H+  H134  1  0.07315612  0.15674281  0.74882933  1
  H+  H135  1  0.52598698  0.39205973  0.01051051  1
  H+  H136  1  0.36682451  0.72323210  0.00867360  1
  H+  H137  1  0.36955996  0.97539423  0.67938659  1
  H+  H138  1  0.11785141  0.73061241  0.99912978  1
  H+  H139  1  0.77333024  0.39134446  1.00198694  1
  H+  H140  1  -0.01344273  0.12880685  0.32445575  1
  H+  H141  1  0.38372230  0.86125800  0.31982378  1
  H+  H142  1  1.01029639  0.88881187  0.32639277  1
  H+  H143  1  0.61767619  0.13715935  0.67714946  1
  H+  H144  1  0.77892392  0.38554399  0.34140673  1
  H+  H145  1  0.88933218  0.36032309  0.33291907  1
  H+  H146  1  0.28362829  0.40037574  0.34858822  1
  H+  H147  1  0.58122288  0.91722652  0.06581545  1
  H+  H148  1  0.85385227  0.38460297  0.16117820  1
  H+  H149  1  0.72318036  0.82232575  0.50479212  1
  H+  H150  1  0.65310883  0.38641229  0.51946029  1
  H+  H151  1  0.38672816  0.76901348  0.17109091  1
  H+  H152  1  0.13913115  0.86295619  -0.00612484  1
  H+  H153  1  0.62546961  0.58763562  0.32495274  1
  H+  H154  1  0.67090082  0.08625397  0.23062215  1
  H+  H155  1  0.67055700  0.34307497  0.60812208  1
  H+  H156  1  0.48731441  0.12239931  0.51391624  1
  H+  H157  1  0.36752048  0.72918411  0.33019092  1
  H+  H158  1  0.13965197  0.36946575  0.83815899  1
  H+  H159  1  0.83416229  0.92395923  0.10234875  1
  H+  H160  1  0.36778977  0.37973049  0.67343504  1
  H+  H161  1  0.27915807  0.14691593  0.32327490  1
  H+  H162  1  0.99106173  0.59785583  0.31502048  1
  H+  H163  1  0.08951211  0.17726000  0.39478065  1
  H+  H164  1  0.39802415  0.62143965  0.84115930  1
  H+  H165  1  0.27562559  0.39478720  1.00445110  1
  H+  H166  1  -0.03223814  0.11819611  -0.00139803  1
  H+  H167  1  0.87980649  0.60967946  0.15683995  1
  H+  H168  1  0.12847751  0.24810409  0.48045169  1
  H+  H169  1  0.87099401  0.63521744  0.48967155  1
  H+  H170  1  0.65145094  0.85949930  0.65211511  1
  H+  H171  1  0.85921006  0.63852568  -0.00259042  1
  H+  H172  1  0.63864779  0.27953953  0.99265685  1
  H+  H173  1  0.12239271  0.48536543  0.17229219  1
  H+  H174  1  0.14474887  0.37714425  0.17862145  1
  H+  H175  1  0.62481987  0.35427794  0.66752636  1
  H+  H176  1  0.47813248  0.11066710  0.66618994  1
  H+  H177  1  0.77444480  0.62595235  0.15417797  1
  H+  H178  1  0.11819992  0.48471130  1.01039856  1
  H+  H179  1  0.83524040  0.88411866  0.83309114  1
  H+  H180  1  0.11859715  0.14413828  0.33597388  1
  H+  H181  1  0.87665502  -0.00231363  0.33518317  1
  H+  H182  1  0.14225171  0.15449082  0.66091557  1
  H+  H183  1  0.55152137  0.89369405  0.67201872  1
  H+  H184  1  0.64126312  0.01872259  0.84180151  1
  H+  H185  1  0.11831039  0.64155913  1.00475694  1
  H+  H186  1  0.13541286  0.30199143  0.62513746  1
  H+  H187  1  0.76863221  0.63742574  -0.00106241  1
  H+  H188  1  0.72397434  0.85906944  1.00161719  1
  H+  H189  1  0.65221020  0.02733082  0.66379279  1
  H+  H190  1  0.47596569  0.85996478  0.17023991  1
  H+  H191  1  0.26842247  0.83158275  0.65787538  1
  H+  H192  1  -0.12141785  0.77389688  -0.01015037  1
  H+  H193  1  0.73080710  0.60520623  0.51174950  1
  H+  H194  1  0.22970490  0.13967408  0.98171770  1
  H+  H195  1  0.11569880  0.62509898  0.48150969  1
  H+  H196  1  0.13158449  0.85977574  0.32256605  1
  H+  H197  1  0.23046714  0.61982995  0.84213458  1
  H+  H198  1  0.90601661  0.79202855  0.66294719  1
  H+  H199  1  0.54127436  0.87325072  0.82984989  1
  H+  H200  1  0.86243545  1.01931193  0.85067239  1
  H+  H201  1  0.38507244  0.51216135  0.64286779  1
  H+  H202  1  0.85863059  0.97348824  0.67457811  1
  H+  H203  1  0.02927576  0.39588810  0.01073720  1
  H+  H204  1  0.60334288  0.69564978  0.49866089  1
  H+  H205  1  0.63240521  0.10412051  0.84058047  1
  H+  H206  1  0.42332914  0.08598178  0.94188052  1
  H+  H207  1  0.88377859  0.52567683  0.83776595  1
  H+  H208  1  0.58662950  0.45583223  0.65755715  1
  H+  H209  1  0.63692194  0.36831703  0.99306087  1
  H+  H210  1  1.02309386  0.92694671  0.67303644  1
  H+  H211  1  0.85823027  0.98097566  0.49031477  1
  H+  H212  1  0.78313028  0.91517042  0.33434707  1
  H+  H213  1  0.35600581  0.72868354  0.51707003  1
  H+  H214  1  0.62863740  0.64535547  0.68679997  1
  H+  H215  1  0.12469022  0.84622463  0.64757514  1
  H+  H216  1  0.36487659  0.97710904  0.33080685  1
  H+  H217  1  0.33482061  0.42691931  0.06409988  1
  H+  H218  1  0.65379180  0.82040109  0.34760479  1
  H+  H219  1  0.88034431  0.10448817  0.66078648  1
  H+  H220  1  0.26624014  0.08086770  0.69500620  1
  H+  H221  1  0.28287273  0.63917746  0.31776951  1
  H+  H222  1  0.84885914  0.73019896  0.33859753  1
  H+  H223  1  0.27314750  0.88873690  0.33380061  1
  H+  H224  1  0.48953258  0.62804609  0.84311870  1
  H+  H225  1  0.19937272  0.26664773  0.62008124  1
  H+  H226  1  0.77558887  0.64290094  0.82504851  1
  H+  H227  1  0.90294811  0.08180661  0.94078923  1
  H+  H228  1  0.36546346  0.63378529  0.00839367  1
  H+  H229  1  0.36670195  0.48725939  0.15855958  1
  H+  H230  1  0.39396315  0.28283952  0.01728587  1
  H+  H231  1  0.48540711  0.93364870  0.61012171  1
  H+  H232  1  0.88047784  0.78003322  0.84072710  1
  H+  H233  1  0.86435432  0.23368222  0.00631563  1
  H+  H234  1  0.36615482  -0.02885853  1.00721581  1
  H+  H235  1  0.34836993  0.60796269  0.47428277  1
  H+  H236  1  0.72297143  0.60827550  0.32475479  1
  H+  H237  1  -0.03968617  0.85671176  0.17874975  1
  H+  H238  1  0.13989619  0.37497622  0.99336392  1
  H+  H239  1  0.91048393  0.35757960  0.68735693  1
  H+  H240  1  0.74413452  0.38845259  0.51919652  1
  H+  H241  1  0.06225239  0.21218065  0.69852327  1
  H+  H242  1  0.73790397  0.85766725  0.65966223  1
  H+  H243  1  0.50836263  0.61846548  0.33650325  1
  H+  H244  1  0.72749386  0.11649865  0.99568607  1
  H+  H245  1  0.62303089  0.03940513  0.50638077  1
  H+  H246  1  0.64272029  0.61766657  0.17113395  1
  H+  H247  1  0.86646974  0.98631071  0.16083728  1
  H+  H248  1  0.11658126  0.48642730  0.83194041  1
  H+  H249  1  0.12039841  0.22820190  0.82923503  1
  H+  H250  1  0.49212348  0.38660201  0.17513879  1
  H+  H251  1  0.61504787  0.72792949  0.00987808  1
  H+  H252  1  0.60804952  0.91108822  0.73225021  1
  H+  H253  1  0.88608131  0.28120902  0.83883290  1
  H+  H254  1  0.03081150  0.15484344  0.16435730  1
  H+  H255  1  0.67841906  0.55425686  0.69688620  1
  H+  H256  1  0.40525610  1.02956979  0.51081944  1
  H+  H257  1  0.13501680  1.02579882  0.31694794  1
  H+  H258  1  0.86109897  0.98021324  0.01035223  1
  H+  H259  1  0.10302424  0.72593030  0.15547420  1
  H+  H260  1  0.38206329  0.59851302  0.63910335  1
  H+  H261  1  0.63928190  0.36810334  0.16906253  1
  H+  H262  1  0.47774869  0.86012354  0.99468800  1
  H+  H263  1  0.96532895  0.09864006  0.66514362  1
  H+  H264  1  0.36869660  0.24048445  0.32682161  1
  H+  H265  1  0.77833798  0.13811332  0.67408992  1
  H+  H266  1  0.58546320  0.16524199  0.77153872  1
  H+  H267  1  0.39216953  0.90181051  0.68296145  1
  H+  H268  1  0.97580102  0.37095451  0.83783479  1
  H+  H269  1  0.86087179  0.39012830  0.82418159  1
  H+  H270  1  -0.00043987  0.37178621  0.66623802  1
  H+  H271  1  0.72278426  0.11508184  0.50776911  1
  H+  H272  1  0.36637687  0.63725987  0.16268188  1
  H+  H273  1  0.28293723  0.63576196  0.66361144  1
  H+  H274  1  0.88527928  0.31650511  0.24590269  1
  H+  H275  1  -0.03671350  0.87358104  0.83962785  1
  H+  H276  1  0.60155594  0.85541099  0.51684410  1
  H+  H277  1  0.72591503  0.10764178  0.16897783  1
  H+  H278  1  0.22492548  0.85653425  0.17092009  1
  H+  H279  1  0.88817504  0.52728206  0.99154958  1
  H+  H280  1  0.17580782  0.08639304  0.13532461  1
  H+  H281  1  0.39613666  0.11491816  0.31853594  1
  H+  H282  1  0.41318928  0.86606899  0.84085997  1
  H+  H283  1  0.84942467  0.21859846  0.16383390  1
  H+  H284  1  0.66193910  0.33709491  0.89780372  1
  H+  H285  1  0.39925803  0.11264762  0.00612636  1
  H+  H286  1  0.28420091  0.38599949  0.66659974  1
  H+  H287  1  0.63958533  1.03459962  0.32392843  1
  H+  H288  1  0.67122451  0.33849774  0.26590648  1
  H+  H289  1  0.30746992  0.75884077  0.56207351  1
  H+  H290  1  0.07596546  0.40965497  0.39356485  1
  H+  H291  1  0.33074717  0.66230404  0.10414162  1
  H+  H292  1  0.09567704  0.43111912  0.11069393  1
  H+  H293  1  0.20289325  0.35459516  0.54343354  1
  H+  H294  1  0.66851186  0.84074500  0.23200744  1
  H+  H295  1  0.97784282  0.61665166  0.99027313  1
  H+  H296  1  0.84106440  0.41841746  0.43582921  1
  H+  H297  1  0.86413374  0.89211192  0.00854280  1
  H+  H298  1  0.83432846  0.92884040  0.42785677  1
  H+  H299  1  0.17654934  0.57780466  0.58005486  1
  H+  H300  1  0.09142489  0.43380767  0.77007739  1
  H+  H301  1  0.85704304  0.68498139  0.73583912  1
  H+  H302  1  0.89516933  0.12604657  0.32729238  1
  H+  H303  1  0.33023886  0.90699646  0.06372375  1
  H+  H304  1  0.58627075  0.41643549  0.44306293  1
  H+  H305  1  0.56284324  0.93685458  0.39590819  1
  H+  H306  1  0.62005327  0.47014595  0.34179987  1
  H+  H307  1  0.82991273  0.41997801  0.76509490  1
  H+  H308  1  0.07124303  0.93653124  0.76868681  1
  H+  H309  1  0.92591542  0.59163718  0.59516312  1
  H+  H310  1  0.59012153  0.42490679  0.09892153  1
  H+  H311  1  0.48435032  0.11731015  0.84823325  1
  H+  H312  1  0.92486051  0.57191692  0.26090503  1
  H+  H313  1  0.17390993  0.58983226  0.93834928  1
  H+  H314  1  0.07632358  0.67165958  0.09123923  1
  H+  H315  1  0.35554556  0.92779053  0.42162711  1
  H+  H316  1  0.62161743  0.14283796  0.00645001  1
  H+  H317  1  0.08187887  0.66864292  0.77258678  1
  H+  H318  1  0.08307809  0.18341928  0.07002766  1
  H+  H319  1  0.66396946  0.58881899  0.93189299  1
  H+  H320  1  0.42951648  0.83490818  0.59930976  1
  H+  H321  1  0.43402019  0.82675496  0.89852092  1
  H+  H322  1  0.42228314  0.58708407  0.23135662  1
  H+  H323  1  0.58502135  0.66697661  0.09971935  1
  H+  H324  1  0.35355483  0.91867349  0.78051787  1
  H+  H325  1  0.67179731  0.08706466  0.60437550  1
  H+  H326  1  0.38929977  0.36736308  1.00390748  1
  H+  H327  1  0.23262629  0.61752877  0.99847315  1
  H+  H328  1  0.63945757  0.27835968  0.16915892  1
  H+  H329  1  0.86712951  0.22958497  0.34351859  1
  H+  H330  1  0.06866863  0.92596308  0.38431527  1
  H+  H331  1  0.92095482  0.34099419  0.93424036  1
  H+  H332  1  0.42971852  0.35990234  0.27390049  1
  H+  H333  1  0.62282513  0.72875087  0.67807202  1
  H+  H334  1  0.17048577  0.08551715  0.89428963  1
  H+  H335  1  0.42804756  0.07935907  0.26386357  1
  H+  H336  1  0.21391636  0.80677880  0.56220759  1
  H+  H337  1  0.38646355  0.85486475  0.99016926  1
  H+  H338  1  0.14115527  0.14218532  0.16736838  1
  H+  H339  1  0.92172652  0.33098196  0.56982753  1
  H+  H340  1  0.07293019  0.91298234  0.11191369  1
  H+  H341  1  0.33176347  0.18246769  0.42572679  1
  H+  H342  1  0.83301578  0.41945445  0.06141490  1
  H+  H343  1  0.61230223  0.97658239  0.00649333  1
  H+  H344  1  0.80391268  0.78118998  0.53835733  1
  H+  H345  1  0.63510103  0.85743112  0.99807285  1
  H+  H346  1  0.61579039  0.22590475  0.83027789  1
  H+  H347  1  0.36398725  0.36710007  0.82329510  1
  H+  H348  1  0.83138817  0.16930766  0.43668742  1
  H+  H349  1  0.18590731  0.85900230  0.51871119  1
  H+  H350  1  0.09873740  0.65731100  0.38325173  1
  H+  H351  1  0.58490215  0.17500660  0.43395936  1
  H+  H352  1  0.83413263  0.16994985  0.09921241  1
  H+  H353  1  0.90742762  0.83771986  0.26567589  1
  H+  H354  1  0.38620844  0.52370281  0.32664625  1
  H+  H355  1  0.61429972  0.22464058  0.67668710  1
  H+  H356  1  0.82300010  0.66587931  0.39487532  1
  H+  H357  1  0.67976022  0.58202742  0.57390427  1
  H+  H358  1  0.03210218  0.81319997  0.05287229  1
  H+  H359  1  0.16927300  0.34158842  0.89832157  1
  H+  H360  1  0.59075242  0.17071292  0.09946919  1
  H+  H361  1  0.32651561  0.65409481  0.42015997  1
  H+  H362  1  0.39664261  0.55303123  0.54851066  1
  H+  H363  1  0.16548671  0.83143992  0.26493623  1
  H+  H364  1  0.32774910  0.40612468  0.76097680  1
  H+  H365  1  0.38832474  0.27945291  0.50993657  1
  H+  H366  1  0.91879895  0.08663149  0.56513102  1
  H+  H367  1  0.35318017  0.44882596  0.40462082  1
  H+  H368  1  0.92552450  0.09597504  0.23089575  1
  H+  H369  1  0.91158065  0.84173861  0.60150108  1
  H+  H370  1  0.67024033  0.58282106  0.22987749  1
  H+  H371  1  0.82836720  0.65315414  0.09103572  1
  H+  H372  1  0.41699202  0.83182633  0.26151490  1
  H+  H373  1  0.56475502  0.65306842  0.42814050  1
  H+  H374  1  0.81856733  0.91686383  0.77054729  1
  H+  H375  1  0.15797027  0.93455363  0.45682897  1
  H+  H376  1  0.09586903  0.89195917  0.82442845  1
  H+  H377  1  0.66765450  0.08306627  0.93636037  1
  H+  H378  1  0.38903066  0.19019092  0.09533749  1
  H+  H379  1  0.75706791  0.39126082  0.67294071  1
  H+  H380  1  0.16415028  0.08860669  0.26004330  1
  H+  H381  1  0.12102529  0.78135331  0.83614638  1
  H+  H382  1  0.86090494  0.14220736  0.00817463  1
  H+  H383  1  0.68230846  0.79123419  0.57031660  1
  O2-  O384  1  0.09194839  0.18671310  0.14893442  1
  O2-  O385  1  0.08796508  0.18634353  0.47209841  1
  O2-  O386  1  0.09274122  0.16810181  0.81446978  1
  O2-  O387  1  0.09627852  0.42662928  0.15554998  1
  O2-  O388  1  0.08380190  0.41291574  0.47525325  1
  O2-  O389  1  0.08577766  0.42641956  0.81463031  1
  O2-  O390  1  0.06721352  0.66792043  0.13664259  1
  O2-  O391  1  0.09053207  0.66027887  0.46633658  1
  O2-  O392  1  0.08259178  0.66928253  0.81737638  1
  O2-  O393  1  0.07814395  0.91276802  0.15717977  1
  O2-  O394  1  0.13461642  0.92719303  0.49790990  1
  O2-  O395  1  0.06890514  0.92850566  0.81368981  1
  O2-  O396  1  0.34888089  0.18179535  0.19589770  1
  O2-  O397  1  0.32846849  0.18653314  0.46977567  1
  O2-  O398  1  0.34182601  0.16675464  0.81592323  1
  O2-  O399  1  0.33609011  0.42625122  0.14370267  1
  O2-  O400  1  0.36649587  0.46945225  0.47817223  1
  O2-  O401  1  0.32634693  0.40013955  0.80679536  1
  O2-  O402  1  0.33295882  0.66562309  0.14974501  1
  O2-  O403  1  0.32224382  0.64432560  0.46517450  1
  O2-  O404  1  0.33204345  0.66617470  0.81388352  1
  O2-  O405  1  0.32877571  0.90666809  0.14370274  1
  O2-  O406  1  0.37139989  0.93151196  0.46571022  1
  O2-  O407  1  0.36300269  0.91716529  0.82462277  1
  O2-  O408  1  0.58735499  0.16971973  0.14521908  1
  O2-  O409  1  0.58174421  0.17904747  0.47867506  1
  O2-  O410  1  0.58637892  0.16445736  0.81710888  1
  O2-  O411  1  0.59030079  0.42365352  0.14475081  1
  O2-  O412  1  0.58362472  0.41633012  0.48821167  1
  O2-  O413  1  0.57653978  0.42187076  0.81169493  1
  O2-  O414  1  0.58562914  0.66684088  0.14584958  1
  O2-  O415  1  0.55120285  0.65923094  0.47174854  1
  O2-  O416  1  0.59803048  0.68592161  0.81786474  1
  O2-  O417  1  0.57978481  0.91486008  0.14591454  1
  O2-  O418  1  0.52697771  0.94379389  0.47026463  1
  O2-  O419  1  0.60282884  0.90616391  0.81337527  1
  O2-  O420  1  0.83196977  0.16193486  0.14466134  1
  O2-  O421  1  0.82866276  0.16874317  0.48235138  1
  O2-  O422  1  0.83187703  0.17621692  0.81641571  1
  O2-  O423  1  0.83390699  0.42116177  0.14083609  1
  O2-  O424  1  0.84531841  0.42366293  0.48132854  1
  O2-  O425  1  0.82934686  0.42005577  0.80999217  1
  O2-  O426  1  0.83207177  0.64538072  0.13570841  1
  O2-  O427  1  0.83415960  0.65885868  0.47566943  1
  O2-  O428  1  0.83730185  0.67435918  0.81169549  1
  O2-  O429  1  0.83207243  0.92495285  0.14817028  1
  O2-  O430  1  0.82925378  0.92199348  0.47308068  1
  O2-  O431  1  0.80774289  0.91524325  0.81526508  1
  O2-  O432  1  0.17322599  0.10806644  0.17546035  1
  O2-  O433  1  0.16189482  0.09783590  0.51853040  1
  O2-  O434  1  0.17680142  0.08537244  0.84982216  1
  O2-  O435  1  0.17399011  0.34380082  0.19235589  1
  O2-  O436  1  0.20004752  0.36393979  0.49940871  1
  O2-  O437  1  0.16991155  0.33907874  0.85260956  1
  O2-  O438  1  0.17870499  0.59674061  0.20878556  1
  O2-  O439  1  0.16436272  0.57161532  0.51117229  1
  O2-  O440  1  0.17007334  0.58868954  0.85842494  1
  O2-  O441  1  0.16451071  0.82666733  0.18703617  1
  O2-  O442  1  0.20882752  0.81951527  0.51836383  1
  O2-  O443  1  0.14234541  0.84168766  0.84819438  1
  O2-  O444  1  0.42430939  0.07541185  0.18506777  1
  O2-  O445  1  0.43094177  0.08322910  0.53457538  1
  O2-  O446  1  0.42514416  0.08754418  0.86610010  1
  O2-  O447  1  0.43322861  0.36213026  0.19395053  1
  O2-  O448  1  0.42139072  0.33197274  0.53528995  1
  O2-  O449  1  0.40777333  0.33465058  0.84237863  1
  O2-  O450  1  0.42123747  0.58883924  0.18592387  1
  O2-  O451  1  0.40237571  0.55864620  0.50121689  1
  O2-  O452  1  0.43019203  0.59583028  0.85952233  1
  O2-  O453  1  0.41528015  0.83027430  0.18573958  1
  O2-  O454  1  0.36443039  0.77422326  0.54678412  1
  O2-  O455  1  0.44013502  0.83024427  0.85319320  1
  O2-  O456  1  0.66585738  0.08213224  0.18505554  1
  O2-  O457  1  0.66534570  0.09224851  0.52765174  1
  O2-  O458  1  0.66663845  0.07847246  0.85674417  1
  O2-  O459  1  0.67119305  0.33902666  0.18398378  1
  O2-  O460  1  0.69363788  0.37634786  0.54429751  1
  O2-  O461  1  0.65920544  0.33508767  0.85214024  1
  O2-  O462  1  0.67306748  0.58651676  0.18434630  1
  O2-  O463  1  0.67223058  0.57845494  0.52963809  1
  O2-  O464  1  0.67202206  0.59490239  0.85219470  1
  O2-  O465  1  0.66746664  0.83657996  0.18728787  1
  O2-  O466  1  0.69109545  0.77013611  0.52991891  1
  O2-  O467  1  0.64122794  0.86019140  0.84361289  1
  O2-  O468  1  0.92795295  0.09489372  0.18539132  1
  O2-  O469  1  0.91745095  0.09034465  0.51980364  1
  O2-  O470  1  0.89462106  0.07669418  0.86989590  1
  O2-  O471  1  0.85187620  0.30221997  0.20568094  1
  O2-  O472  1  0.92193835  0.33144265  0.52510649  1
  O2-  O473  1  0.91531763  0.34272813  0.85259796  1
  O2-  O474  1  0.92015716  0.58440707  0.17283310  1
  O2-  O475  1  0.92940971  0.58827350  0.51908638  1
  O2-  O476  1  0.91576136  0.58645283  0.85232640  1
  O2-  O477  1  0.90232375  0.83466014  0.19539786  1
  O2-  O478  1  0.86646085  0.81215310  0.52972889  1
  O2-  O479  1  0.90397939  0.83950213  0.85690437  1
  O2-  O480  1  0.16852668  0.08772034  0.30458597  1
  O2-  O481  1  0.19045202  0.17044531  0.63121561  1
  O2-  O482  1  0.16842711  0.09926186  0.97697781  1
  O2-  O483  1  0.18356947  0.34683961  0.31647560  1
  O2-  O484  1  0.19599309  0.32103125  0.61920666  1
  O2-  O485  1  0.16882045  0.34404485  0.97603535  1
  O2-  O486  1  0.18798617  0.59250698  0.27487169  1
  O2-  O487  1  0.18259621  0.58361723  0.62692950  1
  O2-  O488  1  0.17143951  0.58963259  0.98371184  1
  O2-  O489  1  0.16607934  0.83315065  0.31058057  1
  O2-  O490  1  0.23069721  0.78042733  0.63183948  1
  O2-  O491  1  0.16933467  0.83644243  0.97393503  1
  O2-  O492  1  0.42513337  0.08155443  0.30923689  1
  O2-  O493  1  0.41806022  0.07822708  0.65026728  1
  O2-  O494  1  0.42481014  0.08074687  0.98757115  1
  O2-  O495  1  0.42292337  0.34657826  0.31834908  1
  O2-  O496  1  0.40757982  0.31820914  0.64830591  1
  O2-  O497  1  0.42249589  0.33755965  0.99553862  1
  O2-  O498  1  0.41997201  0.58435081  0.30921954  1
  O2-  O499  1  0.39945183  0.56223664  0.61653220  1
  O2-  O500  1  0.42139114  0.58912589  0.97896208  1
  O2-  O501  1  0.41739961  0.83309254  0.30741224  1
  O2-  O502  1  0.46169018  0.87925144  0.63196629  1
  O2-  O503  1  0.41825684  0.82540898  0.97738352  1
  O2-  O504  1  0.67625192  0.09419170  0.30815350  1
  O2-  O505  1  0.67588890  0.08795910  0.65004421  1
  O2-  O506  1  0.66620674  0.08455511  0.98170146  1
  O2-  O507  1  0.67264714  0.33472230  0.31099624  1
  O2-  O508  1  0.66147982  0.33027908  0.65441061  1
  O2-  O509  1  0.66783958  0.33924816  0.97603150  1
  O2-  O510  1  0.66293415  0.56757432  0.30741526  1
  O2-  O511  1  0.69385012  0.59612733  0.66423754  1
  O2-  O512  1  0.66484925  0.58614863  0.97723158  1
  O2-  O513  1  0.67108439  0.86576224  0.31748322  1
  O2-  O514  1  0.67936344  0.82589789  0.64008101  1
  O2-  O515  1  0.66385143  0.82453976  0.98718952  1
  O2-  O516  1  0.92590740  0.09750119  0.30914683  1
  O2-  O517  1  0.90887156  0.07316136  0.64376473  1
  O2-  O518  1  0.90618247  0.08458710  0.98736179  1
  O2-  O519  1  0.91487489  0.32715362  0.31414771  1
  O2-  O520  1  0.93652006  0.33754184  0.65731623  1
  O2-  O521  1  0.92148098  0.33991933  0.97956188  1
  O2-  O522  1  0.92922318  0.56364773  0.30452424  1
  O2-  O523  1  0.92457865  0.59243110  0.64123186  1
  O2-  O524  1  0.91720027  0.58753448  0.97544049  1
  O2-  O525  1  0.91460512  0.84156926  0.31213856  1
  O2-  O526  1  0.92642278  0.85068151  0.64574030  1
  O2-  O527  1  0.91419084  0.83643352  0.97909346  1
  O2-  O528  1  0.07850528  0.18031006  0.02460860  1
  O2-  O529  1  0.09023513  0.17674853  0.34916150  1
  O2-  O530  1  0.06261507  0.15833361  0.70179458  1
  O2-  O531  1  0.08952381  0.42432410  0.02591291  1
  O2-  O532  1  0.07348917  0.40737094  0.34861477  1
  O2-  O533  1  0.10528857  0.43957114  0.68572260  1
  O2-  O534  1  0.08523962  0.67110465  0.01626669  1
  O2-  O535  1  0.10143722  0.66085162  0.33809797  1
  O2-  O536  1  0.07477021  0.63276961  0.68892418  1
  O2-  O537  1  0.05428103  0.87192534  0.03828354  1
  O2-  O538  1  0.07426516  0.92064423  0.34072631  1
  O2-  O539  1  0.07943969  0.96855793  0.69212199  1
  O2-  O540  1  0.36120492  0.17289307  0.05556191  1
  O2-  O541  1  0.34301338  0.17599977  0.32498392  1
  O2-  O542  1  0.31953948  0.13532373  0.68935827  1
  O2-  O543  1  0.33633455  0.42348901  0.01881785  1
  O2-  O544  1  0.34622372  0.43374725  0.35954194  1
  O2-  O545  1  0.34074303  0.41426694  0.68720627  1
  O2-  O546  1  0.33469551  0.66331645  0.02522690  1
  O2-  O547  1  0.33672723  0.66687597  0.34227821  1
  O2-  O548  1  0.33926226  0.65758714  0.68459969  1
  O2-  O549  1  0.33109021  0.90918086  0.01826974  1
  O2-  O550  1  0.33485069  0.91646110  0.34606816  1
  O2-  O551  1  0.34818564  0.91604682  0.69608796  1
  O2-  O552  1  0.59254733  0.17438519  0.02238546  1
  O2-  O553  1  0.59235300  0.17062737  0.35087256  1
  O2-  O554  1  0.58477125  0.16437413  0.69270254  1
  O2-  O555  1  0.58894831  0.42212210  0.02196888  1
  O2-  O556  1  0.58993691  0.41110005  0.36028603  1
  O2-  O557  1  0.56571542  0.40673505  0.68504849  1
  O2-  O558  1  0.58500628  0.66556988  0.02452330  1
  O2-  O559  1  0.56927631  0.64100676  0.35475337  1
  O2-  O560  1  0.59569450  0.67280599  0.69994474  1
  O2-  O561  1  0.58033330  0.91561404  0.02048356  1
  O2-  O562  1  0.57512670  0.93221457  0.35228096  1
  O2-  O563  1  0.61133825  0.91975834  0.68740302  1
  O2-  O564  1  0.83125199  0.17392738  0.02285328  1
  O2-  O565  1  0.83753891  0.16833461  0.35880194  1
  O2-  O566  1  0.83829550  0.16263647  0.69085537  1
  O2-  O567  1  0.83462707  0.42180667  0.01606605  1
  O2-  O568  1  0.83842426  0.41228739  0.35787493  1
  O2-  O569  1  0.82275562  0.42527187  0.67987612  1
  O2-  O570  1  0.83005292  0.66928809  0.01353250  1
  O2-  O571  1  0.81395055  0.66931592  0.35077543  1
  O2-  O572  1  0.86084419  0.69018894  0.69019682  1
  O2-  O573  1  0.83334392  0.91999834  0.02651045  1
  O2-  O574  1  0.84209911  0.93650181  0.35002052  1
  O2-  O575  1  0.83197877  0.91471576  0.69308526  1
