# generated using pymatgen
data_H2O
_symmetry_space_group_name_H-M   'P 1'
_cell_length_a   17.98978419
_cell_length_b   17.98968862
_cell_length_c   22.01195046
_cell_angle_alpha   90.02214612
_cell_angle_beta   89.96275274
_cell_angle_gamma   120.00695558
_symmetry_Int_Tables_number   1
_chemical_formula_structural   H2O
_chemical_formula_sum   'H384 O192'
_cell_volume   6168.90697994
_cell_formula_units_Z   192
loop_
 _symmetry_equiv_pos_site_id
 _symmetry_equiv_pos_as_xyz
  1  'x, y, z'
loop_
 _atom_type_symbol
 _atom_type_oxidation_number
  H+  1.0
  O2-  -2.0
loop_
 _atom_site_type_symbol
 _atom_site_label
 _atom_site_symmetry_multiplicity
 _atom_site_fract_x
 _atom_site_fract_y
 _atom_site_fract_z
 _atom_site_occupancy
  H+  H0  1  0.91343609  0.02706031  0.98840584  1
  H+  H1  1  0.45511201  0.92302712  0.28132973  1
  H+  H2  1  0.42497051  0.75611983  -0.05348001  1
  H+  H3  1  0.65707252  0.86993292  1.00457179  1
  H+  H4  1  0.23470716  0.62182269  0.68163481  1
  H+  H5  1  0.10887972  0.21822059  0.83033111  1
  H+  H6  1  0.97765279  0.37203431  0.32858548  1
  H+  H7  1  0.12002652  0.89620748  0.99520888  1
  H+  H8  1  0.06834223  0.40923428  0.07153973  1
  H+  H9  1  0.62535206  0.88510380  0.16552583  1
  H+  H10  1  0.37133150  0.89320659  0.34009589  1
  H+  H11  1  0.63326821  0.35550817  -0.00961393  1
  H+  H12  1  0.32831672  0.41773548  0.43819821  1
  H+  H13  1  0.10956700  0.13783296  0.34645523  1
  H+  H14  1  0.34607264  0.69171035  0.01840269  1
  H+  H15  1  0.86604200  0.71258924  1.03058992  1
  H+  H16  1  0.10013622  0.74824784  0.47770169  1
  H+  H17  1  0.81043546  0.13506322  0.01007442  1
  H+  H18  1  0.92988155  0.59429211  0.60427650  1
  H+  H19  1  0.07310749  0.16302112  0.73603796  1
  H+  H20  1  0.83733117  0.87778255  0.33525376  1
  H+  H21  1  0.85936277  0.46604608  0.00786537  1
  H+  H22  1  0.85966321  0.62570739  0.12398546  1
  H+  H23  1  0.36221894  0.71324696  0.16686988  1
  H+  H24  1  0.62323671  0.15228316  0.34499137  1
  H+  H25  1  0.52542806  0.90324330  0.33755329  1
  H+  H26  1  0.71955824  0.11480732  0.83095149  1
  H+  H27  1  0.38798016  0.27960996  0.33077263  1
  H+  H28  1  0.03105755  0.63097986  0.83566826  1
  H+  H29  1  0.62499847  0.97506438  0.17220156  1
  H+  H30  1  0.01742059  0.91607863  0.35708434  1
  H+  H31  1  0.86736740  0.13587871  0.49215946  1
  H+  H32  1  0.90210164  0.61262611  0.84692570  1
  H+  H33  1  0.23612873  0.86112602  0.32042613  1
  H+  H34  1  0.50867146  0.13056538  0.82214934  1
  H+  H35  1  0.35974453  0.13542650  0.16201914  1
  H+  H36  1  0.52206961  0.13341973  0.19566291  1
  H+  H37  1  0.01935133  0.39817587  0.49427712  1
  H+  H38  1  0.95752261  0.34075827  0.66540000  1
  H+  H39  1  0.36548246  0.27264219  0.84130880  1
  H+  H40  1  0.39522124  0.37258621  0.50897527  1
  H+  H41  1  0.16987871  0.25734794  0.97619185  1
  H+  H42  1  0.21983540  0.88158665  0.97348739  1
  H+  H43  1  0.35259300  0.86401580  0.65460720  1
  H+  H44  1  0.61190311  0.46070552  1.00971117  1
  H+  H45  1  0.59387685  0.93997316  0.68008118  1
  H+  H46  1  0.44437000  0.86017695  0.97731372  1
  H+  H47  1  0.03943183  0.15505537  0.16745049  1
  H+  H48  1  0.58021603  0.16648497  0.04311493  1
  H+  H49  1  0.89510276  0.52018462  0.51199120  1
  H+  H50  1  0.38418502  0.60483228  0.30336379  1
  H+  H51  1  0.47999259  0.62103235  0.84184015  1
  H+  H52  1  0.12879501  0.27326938  0.66773930  1
  H+  H53  1  0.62372722  0.86084056  0.50337811  1
  H+  H54  1  0.77749741  0.13234007  0.49648174  1
  H+  H55  1  0.13845852  1.04663004  0.89210770  1
  H+  H56  1  0.06900079  0.40543544  0.73633425  1
  H+  H57  1  0.78269831  0.89677083  0.15165493  1
  H+  H58  1  0.76714859  0.89577475  0.67010774  1
  H+  H59  1  0.77068172  0.65108252  0.48634548  1
  H+  H60  1  0.12402491  0.11380344  0.65893705  1
  H+  H61  1  0.38263023  0.75627939  0.94818260  1
  H+  H62  1  0.93477601  0.87210995  0.87255441  1
  H+  H63  1  0.86569793  0.37312807  0.49969799  1
  H+  H64  1  0.35124598  0.73362791  0.50676074  1
  H+  H65  1  0.62633289  0.66870686  0.83557718  1
  H+  H66  1  0.58010976  0.43920274  0.42463540  1
  H+  H67  1  0.64010958  0.52666122  0.30077178  1
  H+  H68  1  0.71937451  0.59963106  0.13444501  1
  H+  H69  1  0.88063583  0.27024906  0.84278163  1
  H+  H70  1  0.85592296  0.13982363  0.82853867  1
  H+  H71  1  0.12269416  0.89198748  0.16195176  1
  H+  H72  1  0.10111660  -0.02360624  0.65938644  1
  H+  H73  1  0.36383478  0.14646579  0.34398069  1
  H+  H74  1  0.36291597  0.72660809  0.82162028  1
  H+  H75  1  0.97555663  0.10615915  0.50697065  1
  H+  H76  1  0.54368116  0.53739442  0.38680203  1
  H+  H77  1  0.64906894  0.73807229  0.32159608  1
  H+  H78  1  0.38631904  0.60146997  0.00066889  1
  H+  H79  1  0.13226399  0.51962576  0.16890907  1
  H+  H80  1  0.88270447  0.02134291  0.50675502  1
  H+  H81  1  0.56272376  0.90680860  0.02694982  1
  H+  H82  1  0.41568341  0.63779583  0.67054990  1
  H+  H83  1  0.38482580  0.59783108  0.16263769  1
  H+  H84  1  0.10021732  0.37876804  0.67587092  1
  H+  H85  1  0.83281616  0.67687270  0.42724241  1
  H+  H86  1  0.13899463  0.85715235  0.62804962  1
  H+  H87  1  0.67725165  0.57868559  0.20092014  1
  H+  H88  1  0.97556569  0.85998794  0.64672798  1
  H+  H89  1  0.71155416  0.02922228  0.55398599  1
  H+  H90  1  0.87373461  0.39992048  0.33519773  1
  H+  H91  1  0.72474860  0.35802244  0.98931207  1
  H+  H92  1  0.36087822  0.69519690  0.36275836  1
  H+  H93  1  0.45320972  0.57808423  0.32124968  1
  H+  H94  1  0.57468863  0.91961326  0.43551008  1
  H+  H95  1  0.10876621  0.46923714  0.83085189  1
  H+  H96  1  0.65518936  0.07503581  0.57739646  1
  H+  H97  1  0.07439750  0.42871053  0.40203072  1
  H+  H98  1  0.21756348  0.36309809  0.66635556  1
  H+  H99  1  0.71771390  0.87942898  0.84728082  1
  H+  H100  1  0.37010770  0.38300699  0.00751683  1
  H+  H101  1  0.87830483  0.35679190  -0.00389912  1
  H+  H102  1  0.84412004  0.76082094  0.31503860  1
  H+  H103  1  0.13956967  0.86912680  0.82353888  1
  H+  H104  1  0.12328226  0.14748532  0.16974983  1
  H+  H105  1  0.87206141  0.76581246  0.49524341  1
  H+  H106  1  0.46321856  0.86702912  0.50195159  1
  H+  H107  1  0.66853249  0.62569680  0.28673187  1
  H+  H108  1  0.21276688  0.89205666  0.49111387  1
  H+  H109  1  0.73870743  0.37183260  0.53796375  1
  H+  H110  1  0.61381623  0.74765926  0.82919061  1
  H+  H111  1  0.88842452  0.02798955  0.33217503  1
  H+  H112  1  0.61426900  0.86314151  0.67579498  1
  H+  H113  1  0.11618685  0.38605054  0.14662891  1
  H+  H114  1  0.79068159  0.88732746  0.00165895  1
  H+  H115  1  0.04872961  0.90118527  0.82082881  1
  H+  H116  1  0.46401520  0.35884349  0.67348261  1
  H+  H117  1  0.47489204  0.86832536  0.82742569  1
  H+  H118  1  0.64620181  0.29397673  0.33486631  1
  H+  H119  1  0.87439200  0.64494717  0.33115726  1
  H+  H120  1  0.47445123  0.12737336  -0.02328391  1
  H+  H121  1  1.01826653  0.38086442  0.83373302  1
  H+  H122  1  0.35911377  0.97363033  0.67497315  1
  H+  H123  1  0.61347362  -0.00604689  0.34780358  1
  H+  H124  1  0.73712382  0.12943472  0.33387124  1
  H+  H125  1  0.97578236  0.11974796  0.83695736  1
  H+  H126  1  0.06202983  0.13140640  -0.03049019  1
  H+  H127  1  0.22675102  0.11408093  0.18107738  1
  H+  H128  1  0.59542085  0.46516574  0.14766599  1
  H+  H129  1  0.62503058  0.63166939  0.67109422  1
  H+  H130  1  0.38164515  0.36860948  0.66643710  1
  H+  H131  1  0.87336891  0.14269449  0.16932218  1
  H+  H132  1  0.89109510  0.76784009  0.64756925  1
  H+  H133  1  -0.02626246  0.61495817  0.50475600  1
  H+  H134  1  0.11234354  0.20235584  0.50242579  1
  H+  H135  1  0.81534918  0.66828939  0.83333396  1
  H+  H136  1  0.99080338  0.63560999  0.66419468  1
  H+  H137  1  0.47396219  0.35654330  -0.00700894  1
  H+  H138  1  0.15772742  0.28110921  0.14510895  1
  H+  H139  1  0.63271434  0.34255835  0.82741761  1
  H+  H140  1  0.92787708  0.12149006  -0.00355678  1
  H+  H141  1  0.14398741  0.77883963  0.65641598  1
  H+  H142  1  0.10746262  0.66384005  0.49050713  1
  H+  H143  1  0.77334927  0.91232273  0.34047546  1
  H+  H144  1  0.35212755  0.34662686  0.17438173  1
  H+  H145  1  0.22438987  0.34040461  0.51231256  1
  H+  H146  1  0.97235716  0.89527555  0.34452209  1
  H+  H147  1  0.54460124  0.50262759  0.86812011  1
  H+  H148  1  0.89691863  0.53792670  0.31077660  1
  H+  H149  1  0.60956769  0.22415179  0.82661083  1
  H+  H150  1  0.86195007  0.47009059  0.83402929  1
  H+  H151  1  0.64820702  0.91023351  0.31652558  1
  H+  H152  1  0.77980556  0.62715967  0.32904777  1
  H+  H153  1  0.60840144  0.09504888  0.97673146  1
  H+  H154  1  0.06702429  0.48637696  0.65620542  1
  H+  H155  1  0.50395713  0.63421635  0.51279932  1
  H+  H156  1  0.64215386  0.76808554  0.17046216  1
  H+  H157  1  0.11791912  0.73067888  0.33040323  1
  H+  H158  1  0.26134576  0.09620286  0.49568389  1
  H+  H159  1  0.36621114  0.47044766  0.00633894  1
  H+  H160  1  0.13800139  0.14185579  0.92697095  1
  H+  H161  1  0.35534403  -0.01344030  0.48930456  1
  H+  H162  1  0.09651155  0.63111087  0.67731345  1
  H+  H163  1  0.13930126  0.77138535  0.16595158  1
  H+  H164  1  0.91438299  0.59271571  0.21353878  1
  H+  H165  1  0.34944751  0.37843636  0.34264914  1
  H+  H166  1  0.86740355  0.34019256  0.66463150  1
  H+  H167  1  0.63683204  0.02313753  0.98778276  1
  H+  H168  1  0.87736832  0.88418986  0.00939041  1
  H+  H169  1  0.86956341  0.14521428  0.34150896  1
  H+  H170  1  0.12571586  0.99494522  0.81346582  1
  H+  H171  1  0.12797022  0.08533229  0.50672789  1
  H+  H172  1  0.64245113  0.76393583  0.65265972  1
  H+  H173  1  0.85524296  1.00132279  0.83187580  1
  H+  H174  1  0.27780209  0.15164910  0.34585152  1
  H+  H175  1  0.89171283  0.27685395  0.17647090  1
  H+  H176  1  0.13342129  0.36009399  0.84623209  1
  H+  H177  1  0.46323784  0.18973150  0.56277850  1
  H+  H178  1  0.25868410  0.89362412  0.67115805  1
  H+  H179  1  0.58792098  0.16819112  0.24883380  1
  H+  H180  1  0.40141133  0.33160077  0.90022226  1
  H+  H181  1  0.88404031  0.36081923  0.84560984  1
  H+  H182  1  0.02298031  0.63850417  0.15088642  1
  H+  H183  1  0.48265567  0.84933685  0.17561385  1
  H+  H184  1  0.40636165  0.07900495  0.24102694  1
  H+  H185  1  0.63550329  0.62765831  0.51242292  1
  H+  H186  1  0.01400409  0.13962720  0.67605772  1
  H+  H187  1  0.22861398  0.60525916  0.83706387  1
  H+  H188  1  0.61617416  0.73698593  0.00696300  1
  H+  H189  1  0.62219704  0.77105790  0.50461557  1
  H+  H190  1  0.97886503  0.59639264  0.99788895  1
  H+  H191  1  1.00289122  0.37794613  1.00670442  1
  H+  H192  1  0.63240173  0.72068058  0.29013975  1
  H+  H193  1  0.23234265  0.85564005  0.16856082  1
  H+  H194  1  0.21382945  0.11424308  0.66268142  1
  H+  H195  1  0.38644521  0.02680449  0.33416182  1
  H+  H196  1  0.12427762  0.04288796  1.00664050  1
  H+  H197  1  0.89055521  0.59864010  1.00433888  1
  H+  H198  1  -0.01533834  0.62582731  0.31032157  1
  H+  H199  1  0.84650976  0.93341931  0.09483983  1
  H+  H200  1  0.24900690  0.13196346  0.83454493  1
  H+  H201  1  0.39006631  0.61761084  0.84065205  1
  H+  H202  1  0.20600755  0.35039490  0.33702925  1
  H+  H203  1  0.42903008  0.83190076  0.23789749  1
  H+  H204  1  0.63768348  0.54160308  0.49921675  1
  H+  H205  1  0.73485912  0.38402089  0.33412423  1
  H+  H206  1  0.22547844  0.62143641  0.31369776  1
  H+  H207  1  0.72556911  0.59251432  1.00182138  1
  H+  H208  1  0.32021036  0.92346966  0.76626489  1
  H+  H209  1  0.67162356  0.37713684  0.62231089  1
  H+  H210  1  0.76309096  0.88333865  0.49270125  1
  H+  H211  1  0.64649461  0.11264757  0.19024734  1
  H+  H212  1  0.61712630  0.23009725  -0.01272669  1
  H+  H213  1  0.51848379  0.62402565  0.14966908  1
  H+  H214  1  0.10748541  0.61412322  0.00474703  1
  H+  H215  1  0.53865035  0.16094806  0.50338440  1
  H+  H216  1  0.87379528  0.62369886  0.68003951  1
  H+  H217  1  0.39405579  0.12863441  0.51369581  1
  H+  H218  1  0.84433342  0.21288550  0.67422178  1
  H+  H219  1  0.88504515  0.52368133  0.16031628  1
  H+  H220  1  0.10372261  0.12462037  0.83235078  1
  H+  H221  1  0.50945773  0.96216636  0.97742141  1
  H+  H222  1  0.11024716  0.63485202  0.15659455  1
  H+  H223  1  0.39005492  0.02085792  0.18188277  1
  H+  H224  1  0.10225194  0.22385137  0.34909972  1
  H+  H225  1  0.61315579  0.40374279  0.33417848  1
  H+  H226  1  0.65019951  0.28626369  0.53655509  1
  H+  H227  1  0.15294423  0.90593698  0.34342342  1
  H+  H228  1  0.52044533  0.39764263  0.32764813  1
  H+  H229  1  0.92934408  0.78491281  0.85193691  1
  H+  H230  1  0.52602289  0.41218991  0.48821437  1
  H+  H231  1  0.35883218  0.47990319  0.67985428  1
  H+  H232  1  -0.01824678  0.85185479  0.01617922  1
  H+  H233  1  0.35682127  0.14717912  1.00049386  1
  H+  H234  1  0.34030469  0.46069666  0.33583253  1
  H+  H235  1  0.20477286  0.62649630  0.52876028  1
  H+  H236  1  0.89631417  0.03653308  0.17568368  1
  H+  H237  1  0.10833555  0.48007227  0.33884062  1
  H+  H238  1  0.34213670  0.22163353  0.67595214  1
  H+  H239  1  0.60482890  0.12852321  0.81975397  1
  H+  H240  1  0.35509661  0.38481967  0.83127840  1
  H+  H241  1  0.37597853  0.87289072  0.17247710  1
  H+  H242  1  0.77238879  0.37893132  0.83186364  1
  H+  H243  1  0.76273774  0.37316588  0.68555086  1
  H+  H244  1  0.11543417  0.72435621  0.83132372  1
  H+  H245  1  0.60599113  -0.02236602  0.81840677  1
  H+  H246  1  0.61109880  0.62752429  0.14448220  1
  H+  H247  1  0.34176672  0.13777096  0.82558449  1
  H+  H248  1  0.16040673  0.04023866  0.34089519  1
  H+  H249  1  0.35811295  0.89313154  0.82037958  1
  H+  H250  1  0.88811540  0.26779638  0.50923743  1
  H+  H251  1  0.84701956  0.91052203  0.81710209  1
  H+  H252  1  0.63057714  0.54889429  0.83099031  1
  H+  H253  1  0.71039242  0.09294749  0.67963662  1
  H+  H254  1  0.52177248  0.06218021  0.63386142  1
  H+  H255  1  0.37263076  0.61323279  0.52730802  1
  H+  H256  1  0.87803617  0.02865970  0.66028194  1
  H+  H257  1  0.22529425  0.36510984  0.84024799  1
  H+  H258  1  0.47438424  0.11792777  0.33304255  1
  H+  H259  1  0.24483838  0.58777030  0.67194249  1
  H+  H260  1  0.86072167  0.38453044  0.16187353  1
  H+  H261  1  0.22131391  0.58273644  0.99820426  1
  H+  H262  1  0.60728248  0.97026155  0.49921154  1
  H+  H263  1  0.35970483  0.47721950  0.83078105  1
  H+  H264  1  0.38164872  0.04290870  0.97855292  1
  H+  H265  1  0.62525229  0.87079206  0.84769126  1
  H+  H266  1  0.35391797  0.89674408  0.49312449  1
  H+  H267  1  0.02313885  0.38092779  0.16029478  1
  H+  H268  1  0.57158863  0.41271770  0.81624191  1
  H+  H269  1  0.77197536  0.38688428  0.16342800  1
  H+  H270  1  0.10476034  0.46614973  1.00450852  1
  H+  H271  1  0.12032146  0.35473611  0.33732809  1
  H+  H272  1  0.38440990  0.02828627  0.82957440  1
  H+  H273  1  0.07733379  0.15018631  0.44029974  1
  H+  H274  1  0.47747366  0.78167760  0.69955837  1
  H+  H275  1  0.57123276  0.39353291  0.06449778  1
  H+  H276  1  0.48624668  0.61063135  0.66637393  1
  H+  H277  1  0.00280477  0.51704396  0.63263594  1
  H+  H278  1  0.41569551  0.09443145  0.88611021  1
  H+  H279  1  0.35394382  0.22163757  0.16114642  1
  H+  H280  1  0.89694426  0.88026743  0.16834196  1
  H+  H281  1  0.63938815  0.28230487  0.19153110  1
  H+  H282  1  0.13825242  1.02708841  0.18415134  1
  H+  H283  1  0.51972849  0.64130694  1.00502175  1
  H+  H284  1  0.37041998  0.92217778  0.00906541  1
  H+  H285  1  0.18538791  0.33402911  -0.07096065  1
  H+  H286  1  0.26809111  0.62682653  0.16652215  1
  H+  H287  1  0.73882560  0.62195172  0.65042380  1
  H+  H288  1  0.16102975  0.07369683  0.57087925  1
  H+  H289  1  0.93019262  0.81311667  0.95730741  1
  H+  H290  1  0.17532724  0.83341561  0.26087763  1
  H+  H291  1  0.66270435  0.55820562  0.94441406  1
  H+  H292  1  0.66719220  0.83598343  0.93926286  1
  H+  H293  1  0.67306714  0.35465043  0.24072196  1
  H+  H294  1  0.84905700  0.17227770  0.10773015  1
  H+  H295  1  0.92299306  0.09308299  0.89906212  1
  H+  H296  1  0.32322836  0.64022918  0.08059498  1
  H+  H297  1  0.09516168  0.92916983  0.10663435  1
  H+  H298  1  0.42117072  0.58593615  0.93648981  1
  H+  H299  1  0.14292815  0.61025038  0.84402499  1
  H+  H300  1  0.15364822  0.84717897  0.91851549  1
  H+  H301  1  0.92038446  0.57401599  0.90685427  1
  H+  H302  1  0.67836868  0.83860169  0.22523677  1
  H+  H303  1  0.97821092  0.11629808  0.33335838  1
  H+  H304  1  0.08017353  0.91568503  0.71549169  1
  H+  H305  1  0.22343915  0.86391129  0.83463945  1
  H+  H306  1  0.87203728  0.86136657  0.50431592  1
  H+  H307  1  0.92224877  0.34024355  0.23391986  1
  H+  H308  1  0.30718033  0.16525281  0.73547979  1
  H+  H309  1  0.91320623  0.08867319  0.60058598  1
  H+  H310  1  0.90961975  0.32203985  0.57130812  1
  H+  H311  1  0.97891884  0.87177563  0.17982822  1
  H+  H312  1  0.72647524  0.96395348  0.27250373  1
  H+  H313  1  0.13543795  0.61914932  0.32107594  1
  H+  H314  1  0.13229959  0.95583981  0.52401542  1
  H+  H315  1  0.62230936  0.93353478  0.08238447  1
  H+  H316  1  0.58017104  0.90297061  0.76765493  1
  H+  H317  1  0.88844077  0.28244898  0.32861839  1
  H+  H318  1  0.44828483  0.36022900  0.16873728  1
  H+  H319  1  0.67913650  0.09437026  0.27433449  1
  H+  H320  1  0.30500873  0.93914633  0.04939315  1
  H+  H321  1  0.91193671  0.32965997  0.93525455  1
  H+  H322  1  0.73732932  0.11630305  0.17800993  1
  H+  H323  1  0.60112955  0.24714903  0.10177039  1
  H+  H324  1  0.86087088  0.44571895  0.39270467  1
  H+  H325  1  0.78694232  0.35913777  0.45841643  1
  H+  H326  1  0.11823247  0.58072545  0.56893536  1
  H+  H327  1  0.32414391  0.13997011  0.43842456  1
  H+  H328  1  0.44774579  0.06755926  0.59871991  1
  H+  H329  1  0.39400461  0.76194345  0.66952140  1
  H+  H330  1  0.59000797  0.63139770  0.36159319  1
  H+  H331  1  0.59909440  0.66846280  0.73010981  1
  H+  H332  1  0.40714957  0.57996365  0.58184931  1
  H+  H333  1  0.40816969  0.83203988  0.88189099  1
  H+  H334  1  0.08340888  0.65472992  0.06064342  1
  H+  H335  1  0.07930777  0.67272241  0.38975243  1
  H+  H336  1  0.83897356  0.17332074  0.40142182  1
  H+  H337  1  0.58065990  0.66977941  0.07116064  1
  H+  H338  1  0.66235031  0.82671915  0.59441739  1
  H+  H339  1  0.61703318  0.14468513  0.49516632  1
  H+  H340  1  0.14917256  0.93036571  0.41141468  1
  H+  H341  1  0.33115125  0.91842779  0.39794066  1
  H+  H342  1  0.41342294  0.55758465  0.21401305  1
  H+  H343  1  0.67793466  0.59269996  0.59072029  1
  H+  H344  1  0.82486133  0.16485583  0.76740236  1
  H+  H345  1  0.55070650  0.64258515  0.45068451  1
  H+  H346  1  0.35617075  0.67736850  0.76313473  1
  H+  H347  1  0.25599612  0.36243951  -0.00646640  1
  H+  H348  1  0.43010569  0.34858986  0.56694501  1
  H+  H349  1  0.35379593  0.47514021  0.49909513  1
  H+  H350  1  0.59045938  0.18326287  0.40167030  1
  H+  H351  1  0.17210446  0.09108879  0.27825603  1
  H+  H352  1  0.85105460  0.12801432  0.67444969  1
  H+  H353  1  0.09590665  0.49496049  0.49163501  1
  H+  H354  1  0.82545765  0.91365665  0.43434590  1
  H+  H355  1  0.81164452  0.93992216  0.73251311  1
  H+  H356  1  0.44362210  0.91903690  0.63322744  1
  H+  H357  1  0.37349252  0.74603642  0.30427026  1
  H+  H358  1  0.30510059  0.43734036  0.14241411  1
  H+  H359  1  0.86952536  0.81997026  0.25591523  1
  H+  H360  1  0.90841866  0.82668202  0.56328417  1
  H+  H361  1  0.40376222  0.33201054  0.26835570  1
  H+  H362  1  0.88369810  0.23168415  0.00919694  1
  H+  H363  1  0.16362167  0.31346062  0.57013944  1
  H+  H364  1  0.39911465  0.84433491  0.55930203  1
  H+  H365  1  0.82467216  0.40486768  0.06642780  1
  H+  H366  1  0.09232400  0.67347476  0.74002037  1
  H+  H367  1  0.32731743  0.41784500  0.73733639  1
  H+  H368  1  0.30300176  0.65250914  0.46322920  1
  H+  H369  1  0.61878038  0.41263122  0.75523510  1
  H+  H370  1  0.65935819  0.32059204  0.89391080  1
  H+  H371  1  0.37953325  0.27184383  -0.00361451  1
  H+  H372  1  0.36985529  0.91543267  0.11304824  1
  H+  H373  1  0.15826175  0.57903845  0.22881441  1
  H+  H374  1  0.64857242  0.07303508  0.88528931  1
  H+  H375  1  0.59277153  0.37816949  0.16275597  1
  H+  H376  1  0.92256386  0.09017516  0.23859636  1
  H+  H377  1  0.86160934  0.67400328  0.77131260  1
  H+  H378  1  0.16997486  0.56336159  0.93390955  1
  H+  H379  1  0.82844663  0.39530705  0.73969613  1
  H+  H380  1  0.66603177  0.48704844  0.66085002  1
  H+  H381  1  0.55496550  0.23649240  0.10192961  1
  H+  H382  1  0.32759353  0.16826713  0.06351924  1
  H+  H383  1  0.78484850  0.57294896  0.71231774  1
  O2-  O384  1  0.09853532  0.18085683  0.15137412  1
  O2-  O385  1  0.07639220  0.14213795  0.48539232  1
  O2-  O386  1  0.07430240  0.15839647  0.81560056  1
  O2-  O387  1  0.08039692  0.41341313  0.13877870  1
  O2-  O388  1  0.07464478  0.43717186  0.47417279  1
  O2-  O389  1  0.07806035  0.40816921  0.81719786  1
  O2-  O390  1  0.08516919  0.66887674  0.13953660  1
  O2-  O391  1  0.07576743  0.68691015  0.46715400  1
  O2-  O392  1  0.09099033  0.66262333  0.81957079  1
  O2-  O393  1  0.09388202  0.92529793  0.15134807  1
  O2-  O394  1  0.11546004  0.89386311  0.53219445  1
  O2-  O395  1  0.10178152  0.93398366  0.79702428  1
  O2-  O396  1  0.32690788  0.16158304  0.14541611  1
  O2-  O397  1  0.31655682  0.10757963  0.47662832  1
  O2-  O398  1  0.30974624  0.16745981  0.81631560  1
  O2-  O399  1  0.27066654  0.38426914  0.16591168  1
  O2-  O400  1  0.33144788  0.41619146  0.48338157  1
  O2-  O401  1  0.32638191  0.41791429  0.81481197  1
  O2-  O402  1  0.32898498  0.65285968  0.15144953  1
  O2-  O403  1  0.31743002  0.66840884  0.50566617  1
  O2-  O404  1  0.33956526  0.66666521  0.80671781  1
  O2-  O405  1  0.35119651  0.90851944  0.15520330  1
  O2-  O406  1  0.32323770  0.92642232  0.47693419  1
  O2-  O407  1  0.32715258  0.92484370  0.81227925  1
  O2-  O408  1  0.58567878  0.16455928  0.20453779  1
  O2-  O409  1  0.59675460  0.18393361  0.48359854  1
  O2-  O410  1  0.57428568  0.16197326  0.80893127  1
  O2-  O411  1  0.55947720  0.40156865  0.14254307  1
  O2-  O412  1  0.58143299  0.45471443  0.46763466  1
  O2-  O413  1  0.58290532  0.37623654  0.78931688  1
  O2-  O414  1  0.58034358  0.66046476  0.13540711  1
  O2-  O415  1  0.56263288  0.66312425  0.49307587  1
  O2-  O416  1  0.59018674  0.68640907  0.81435262  1
  O2-  O417  1  0.59500981  0.91686345  0.15302761  1
  O2-  O418  1  0.56844285  0.91192141  0.48067765  1
  O2-  O419  1  0.57512992  0.91381218  0.81240289  1
  O2-  O420  1  0.84119457  0.17136909  0.15242527  1
  O2-  O421  1  0.83622700  0.16654774  0.47842020  1
  O2-  O422  1  0.82307695  0.16735703  0.81333864  1
  O2-  O423  1  0.83009239  0.41300689  0.14427074  1
  O2-  O424  1  0.83463937  0.40312343  0.48183505  1
  O2-  O425  1  0.83387271  0.40947250  0.81928330  1
  O2-  O426  1  0.82239238  0.64764195  0.10645365  1
  O2-  O427  1  0.83150586  0.68413676  0.47208850  1
  O2-  O428  1  0.87227700  0.68778846  0.81653531  1
  O2-  O429  1  0.84328898  0.93603789  0.13994821  1
  O2-  O430  1  0.82473378  0.91194384  0.48019258  1
  O2-  O431  1  0.81428841  0.94016001  0.81623093  1
  O2-  O432  1  0.16852460  0.08718387  0.19995509  1
  O2-  O433  1  0.16106964  0.06051054  0.52617246  1
  O2-  O434  1  0.15220904  0.08257067  0.85595943  1
  O2-  O435  1  0.18722898  0.34581300  0.13446904  1
  O2-  O436  1  0.16547494  0.30043337  0.52672551  1
  O2-  O437  1  0.16704128  0.33249934  0.85996152  1
  O2-  O438  1  0.16253044  0.58027107  0.18315132  1
  O2-  O439  1  0.14176936  0.60118876  0.52735226  1
  O2-  O440  1  0.17115398  0.57641791  0.85664513  1
  O2-  O441  1  0.17228999  0.83172730  0.18206945  1
  O2-  O442  1  0.15103416  0.86989368  0.48070925  1
  O2-  O443  1  0.16051872  0.83341122  0.84440359  1
  O2-  O444  1  0.41361898  0.08091750  0.19560969  1
  O2-  O445  1  0.44771132  0.13867396  0.53849609  1
  O2-  O446  1  0.41878376  0.09120270  0.84065742  1
  O2-  O447  1  0.39075205  0.32540654  0.18774480  1
  O2-  O448  1  0.43426676  0.35147225  0.52221823  1
  O2-  O449  1  0.39846586  0.33395669  0.85515672  1
  O2-  O450  1  0.41594939  0.56564097  0.16924418  1
  O2-  O451  1  0.40347098  0.58162229  0.53636572  1
  O2-  O452  1  0.42083222  0.58900078  0.85848941  1
  O2-  O453  1  0.42280887  0.81840626  0.19143545  1
  O2-  O454  1  0.40082741  0.83852025  0.51376876  1
  O2-  O455  1  0.41102102  0.83621500  0.83777373  1
  O2-  O456  1  0.67863789  0.08152251  0.19664194  1
  O2-  O457  1  0.68328431  0.05761851  0.53496433  1
  O2-  O458  1  0.65574367  0.08221075  0.84051201  1
  O2-  O459  1  0.66852010  0.34563431  0.19572505  1
  O2-  O460  1  0.67968614  0.34472433  0.55366880  1
  O2-  O461  1  0.66265145  0.31411489  0.84901919  1
  O2-  O462  1  0.66326926  0.57482453  0.15671279  1
  O2-  O463  1  0.67156362  0.60082737  0.51939740  1
  O2-  O464  1  0.60429991  0.51586564  0.86777392  1
  O2-  O465  1  0.67547770  0.83012540  0.18057759  1
  O2-  O466  1  0.65671706  0.83258389  0.51736548  1
  O2-  O467  1  0.65766236  0.84213457  0.86301226  1
  O2-  O468  1  0.92466141  0.09566176  0.19315106  1
  O2-  O469  1  0.91376315  0.08225209  0.52038766  1
  O2-  O470  1  0.91512036  0.09451925  0.85404092  1
  O2-  O471  1  0.92298641  0.33906939  0.18823102  1
  O2-  O472  1  0.91387653  0.32756328  0.52568730  1
  O2-  O473  1  0.91332460  0.32902261  0.86117892  1
  O2-  O474  1  0.91326926  0.58674582  0.16826553  1
  O2-  O475  1  0.92430588  0.57700037  0.53080731  1
  O2-  O476  1  0.92368658  0.57469228  0.86125924  1
  O2-  O477  1  0.91664600  0.84348685  0.18766331  1
  O2-  O478  1  0.90348765  0.82955824  0.51589993  1
  O2-  O479  1  0.96161378  0.83714744  0.87777836  1
  O2-  O480  1  0.17594048  0.09784528  0.32347825  1
  O2-  O481  1  0.15383613  0.08318016  0.64409470  1
  O2-  O482  1  0.09328509  -0.00957594  0.98219431  1
  O2-  O483  1  0.14514332  0.31911107  0.32403266  1
  O2-  O484  1  0.15723003  0.33353287  0.65157361  1
  O2-  O485  1  0.19167240  0.32231406  0.97408526  1
  O2-  O486  1  0.16356131  0.58676739  0.30468488  1
  O2-  O487  1  0.06369686  0.53482554  0.63581773  1
  O2-  O488  1  0.16318661  0.55541587  0.97921296  1
  O2-  O489  1  0.17515151  0.83104073  0.30620557  1
  O2-  O490  1  0.17713880  0.83326878  0.63345943  1
  O2-  O491  1  0.15842673  0.85516997  0.96389329  1
  O2-  O492  1  0.41444058  0.08715614  0.31792682  1
  O2-  O493  1  0.45777902  0.03921120  0.63355241  1
  O2-  O494  1  0.41438433  0.10194966  0.96169397  1
  O2-  O495  1  0.41451640  0.33922412  0.31293833  1
  O2-  O496  1  0.41036289  0.33646833  0.65116095  1
  O2-  O497  1  0.41319480  0.33305334  0.97979044  1
  O2-  O498  1  0.40240168  0.56222168  0.29558153  1
  O2-  O499  1  0.42435056  0.58953259  0.65754108  1
  O2-  O500  1  0.42541201  0.58322905  0.98188017  1
  O2-  O501  1  0.43770010  0.86868370  0.30212435  1
  O2-  O502  1  0.39834006  0.85789261  0.63276888  1
  O2-  O503  1  0.46108858  0.91311734  1.00019484  1
  O2-  O504  1  0.67567987  0.10084786  0.31922007  1
  O2-  O505  1  0.64694321  0.05289309  0.67427180  1
  O2-  O506  1  0.60977690  0.04440345  0.95856797  1
  O2-  O507  1  0.67396862  0.35442650  0.32010708  1
  O2-  O508  1  0.66446739  0.37446597  0.66829118  1
  O2-  O509  1  0.66523564  0.32787642  0.97179982  1
  O2-  O510  1  0.68345511  0.58122684  0.27941509  1
  O2-  O511  1  0.67860408  0.58724057  0.63687425  1
  O2-  O512  1  0.66488278  0.56096889  0.98891627  1
  O2-  O513  1  0.69351989  0.90713420  0.29068855  1
  O2-  O514  1  0.66638311  0.82482968  0.63978744  1
  O2-  O515  1  0.67490614  0.83129888  0.98410426  1
  O2-  O516  1  0.91739441  0.08825492  0.31649262  1
  O2-  O517  1  0.91178476  0.09068977  0.64585202  1
  O2-  O518  1  0.94682065  0.08723055  0.97277834  1
  O2-  O519  1  0.91681134  0.34200945  0.31169131  1
  O2-  O520  1  0.89917839  0.31159545  0.64668081  1
  O2-  O521  1  0.91351749  0.33036868  0.98149897  1
  O2-  O522  1  0.92457067  0.59706608  0.29378431  1
  O2-  O523  1  0.93094021  0.59759870  0.64991411  1
  O2-  O524  1  0.91573554  0.56712642  0.98424383  1
  O2-  O525  1  0.83365355  0.80311495  0.29386430  1
  O2-  O526  1  0.91468610  0.82506005  0.63036069  1
  O2-  O527  1  0.92089316  0.81508686  1.00154375  1
  O2-  O528  1  0.12545740  0.15744753  -0.03259478  1
  O2-  O529  1  0.07353618  0.16116467  0.36277812  1
  O2-  O530  1  0.07477715  0.16882343  0.69084392  1
  O2-  O531  1  0.06516840  0.40658180  0.02392278  1
  O2-  O532  1  0.07398139  0.42158175  0.35603091  1
  O2-  O533  1  0.06292822  0.40192940  0.69126696  1
  O2-  O534  1  0.07550412  0.64326288  0.01616779  1
  O2-  O535  1  0.08329614  0.66922973  0.34449465  1
  O2-  O536  1  0.09271891  0.67992367  0.69498792  1
  O2-  O537  1  0.08841190  0.92245650  0.02205416  1
  O2-  O538  1  0.14996529  0.94935298  0.36939893  1
  O2-  O539  1  0.07326889  0.91413010  0.67074974  1
  O2-  O540  1  0.32707839  0.17533354  0.01884561  1
  O2-  O541  1  0.33907572  0.18051536  0.36094269  1
  O2-  O542  1  0.30809408  0.16187249  0.69034720  1
  O2-  O543  1  0.33461559  0.41026970  0.02056156  1
  O2-  O544  1  0.31772970  0.40649717  0.35900691  1
  O2-  O545  1  0.32785300  0.41833363  0.69174754  1
  O2-  O546  1  0.32107799  0.63335709  0.03422156  1
  O2-  O547  1  0.34694458  0.68631584  0.31964196  1
  O2-  O548  1  0.41795937  0.73295842  0.69428644  1
  O2-  O549  1  0.32538575  0.93931256  0.00831808  1
  O2-  O550  1  0.33622393  0.92045653  0.35280344  1
  O2-  O551  1  0.31495768  0.92042939  0.69502025  1
  O2-  O552  1  0.58129249  0.16621117  -0.00124365  1
  O2-  O553  1  0.59050492  0.18209642  0.35624749  1
  O2-  O554  1  0.62471780  0.09291624  0.62458340  1
  O2-  O555  1  0.57823827  0.39713208  0.01931865  1
  O2-  O556  1  0.58224616  0.43648641  0.33988804  1
  O2-  O557  1  0.68620189  0.45969382  0.69153556  1
  O2-  O558  1  0.58066431  0.67498934  0.02273570  1
  O2-  O559  1  0.53559581  0.58640641  0.37817730  1
  O2-  O560  1  0.59412903  0.66205708  0.68548236  1
  O2-  O561  1  0.62437122  0.93394411  0.03617808  1
  O2-  O562  1  0.58541425  0.93156380  0.35763441  1
  O2-  O563  1  0.57651399  0.88204518  0.69684672  1
  O2-  O564  1  0.86700143  0.17378804  0.02687626  1
  O2-  O565  1  0.83945728  0.17642143  0.35581620  1
  O2-  O566  1  0.81721014  0.15356736  0.69257744  1
  O2-  O567  1  0.82559269  0.40386180  0.02083247  1
  O2-  O568  1  0.84794970  0.43599699  0.34905122  1
  O2-  O569  1  0.82114952  0.38470651  0.69535879  1
  O2-  O570  1  0.83322378  0.64883356  0.03997933  1
  O2-  O571  1  0.83546805  0.66383217  0.34929201  1
  O2-  O572  1  0.82865931  0.63300365  0.70400926  1
  O2-  O573  1  0.85112501  0.92127737  0.01555994  1
  O2-  O574  1  0.82819723  0.92200815  0.35832181  1
  O2-  O575  1  0.82298773  0.93602751  0.68924574  1
