# generated using pymatgen
data_H2O
_symmetry_space_group_name_H-M   'P 1'
_cell_length_a   17.98409929
_cell_length_b   17.98991492
_cell_length_c   21.99412674
_cell_angle_alpha   89.98732998
_cell_angle_beta   90.01836916
_cell_angle_gamma   120.02940410
_symmetry_Int_Tables_number   1
_chemical_formula_structural   H2O
_chemical_formula_sum   'H384 O192'
_cell_volume   6160.64774379
_cell_formula_units_Z   192
loop_
 _symmetry_equiv_pos_site_id
 _symmetry_equiv_pos_as_xyz
  1  'x, y, z'
loop_
 _atom_type_symbol
 _atom_type_oxidation_number
  H+  1.0
  O2-  -2.0
loop_
 _atom_site_type_symbol
 _atom_site_label
 _atom_site_symmetry_multiplicity
 _atom_site_fract_x
 _atom_site_fract_y
 _atom_site_fract_z
 _atom_site_occupancy
  H+  H0  1  0.87867635  0.51642897  0.51012846  1
  H+  H1  1  0.37363601  0.59522327  0.64025925  1
  H+  H2  1  0.01591821  0.88887617  0.17279930  1
  H+  H3  1  0.24469513  0.13565536  0.65890942  1
  H+  H4  1  0.61991023  0.38712222  0.81536121  1
  H+  H5  1  0.85929200  0.71904614  0.33954482  1
  H+  H6  1  0.47315415  0.35797559  0.32928461  1
  H+  H7  1  0.35852688  0.72269754  -0.00440883  1
  H+  H8  1  0.21762616  0.61954621  0.67478857  1
  H+  H9  1  0.39098887  0.27513535  0.17408649  1
  H+  H10  1  0.73045837  0.10237448  0.65939886  1
  H+  H11  1  0.37783723  0.02303731  0.18222055  1
  H+  H12  1  0.37373401  0.23223089  0.50332881  1
  H+  H13  1  0.13769259  0.10411503  0.17689032  1
  H+  H14  1  0.83219129  0.10895683  0.83496471  1
  H+  H15  1  0.13335773  0.01378783  0.17893248  1
  H+  H16  1  0.62046002  0.87183129  0.66030859  1
  H+  H17  1  0.47932780  0.61222146  0.83253819  1
  H+  H18  1  0.14989886  0.07906927  0.47344011  1
  H+  H19  1  0.34090564  0.97062950  0.82243001  1
  H+  H20  1  0.66781206  0.59405432  0.88982565  1
  H+  H21  1  0.40781799  0.13005574  0.54070618  1
  H+  H22  1  0.16992387  0.11665470  0.60968340  1
  H+  H23  1  0.60853469  0.82358967  1.00822850  1
  H+  H24  1  0.53252818  0.67962807  0.68560314  1
  H+  H25  1  0.87949492  0.37121573  0.34716330  1
  H+  H26  1  0.84168853  0.95326439  -0.01606297  1
  H+  H27  1  0.76901637  0.38104776  0.49415884  1
  H+  H28  1  0.26434217  0.64521452  0.15252909  1
  H+  H29  1  0.49011585  0.63898328  0.99187016  1
  H+  H30  1  0.30309382  0.13065555  0.50580602  1
  H+  H31  1  0.60729394  0.36645574  1.02458305  1
  H+  H32  1  0.38669525  0.58789399  0.33032890  1
  H+  H33  1  0.61588617  0.71168344  0.82015344  1
  H+  H34  1  0.89176991  0.75115705  0.84804450  1
  H+  H35  1  0.11010903  0.22962318  0.68294280  1
  H+  H36  1  0.72808338  0.83897383  0.83450779  1
  H+  H37  1  0.85957772  0.14389105  0.13703275  1
  H+  H38  1  0.75322149  0.36511019  1.00601556  1
  H+  H39  1  0.88817864  0.51955339  0.66451475  1
  H+  H40  1  0.37115722  1.02216986  0.33387728  1
  H+  H41  1  0.35646662  0.89745746  0.33787368  1
  H+  H42  1  0.35288374  0.60332710  0.17962368  1
  H+  H43  1  0.97397529  0.36980778  0.96920105  1
  H+  H44  1  0.52768670  0.89255764  0.34114499  1
  H+  H45  1  0.38650251  0.85846160  0.98030107  1
  H+  H46  1  0.14039536  0.85708983  0.66508114  1
  H+  H47  1  0.86403103  0.39893463  0.15960641  1
  H+  H48  1  0.35408803  0.73252682  0.15661377  1
  H+  H49  1  -0.02427240  0.11522320  0.65996164  1
  H+  H50  1  0.88538631  0.27267901  0.50879555  1
  H+  H51  1  0.50567740  0.89075999  0.82817139  1
  H+  H52  1  0.61174802  -0.05052342  1.00831535  1
  H+  H53  1  0.11130517  0.47466244  0.68326002  1
  H+  H54  1  0.82526437  0.15274457  0.73488269  1
  H+  H55  1  0.60882562  0.71865221  0.33314895  1
  H+  H56  1  0.38812315  0.49627686  0.00834409  1
  H+  H57  1  0.41844430  0.84805497  0.26437343  1
  H+  H58  1  0.46402302  0.62348000  0.49709459  1
  H+  H59  1  0.15901817  0.96049154  0.47639761  1
  H+  H60  1  1.01645638  0.87776461  0.54731812  1
  H+  H61  1  0.37916444  0.46002921  0.66668128  1
  H+  H62  1  0.26194393  0.40980726  0.99042911  1
  H+  H63  1  0.88028428  0.26631224  0.34055923  1
  H+  H64  1  0.61094450  0.14182267  0.82711891  1
  H+  H65  1  0.86180817  0.72074114  0.01156769  1
  H+  H66  1  0.86649305  0.97998445  0.66756675  1
  H+  H67  1  0.10998904  0.10146862  0.84040026  1
  H+  H68  1  0.86439118  0.72189304  0.67888181  1
  H+  H69  1  0.26924120  0.72005707  0.43306904  1
  H+  H70  1  0.73836092  0.38441951  0.65924597  1
  H+  H71  1  0.47217997  0.85352402  0.98588119  1
  H+  H72  1  0.27838505  0.91137721  0.66717045  1
  H+  H73  1  0.52156454  0.12621078  0.51779455  1
  H+  H74  1  0.12767160  0.76255426  0.66703669  1
  H+  H75  1  0.84355741  0.88224438  0.49032355  1
  H+  H76  1  0.11056775  0.05226887  0.49285962  1
  H+  H77  1  -0.10515267  0.36797331  0.86746364  1
  H+  H78  1  0.41831987  0.33306238  0.23424081  1
  H+  H79  1  0.37134656  -0.01025532  1.01231655  1
  H+  H80  1  0.10209732  0.85563763  0.02587910  1
  H+  H81  1  0.72607082  0.35008427  0.19049178  1
  H+  H82  1  0.37835407  0.11436084  0.33469960  1
  H+  H83  1  0.57867322  0.85446298  0.15505239  1
  H+  H84  1  0.10567792  0.62539195  0.00858674  1
  H+  H85  1  0.63370197  0.26934177  0.51048849  1
  H+  H86  1  0.22034728  0.61564409  0.50686317  1
  H+  H87  1  0.87399435  0.89546974  0.67522769  1
  H+  H88  1  0.11233538  0.38979970  0.14664929  1
  H+  H89  1  0.12990461  0.61031445  0.84431392  1
  H+  H90  1  0.61729287  0.47440721  0.82293248  1
  H+  H91  1  0.50565036  0.12290355  0.35520504  1
  H+  H92  1  0.87432512  0.47294626  0.83428393  1
  H+  H93  1  0.86255343  0.97892440  0.33216755  1
  H+  H94  1  0.86133350  0.98048046  0.48935082  1
  H+  H95  1  0.74438672  0.10682330  0.82418278  1
  H+  H96  1  0.39424757  0.62192730  0.99188191  1
  H+  H97  1  0.12752575  0.27271635  0.50891847  1
  H+  H98  1  0.58806984  0.16658650  0.76320648  1
  H+  H99  1  0.48502514  0.37111488  0.65981302  1
  H+  H100  1  0.87037500  0.38567137  0.67656110  1
  H+  H101  1  0.52825366  0.38377889  0.01584542  1
  H+  H102  1  0.43336311  0.34643077  0.93726703  1
  H+  H103  1  0.22384954  0.60979197  0.99388688  1
  H+  H104  1  0.76994936  0.13583747  0.49545712  1
  H+  H105  1  0.86083206  0.64897874  0.16401484  1
  H+  H106  1  0.83791065  0.74769047  0.50768377  1
  H+  H107  1  0.97953264  0.87341537  0.32429040  1
  H+  H108  1  0.67144214  0.82918609  0.56557351  1
  H+  H109  1  0.10395812  0.13260583  0.33711192  1
  H+  H110  1  0.37472100  0.23958469  0.01138518  1
  H+  H111  1  0.48556063  0.37158150  0.84329692  1
  H+  H112  1  0.89476019  0.10466764  0.95501387  1
  H+  H113  1  0.27787586  0.38879913  0.82428692  1
  H+  H114  1  0.10443075  0.97172111  0.33420627  1
  H+  H115  1  0.37311068  0.11147541  0.00083658  1
  H+  H116  1  0.09586468  0.21759048  0.83616155  1
  H+  H117  1  0.63680574  0.53142341  0.66032354  1
  H+  H118  1  0.39369543  0.92473809  0.80480541  1
  H+  H119  1  0.61452561  0.89009314  0.49806009  1
  H+  H120  1  1.01503938  0.63311356  0.83651779  1
  H+  H121  1  0.96234337  0.59872101  0.99857326  1
  H+  H122  1  0.60346990  0.46507142  0.34157299  1
  H+  H123  1  0.13531461  0.20010166  -0.00917882  1
  H+  H124  1  0.11429226  0.38694385  0.68262041  1
  H+  H125  1  0.27652800  0.37475393  0.15273429  1
  H+  H126  1  0.21260963  0.58838119  0.32052084  1
  H+  H127  1  0.16185354  0.58172631  0.93490306  1
  H+  H128  1  0.84528368  0.37583741  -0.00627095  1
  H+  H129  1  0.63275993  0.68670382  0.99848898  1
  H+  H130  1  0.88586964  0.11280842  0.66012615  1
  H+  H131  1  0.01087970  0.61951689  0.49902684  1
  H+  H132  1  0.22150915  0.11191509  0.33621410  1
  H+  H133  1  0.71937136  0.61007495  0.17191678  1
  H+  H134  1  0.10771887  0.72591625  0.15953069  1
  H+  H135  1  0.72433392  0.86746714  0.50151950  1
  H+  H136  1  0.75788058  0.86546706  0.00215781  1
  H+  H137  1  0.98013663  0.84147225  0.84897683  1
  H+  H138  1  0.38334319  0.04287121  0.64494921  1
  H+  H139  1  0.88027959  0.60172121  0.84324287  1
  H+  H140  1  0.38387537  0.85464249  0.50373854  1
  H+  H141  1  0.15588791  0.57572243  0.22840731  1
  H+  H142  1  -0.03311666  0.11091201  0.31555589  1
  H+  H143  1  0.63407135  0.02208137  0.33803812  1
  H+  H144  1  0.97755453  0.35834371  0.66597355  1
  H+  H145  1  0.88200494  0.60605123  0.66280378  1
  H+  H146  1  0.27300321  0.63932399  0.83769112  1
  H+  H147  1  -0.02490533  0.35509617  0.34336523  1
  H+  H148  1  0.85966701  0.38266949  0.49910598  1
  H+  H149  1  0.22059581  0.35659648  0.51163708  1
  H+  H150  1  0.84780087  0.62561854  1.01061080  1
  H+  H151  1  0.07568345  0.65793822  0.06736670  1
  H+  H152  1  0.15464641  1.00140792  0.69012013  1
  H+  H153  1  0.77083982  0.89560041  0.15537254  1
  H+  H154  1  0.22780611  0.36187947  0.66566054  1
  H+  H155  1  0.26041257  0.88174954  0.34157670  1
  H+  H156  1  0.63216425  0.35715011  0.50230009  1
  H+  H157  1  0.36623108  0.13842073  0.16430003  1
  H+  H158  1  0.15801675  0.81387417  0.56870684  1
  H+  H159  1  0.58566958  -0.04365819  0.15772599  1
  H+  H160  1  0.63805710  0.62142960  0.65856160  1
  H+  H161  1  0.60613239  0.23570561  0.01631985  1
  H+  H162  1  0.63306256  0.95717100  0.81133796  1
  H+  H163  1  0.12320664  -0.00826750  0.96634368  1
  H+  H164  1  0.38616565  0.49405626  0.34265486  1
  H+  H165  1  0.13007284  0.86402620  0.47589733  1
  H+  H166  1  0.88871436  0.28945579  0.15357690  1
  H+  H167  1  0.74026244  0.65418081  0.98345809  1
  H+  H168  1  0.86204965  0.22055204  0.67883904  1
  H+  H169  1  0.39937548  0.37595606  0.84581648  1
  H+  H170  1  0.61514461  0.48691842  0.16190546  1
  H+  H171  1  -0.11564692  0.85125546  -0.00464358  1
  H+  H172  1  0.36455082  0.48124331  0.82527127  1
  H+  H173  1  0.46379611  0.11460459  1.00545484  1
  H+  H174  1  0.64147079  0.75930006  0.65514779  1
  H+  H175  1  0.12525915  0.76015674  0.33168330  1
  H+  H176  1  0.41255439  0.63908493  0.63412560  1
  H+  H177  1  0.26835017  0.37905574  0.34310031  1
  H+  H178  1  0.87924433  0.11427635  0.50553108  1
  H+  H179  1  0.60480782  0.46668159  0.49544273  1
  H+  H180  1  0.35568128  0.46637884  0.49239479  1
  H+  H181  1  0.52137157  0.39121587  0.16319796  1
  H+  H182  1  0.11269382  0.38607956  0.50151104  1
  H+  H183  1  0.01485952  0.63201509  0.68098440  1
  H+  H184  1  0.33765160  0.41599058  0.73191152  1
  H+  H185  1  0.63225030  0.60517078  0.50907937  1
  H+  H186  1  -0.12549186  0.77881509  0.17604219  1
  H+  H187  1  0.25121139  0.17376155  0.98509997  1
  H+  H188  1  0.97503559  0.37435375  0.16420899  1
  H+  H189  1  0.56180389  0.89770947  0.06884307  1
  H+  H190  1  0.11898410  0.75860296  0.84783116  1
  H+  H191  1  0.53171247  0.87569103  0.66319725  1
  H+  H192  1  0.38244153  0.35478007  0.32806524  1
  H+  H193  1  0.33002676  0.08074129  0.84732164  1
  H+  H194  1  0.64344948  0.25637636  0.18877834  1
  H+  H195  1  0.48596768  0.59707156  0.33733525  1
  H+  H196  1  0.10899886  0.39631746  -0.00237200  1
  H+  H197  1  0.37454079  0.23924500  0.66733880  1
  H+  H198  1  0.63447646  0.85825480  0.33399289  1
  H+  H199  1  0.13478469  0.75415956  -0.00060321  1
  H+  H200  1  0.86871604  0.46852395  0.34288587  1
  H+  H201  1  0.91565978  0.57674834  0.26959853  1
  H+  H202  1  0.08392545  0.99513089  -0.02796382  1
  H+  H203  1  0.13661199  0.35787189  0.83933803  1
  H+  H204  1  0.57421799  0.11765551  0.01904891  1
  H+  H205  1  0.26770747  0.86435291  0.49833135  1
  H+  H206  1  0.22536119  0.84417661  0.99894278  1
  H+  H207  1  0.95475912  0.11711363  0.15967994  1
  H+  H208  1  0.63135699  0.60514936  0.82681108  1
  H+  H209  1  0.02748969  0.38509957  0.84134666  1
  H+  H210  1  0.75396055  0.09947048  0.98019158  1
  H+  H211  1  0.13315665  0.52560038  0.16541616  1
  H+  H212  1  0.35550942  0.51846268  0.18443984  1
  H+  H213  1  0.90945705  0.57737527  0.56934070  1
  H+  H214  1  0.72291816  0.60243508  0.32673672  1
  H+  H215  1  0.11757030  0.27576484  0.00224153  1
  H+  H216  1  0.35945727  0.22569244  0.34565841  1
  H+  H217  1  0.95958722  0.10272192  0.85827406  1
  H+  H218  1  0.10338853  0.63130846  0.68378386  1
  H+  H219  1  0.38753910  0.78643807  0.66492145  1
  H+  H220  1  0.34721297  0.65618933  0.68957128  1
  H+  H221  1  0.00646410  0.14103036  0.48865230  1
  H+  H222  1  0.27687159  0.13613820  0.16371284  1
  H+  H223  1  0.88117744  0.59982382  0.32869167  1
  H+  H224  1  0.35165489  0.74112710  0.47098074  1
  H+  H225  1  0.37510816  0.86310579  0.17997841  1
  H+  H226  1  0.40349844  0.37595635  0.99689840  1
  H+  H227  1  0.12608104  0.85845870  0.18181661  1
  H+  H228  1  0.12974323  0.86110168  0.85191212  1
  H+  H229  1  0.86911720  0.02676382  0.16136929  1
  H+  H230  1  -0.02834028  0.62030449  0.17385164  1
  H+  H231  1  0.10618645  0.62447677  0.34035940  1
  H+  H232  1  0.63910799  0.83509660  0.83288161  1
  H+  H233  1  0.63573032  0.10842634  0.51251636  1
  H+  H234  1  0.13144596  0.26770010  0.32722057  1
  H+  H235  1  -0.00020504  0.89474732  0.52284093  1
  H+  H236  1  0.73331922  0.85383209  0.65396567  1
  H+  H237  1  0.12189825  0.84784602  0.32633605  1
  H+  H238  1  0.85259575  0.96293075  0.83129601  1
  H+  H239  1  0.25106475  0.12803415  0.81424054  1
  H+  H240  1  0.77136558  0.63731370  0.67272745  1
  H+  H241  1  0.67353491  0.09970614  1.00554054  1
  H+  H242  1  0.47234482  0.36287443  0.50772133  1
  H+  H243  1  0.78882640  0.38245415  0.82434378  1
  H+  H244  1  0.09325089  0.13965186  0.48174958  1
  H+  H245  1  -0.01449153  0.86164829  0.69332249  1
  H+  H246  1  0.85223619  0.13129859  0.33689193  1
  H+  H247  1  0.59593461  0.75490510  0.48550409  1
  H+  H248  1  0.32342637  0.91967428  0.11017294  1
  H+  H249  1  0.12926062  0.74843032  0.51195777  1
  H+  H250  1  0.64981759  0.31521641  0.28504738  1
  H+  H251  1  0.62346014  0.40636242  0.66648687  1
  H+  H252  1  0.53183678  0.13132666  0.66283048  1
  H+  H253  1  0.88347778  0.87716243  0.32734772  1
  H+  H254  1  0.64704613  0.27255927  0.82314335  1
  H+  H255  1  0.87882663  0.22730621  -0.02933568  1
  H+  H256  1  0.61626857  0.09906109  0.18072617  1
  H+  H257  1  0.10927631  0.37831011  0.34552026  1
  H+  H258  1  0.97487614  0.36162423  0.50995606  1
  H+  H259  1  0.13211987  0.52151404  0.84354509  1
  H+  H260  1  0.34966939  0.67231913  0.30432913  1
  H+  H261  1  0.37940400  0.59487968  0.53545286  1
  H+  H262  1  0.61130985  0.97728270  0.49592951  1
  H+  H263  1  0.78708689  0.16201399  0.11077007  1
  H+  H264  1  0.51975127  0.73926782  0.44229257  1
  H+  H265  1  0.61105999  0.26059842  0.34586911  1
  H+  H266  1  0.36978099  0.38872010  0.15862713  1
  H+  H267  1  0.51272051  0.57948936  0.64634138  1
  H+  H268  1  0.12791598  0.60326003  0.51382747  1
  H+  H269  1  0.11350258  0.97250676  0.84345323  1
  H+  H270  1  0.91483164  0.08631059  0.56378999  1
  H+  H271  1  0.58226365  0.91443357  0.40363456  1
  H+  H272  1  0.12151763  0.50602175  0.32657658  1
  H+  H273  1  0.69952017  0.08854716  0.19064703  1
  H+  H274  1  0.51778344  0.12805674  0.17118993  1
  H+  H275  1  0.11365696  0.47556821  0.50026590  1
  H+  H276  1  0.76708005  0.62315615  0.82546553  1
  H+  H277  1  0.63568800  0.60475311  0.32782094  1
  H+  H278  1  0.28823992  0.02112974  0.55171943  1
  H+  H279  1  0.37071405  0.14930173  0.65826371  1
  H+  H280  1  0.56973027  0.00876576  0.86078894  1
  H+  H281  1  0.82579957  0.91758993  0.09302146  1
  H+  H282  1  0.04600879  0.09794976  0.11124439  1
  H+  H283  1  0.87084482  0.51101004  0.99611173  1
  H+  H284  1  0.82840600  0.16496863  0.43533482  1
  H+  H285  1  0.46421299  0.86129256  0.17230967  1
  H+  H286  1  0.26049427  0.88578402  0.16808762  1
  H+  H287  1  0.85588983  0.62746901  0.49337700  1
  H+  H288  1  0.33316727  0.17662043  0.06916719  1
  H+  H289  1  0.33041705  0.67133969  0.05920945  1
  H+  H290  1  0.90236204  0.08187876  0.25817776  1
  H+  H291  1  0.10245724  0.47934409  0.00042615  1
  H+  H292  1  0.84926697  0.41802797  0.73792296  1
  H+  H293  1  0.47438341  0.85571169  0.50164503  1
  H+  H294  1  0.96218565  0.85032487  0.62416225  1
  H+  H295  1  0.82945038  0.65912227  0.39856315  1
  H+  H296  1  0.87684742  0.87027488  0.17294678  1
  H+  H297  1  0.16593346  0.32786083  0.26999629  1
  H+  H298  1  0.05898680  0.15998616  0.77718653  1
  H+  H299  1  0.35708643  0.37835497  0.49763893  1
  H+  H300  1  0.82312302  0.42189196  0.10456835  1
  H+  H301  1  0.67597221  0.84533619  0.24151858  1
  H+  H302  1  0.73266058  0.71556314  0.93592475  1
  H+  H303  1  0.59768657  0.89989715  0.75156111  1
  H+  H304  1  0.32197305  0.68273465  0.75128641  1
  H+  H305  1  0.40874454  0.08406507  0.24116007  1
  H+  H306  1  0.41425950  0.94476970  0.04767460  1
  H+  H307  1  0.07718317  0.41134108  0.77653718  1
  H+  H308  1  0.01633244  0.62188505  0.34376997  1
  H+  H309  1  0.25119973  0.23147112  0.93176969  1
  H+  H310  1  0.67103408  0.07574762  0.56737497  1
  H+  H311  1  0.64459531  1.00936118  0.65527438  1
  H+  H312  1  0.38989154  0.80208904  0.32958000  1
  H+  H313  1  0.76396918  0.13367735  0.34190006  1
  H+  H314  1  0.32437425  0.90475237  0.43877069  1
  H+  H315  1  0.76246618  0.61743926  0.49049945  1
  H+  H316  1  0.59616104  0.37081768  0.34518214  1
  H+  H317  1  0.21333120  0.02711152  0.58395416  1
  H+  H318  1  0.82692987  0.67239210  0.10373844  1
  H+  H319  1  0.33723794  0.17025060  0.40740442  1
  H+  H320  1  0.72367857  0.85793371  0.33332770  1
  H+  H321  1  0.16730052  0.10232034  0.89439605  1
  H+  H322  1  0.83851315  0.41279534  0.40711066  1
  H+  H323  1  0.07513772  0.66612366  0.77644933  1
  H+  H324  1  0.11143418  0.14221466  0.68722967  1
  H+  H325  1  0.68391425  0.33912831  0.87938586  1
  H+  H326  1  0.10641922  0.63598623  0.16017432  1
  H+  H327  1  0.32409819  0.40091580  0.40586675  1
  H+  H328  1  0.16456832  0.58394208  0.61251856  1
  H+  H329  1  0.57274543  0.40946338  0.43435456  1
  H+  H330  1  0.61152369  0.11698681  0.67040816  1
  H+  H331  1  0.22665536  0.45602438  0.94831401  1
  H+  H332  1  0.15661070  0.82209615  0.23698134  1
  H+  H333  1  0.36531852  0.05534782  0.90600127  1
  H+  H334  1  0.90945039  0.84316566  0.26087567  1
  H+  H335  1  0.83086405  0.65301038  0.76871363  1
  H+  H336  1  0.15815811  0.81926928  0.91272868  1
  H+  H337  1  0.91838299  0.32878884  0.60591162  1
  H+  H338  1  0.06682593  0.16463201  0.39144567  1
  H+  H339  1  0.07407779  0.90162751  0.11417071  1
  H+  H340  1  0.07914324  0.41822531  0.08878674  1
  H+  H341  1  0.58356321  0.65716914  0.75736699  1
  H+  H342  1  0.42698625  0.59070201  0.89512595  1
  H+  H343  1  0.20994767  0.25775422  0.20933486  1
  H+  H344  1  0.08420457  0.41139465  0.40666388  1
  H+  H345  1  0.16312434  0.33074882  0.60902016  1
  H+  H346  1  0.01202370  0.85420960  0.02449817  1
  H+  H347  1  0.32189610  0.15743611  0.76226147  1
  H+  H348  1  0.21795121  0.96776883  0.70800806  1
  H+  H349  1  0.32864254  0.66332683  0.37728513  1
  H+  H350  1  0.61609902  0.29245709  0.95570068  1
  H+  H351  1  0.66150062  0.57359220  0.23127162  1
  H+  H352  1  0.58207900  0.41498907  0.09660538  1
  H+  H353  1  0.57035924  0.15249853  0.10817083  1
  H+  H354  1  0.88111072  0.53366958  0.17556796  1
  H+  H355  1  0.36279789  0.64259900  0.83071243  1
  H+  H356  1  0.34800538  0.42988504  0.06532926  1
  H+  H357  1  0.92064145  0.81700685  0.94127043  1
  H+  H358  1  0.41927471  0.82383432  0.59831489  1
  H+  H359  1  0.56572689  0.15040757  0.45134526  1
  H+  H360  1  0.64882775  0.07747278  0.27879912  1
  H+  H361  1  0.11380562  0.92639160  0.78259222  1
  H+  H362  1  0.90951402  0.57541362  0.90537681  1
  H+  H363  1  0.57738180  0.67262476  0.39580289  1
  H+  H364  1  0.45425538  0.54374312  0.58700051  1
  H+  H365  1  0.13276040  0.23832732  0.16660207  1
  H+  H366  1  0.41738620  0.33718484  0.56985474  1
  H+  H367  1  0.83114895  0.91874795  0.76618356  1
  H+  H368  1  0.83882272  0.92405393  0.39568084  1
  H+  H369  1  0.17741922  0.33938691  0.89634321  1
  H+  H370  1  0.44825930  0.87677081  0.88708973  1
  H+  H371  1  0.08254754  0.90633110  0.38977223  1
  H+  H372  1  0.39021782  0.36026260  0.66311067  1
  H+  H373  1  0.68065426  0.35545616  0.59877609  1
  H+  H374  1  0.59605034  0.12509083  0.35645598  1
  H+  H375  1  0.86683952  0.17780726  0.03305385  1
  H+  H376  1  0.65064878  0.06153913  0.90372411  1
  H+  H377  1  0.80036778  0.77549080  0.56222571  1
  H+  H378  1  0.07154637  0.64843489  0.43930927  1
  H+  H379  1  0.16867753  0.08246181  0.27353082  1
  H+  H380  1  0.33209682  0.95446860  0.72899964  1
  H+  H381  1  0.66244643  0.58098198  0.57044351  1
  H+  H382  1  0.58711496  0.42613834  0.72774843  1
  H+  H383  1  0.06874726  0.18240161  0.07611621  1
  O2-  O384  1  0.05560380  0.15552516  0.11910594  1
  O2-  O385  1  0.06658358  0.17364084  0.47014458  1
  O2-  O386  1  0.05767286  0.15705558  0.82251609  1
  O2-  O387  1  0.08475034  0.42215743  0.13431354  1
  O2-  O388  1  0.08287293  0.41562643  0.48391212  1
  O2-  O389  1  0.08489989  0.41436641  0.82190820  1
  O2-  O390  1  0.07595619  0.66565522  0.14375965  1
  O2-  O391  1  0.07208922  0.64597529  0.48462539  1
  O2-  O392  1  0.07688491  0.66749408  0.82226115  1
  O2-  O393  1  0.07691203  0.91516912  0.15998929  1
  O2-  O394  1  0.12348152  0.90814755  0.45277753  1
  O2-  O395  1  0.09470089  0.91389011  0.82590433  1
  O2-  O396  1  0.33660488  0.16965278  0.14842158  1
  O2-  O397  1  0.35883101  0.17349710  0.48813348  1
  O2-  O398  1  0.31277866  0.15071830  0.80646420  1
  O2-  O399  1  0.33645555  0.41444523  0.14086084  1
  O2-  O400  1  0.32363006  0.40496201  0.48009193  1
  O2-  O401  1  0.33807401  0.42082014  0.80970902  1
  O2-  O402  1  0.32361117  0.67580989  0.13555010  1
  O2-  O403  1  0.30413947  0.69447843  0.44437144  1
  O2-  O404  1  0.33163936  0.67368946  0.82075246  1
  O2-  O405  1  0.32245223  0.91847506  0.15519178  1
  O2-  O406  1  0.32785438  0.89624032  0.48295251  1
  O2-  O407  1  0.34527499  0.93180758  0.79111893  1
  O2-  O408  1  0.57686656  0.15112913  0.15460676  1
  O2-  O409  1  0.57723783  0.15705076  0.49646965  1
  O2-  O410  1  0.59291605  0.17972778  0.80784391  1
  O2-  O411  1  0.58158603  0.42248901  0.14644560  1
  O2-  O412  1  0.57306506  0.40675386  0.48030216  1
  O2-  O413  1  0.58608309  0.41532833  0.80495724  1
  O2-  O414  1  0.60540379  0.80542128  0.16960475  1
  O2-  O415  1  0.54631190  0.70840647  0.46010192  1
  O2-  O416  1  0.58025600  0.65046712  0.80324345  1
  O2-  O417  1  0.55000028  0.89944057  0.13905933  1
  O2-  O418  1  0.58141779  0.91606758  0.48054370  1
  O2-  O419  1  0.59820025  0.89757721  0.79750784  1
  O2-  O420  1  0.84870632  0.18340353  0.11063842  1
  O2-  O421  1  0.83130634  0.16733448  0.48073449  1
  O2-  O422  1  0.80442999  0.13442758  0.81077720  1
  O2-  O423  1  0.83057925  0.42847632  0.14899231  1
  O2-  O424  1  0.83125098  0.41335290  0.48111315  1
  O2-  O425  1  0.85304927  0.41270593  0.81995473  1
  O2-  O426  1  0.82977835  0.67863220  0.14919573  1
  O2-  O427  1  0.82238470  0.65288363  0.47507000  1
  O2-  O428  1  0.82951150  0.64996568  0.81396606  1
  O2-  O429  1  0.83093206  0.92400778  0.13812281  1
  O2-  O430  1  0.82799272  0.92241820  0.46994568  1
  O2-  O431  1  0.82820201  0.90729961  0.81025350  1
  O2-  O432  1  0.16793883  0.07627985  0.19329461  1
  O2-  O433  1  0.23711282  0.02659965  0.54402123  1
  O2-  O434  1  0.14677510  0.07721316  0.85357088  1
  O2-  O435  1  0.17839565  0.28402330  0.19235751  1
  O2-  O436  1  0.16087718  0.33040877  0.52816151  1
  O2-  O437  1  0.16628447  0.32593047  0.85255251  1
  O2-  O438  1  0.15882385  0.58400328  0.18350066  1
  O2-  O439  1  0.16576325  0.58045802  0.52865800  1
  O2-  O440  1  0.16106921  0.58142947  0.85992905  1
  O2-  O441  1  0.15776219  0.82734618  0.19160151  1
  O2-  O442  1  0.16244186  0.81029619  0.52353935  1
  O2-  O443  1  0.15179197  0.81996736  0.86642966  1
  O2-  O444  1  0.41039587  0.08435370  0.19551761  1
  O2-  O445  1  0.41317568  0.08178526  0.55904713  1
  O2-  O446  1  0.32756407  0.03156039  0.87039600  1
  O2-  O447  1  0.42011419  0.33610689  0.18856912  1
  O2-  O448  1  0.41190837  0.33421201  0.52409502  1
  O2-  O449  1  0.43120161  0.35135083  0.86624974  1
  O2-  O450  1  0.35123782  0.56149951  0.20932537  1
  O2-  O451  1  0.41404343  0.57324856  0.51690502  1
  O2-  O452  1  0.41974861  0.58627300  0.85023336  1
  O2-  O453  1  0.40527858  0.83278297  0.19464393  1
  O2-  O454  1  0.41282332  0.81960476  0.51377163  1
  O2-  O455  1  0.47276305  0.91328440  0.85054401  1
  O2-  O456  1  0.63909347  0.06265397  0.20120034  1
  O2-  O457  1  0.66841434  0.07795418  0.52137389  1
  O2-  O458  1  0.63142931  0.05605656  0.86085226  1
  O2-  O459  1  0.67295593  0.31037658  0.21227609  1
  O2-  O460  1  0.66740935  0.33247656  0.51782866  1
  O2-  O461  1  0.68245901  0.33784197  0.83517850  1
  O2-  O462  1  0.65918131  0.57366847  0.18610647  1
  O2-  O463  1  0.66093028  0.57507867  0.52418366  1
  O2-  O464  1  0.66398977  0.57817777  0.84628694  1
  O2-  O465  1  0.68569251  0.86706169  0.19889156  1
  O2-  O466  1  0.66564349  0.83547767  0.51962455  1
  O2-  O467  1  0.66693589  0.80326169  0.84827964  1
  O2-  O468  1  0.89575970  0.08779006  0.17667039  1
  O2-  O469  1  0.91233003  0.08495421  0.51808820  1
  O2-  O470  1  0.89814446  0.06729935  0.87261574  1
  O2-  O471  1  0.91379126  0.34419829  0.17570836  1
  O2-  O472  1  0.91472825  0.33234777  0.52564586  1
  O2-  O473  1  0.92850382  0.34185599  0.88565575  1
  O2-  O474  1  0.91298671  0.59366999  0.19230238  1
  O2-  O475  1  0.90888203  0.57791899  0.52364325  1
  O2-  O476  1  0.91488506  0.57622323  0.85988007  1
  O2-  O477  1  0.90347002  0.83913150  0.19351102  1
  O2-  O478  1  0.84197019  0.79851641  0.52928289  1
  O2-  O479  1  0.92514060  0.80649973  0.87002415  1
  O2-  O480  1  0.16188880  0.08118245  0.31854507  1
  O2-  O481  1  0.17947722  0.09994858  0.64989369  1
  O2-  O482  1  0.21197261  0.18251396  0.95672409  1
  O2-  O483  1  0.16519570  0.32995897  0.31477882  1
  O2-  O484  1  0.16512282  0.33222211  0.65434085  1
  O2-  O485  1  0.20768872  0.40078392  0.96812187  1
  O2-  O486  1  0.15190081  0.56562380  0.30915731  1
  O2-  O487  1  0.15850339  0.58164115  0.65746161  1
  O2-  O488  1  0.16174760  0.57910724  0.98079851  1
  O2-  O489  1  0.15541160  0.81990224  0.31473056  1
  O2-  O490  1  0.15854019  0.81932443  0.64564308  1
  O2-  O491  1  0.16622308  0.81599098  0.98383290  1
  O2-  O492  1  0.40691240  0.08264871  0.31906864  1
  O2-  O493  1  0.42424973  0.10106164  0.62473083  1
  O2-  O494  1  0.40336708  0.08062303  0.98750943  1
  O2-  O495  1  0.41248515  0.32544443  0.31176644  1
  O2-  O496  1  0.42373787  0.33476855  0.64528461  1
  O2-  O497  1  0.43039721  0.34190323  0.98382325  1
  O2-  O498  1  0.42159313  0.55815867  0.32744753  1
  O2-  O499  1  0.46753656  0.52572328  0.62571523  1
  O2-  O500  1  0.43061339  0.59728520  0.97831599  1
  O2-  O501  1  0.42439019  0.85820468  0.31095498  1
  O2-  O502  1  0.43091906  0.83696884  0.64210833  1
  O2-  O503  1  0.41502647  0.82778785  0.96450141  1
  O2-  O504  1  0.65831861  0.08266164  0.32385542  1
  O2-  O505  1  0.67158791  0.07043761  0.64121404  1
  O2-  O506  1  0.68928018  0.06548237  0.98001282  1
  O2-  O507  1  0.63773723  0.31934670  0.32904545  1
  O2-  O508  1  0.68162199  0.36929948  0.64238991  1
  O2-  O509  1  0.64205011  0.30152426  0.99589216  1
  O2-  O510  1  0.66226509  0.57171659  0.31230809  1
  O2-  O511  1  0.66954871  0.59238044  0.64362801  1
  O2-  O512  1  0.69809008  0.66121486  0.95726372  1
  O2-  O513  1  0.66316667  0.82588618  0.31920238  1
  O2-  O514  1  0.67491548  0.82095930  0.63557968  1
  O2-  O515  1  0.64184432  0.79662107  0.99200184  1
  O2-  O516  1  0.90502740  0.07846364  0.30338047  1
  O2-  O517  1  0.91712957  0.08473547  0.64164969  1
  O2-  O518  1  0.90538080  0.05875390  0.93878511  1
  O2-  O519  1  0.91328634  0.32952320  0.33062412  1
  O2-  O520  1  0.91687860  0.32703831  0.65128197  1
  O2-  O521  1  0.91395835  0.33759802  0.95196854  1
  O2-  O522  1  0.91268627  0.57033372  0.31511168  1
  O2-  O523  1  0.91577801  0.57965929  0.64738441  1
  O2-  O524  1  0.90251014  0.57245304  0.98286578  1
  O2-  O525  1  0.91470968  0.84499529  0.30880372  1
  O2-  O526  1  0.93717287  0.83850399  0.66506394  1
  O2-  O527  1  0.91531318  0.81959972  0.98722747  1
  O2-  O528  1  0.09313463  0.21439681  0.00928221  1
  O2-  O529  1  0.07143728  0.16320063  0.34614157  1
  O2-  O530  1  0.07631853  0.16855973  0.69765186  1
  O2-  O531  1  0.06924810  0.41590156  0.01127739  1
  O2-  O532  1  0.07871195  0.40783777  0.36108990  1
  O2-  O533  1  0.08121766  0.41404418  0.69828444  1
  O2-  O534  1  0.07482326  0.65622778  0.02157960  1
  O2-  O535  1  0.07719975  0.65418674  0.35869721  1
  O2-  O536  1  0.07408775  0.66247905  0.69928744  1
  O2-  O537  1  0.06566695  0.87272240  0.04824657  1
  O2-  O538  1  0.06813591  0.90932021  0.34494353  1
  O2-  O539  1  0.15586263  0.95252775  0.70971892  1
  O2-  O540  1  0.33337624  0.17874700  0.02381526  1
  O2-  O541  1  0.32626385  0.16600192  0.36271356  1
  O2-  O542  1  0.33907174  0.17546124  0.67732449  1
  O2-  O543  1  0.35167437  0.43403199  0.01968942  1
  O2-  O544  1  0.32822665  0.40534724  0.35985490  1
  O2-  O545  1  0.33234522  0.40683743  0.68678322  1
  O2-  O546  1  0.32925119  0.66383236  0.01375055  1
  O2-  O547  1  0.32752622  0.63260636  0.33862981  1
  O2-  O548  1  0.31601212  0.68405787  0.70459196  1
  O2-  O549  1  0.35885050  0.93106823  0.03030373  1
  O2-  O550  1  0.32016242  0.91796416  0.35737126  1
  O2-  O551  1  0.31198612  0.96744155  0.68735621  1
  O2-  O552  1  0.55663114  0.15511743  0.03798608  1
  O2-  O553  1  0.56326246  0.15029541  0.37529555  1
  O2-  O554  1  0.58274025  0.14689591  0.68777172  1
  O2-  O555  1  0.58554004  0.40614069  0.03628428  1
  O2-  O556  1  0.56782369  0.40651832  0.35890758  1
  O2-  O557  1  0.58718796  0.43124467  0.68229246  1
  O2-  O558  1  0.59785643  0.70945057  0.01853211  1
  O2-  O559  1  0.58069638  0.65967138  0.35214003  1
  O2-  O560  1  0.58266221  0.67238433  0.68270977  1
  O2-  O561  1  0.56799898  0.89216414  0.02261179  1
  O2-  O562  1  0.58643382  0.91413988  0.35801714  1
  O2-  O563  1  0.59349782  0.90431805  0.67738316  1
  O2-  O564  1  0.86062968  0.16957190  -0.01185671  1
  O2-  O565  1  0.82551167  0.16233563  0.35611881  1
  O2-  O566  1  0.83260659  0.15827745  0.68954607  1
  O2-  O567  1  0.81579841  0.40196268  0.01518282  1
  O2-  O568  1  0.84434567  0.40975112  0.36136837  1
  O2-  O569  1  0.84543753  0.42040260  0.69289024  1
  O2-  O570  1  0.82172757  0.65985549  0.02552409  1
  O2-  O571  1  0.83059740  0.65889273  0.35276696  1
  O2-  O572  1  0.83100318  0.66031358  0.68931639  1
  O2-  O573  1  0.81996588  0.90313053  0.01141502  1
  O2-  O574  1  0.83855196  0.91926908  0.34970588  1
  O2-  O575  1  0.83627283  0.91949084  0.68310564  1
