# generated using pymatgen
data_H2O
_symmetry_space_group_name_H-M   'P 1'
_cell_length_a   17.97864077
_cell_length_b   17.96761901
_cell_length_c   21.99281101
_cell_angle_alpha   89.93347355
_cell_angle_beta   90.03352045
_cell_angle_gamma   119.96036423
_symmetry_Int_Tables_number   1
_chemical_formula_structural   H2O
_chemical_formula_sum   'H384 O192'
_cell_volume   6155.05280681
_cell_formula_units_Z   192
loop_
 _symmetry_equiv_pos_site_id
 _symmetry_equiv_pos_as_xyz
  1  'x, y, z'
loop_
 _atom_type_symbol
 _atom_type_oxidation_number
  H+  1.0
  O2-  -2.0
loop_
 _atom_site_type_symbol
 _atom_site_label
 _atom_site_symmetry_multiplicity
 _atom_site_fract_x
 _atom_site_fract_y
 _atom_site_fract_z
 _atom_site_occupancy
  H+  H0  1  0.91995027  0.58486794  0.59857144  1
  H+  H1  1  0.61806325  0.21803136  0.81834287  1
  H+  H2  1  0.28361047  0.88123406  1.00568091  1
  H+  H3  1  0.54115490  0.70505033  0.14087625  1
  H+  H4  1  0.09389552  0.15222534  0.34844123  1
  H+  H5  1  0.90733949  0.54647853  0.90663816  1
  H+  H6  1  0.04264105  0.19441181  0.81887158  1
  H+  H7  1  0.88036209  0.77700032  0.33016727  1
  H+  H8  1  0.61380305  0.51603176  0.67009475  1
  H+  H9  1  0.73437084  0.61687082  0.85596115  1
  H+  H10  1  0.10621197  0.97683255  0.34400864  1
  H+  H11  1  0.10062189  0.24394806  0.34006722  1
  H+  H12  1  0.75317785  0.37423463  0.49400599  1
  H+  H13  1  0.36898762  0.23424297  0.15668557  1
  H+  H14  1  0.61700794  0.24061941  0.00643919  1
  H+  H15  1  0.74941812  0.59944533  0.68442073  1
  H+  H16  1  0.96370133  0.87056436  0.49373232  1
  H+  H17  1  0.12664662  0.49017763  0.81481376  1
  H+  H18  1  0.16540070  0.84103468  0.60275379  1
  H+  H19  1  0.62829123  0.60923551  0.15736384  1
  H+  H20  1  0.26908380  0.13739079  0.67021916  1
  H+  H21  1  0.37368206  0.72744857  0.00646278  1
  H+  H22  1  0.13004214  0.86604643  0.51050930  1
  H+  H23  1  0.28305143  0.64100367  0.82470581  1
  H+  H24  1  0.87768293  0.27260579  0.65497672  1
  H+  H25  1  0.62314922  0.75068799  0.67500775  1
  H+  H26  1  0.88648017  0.27203493  0.32519749  1
  H+  H27  1  0.91914130  0.09199270  0.98943757  1
  H+  H28  1  0.13504282  0.04290879  0.99768737  1
  H+  H29  1  0.85863288  0.64142090  0.49595769  1
  H+  H30  1  0.39041767  0.85155285  0.66519299  1
  H+  H31  1  0.61773141  0.09915800  0.18053972  1
  H+  H32  1  0.82553347  0.90872578  0.06715839  1
  H+  H33  1  0.51311181  0.41576228  0.35586742  1
  H+  H34  1  0.13042905  0.77394788  0.84160336  1
  H+  H35  1  0.11012682  0.64287909  0.48900702  1
  H+  H36  1  0.40162692  0.15033373  0.35155489  1
  H+  H37  1  0.77604850  0.37397788  0.82199452  1
  H+  H38  1  0.50577604  0.38119133  0.67741857  1
  H+  H39  1  0.59900373  0.11465464  0.66325072  1
  H+  H40  1  0.71613765  0.10077665  0.65769222  1
  H+  H41  1  0.31920674  0.88631240  0.74614378  1
  H+  H42  1  0.02041832  0.39185123  0.34414082  1
  H+  H43  1  0.70793048  0.84339089  0.98996363  1
  H+  H44  1  0.11285879  0.89198559  0.34178388  1
  H+  H45  1  0.26297026  0.39144066  0.65104598  1
  H+  H46  1  0.49185220  0.10202934  0.18290643  1
  H+  H47  1  0.60476246  0.70429814  0.49688004  1
  H+  H48  1  0.10799971  0.98634099  0.83490724  1
  H+  H49  1  0.47018550  0.60417626  0.49955130  1
  H+  H50  1  0.43602097  0.59663850  0.91150981  1
  H+  H51  1  0.38181096  0.36615855  0.34419545  1
  H+  H52  1  -0.04260501  0.11231252  0.65691916  1
  H+  H53  1  0.26957952  0.13358815  0.14370295  1
  H+  H54  1  0.94728492  0.05205606  0.86039941  1
  H+  H55  1  0.38274317  0.60517272  0.65256622  1
  H+  H56  1  0.10094686  0.87058306  0.67868595  1
  H+  H57  1  0.13812313  0.62410295  0.33202287  1
  H+  H58  1  0.35215269  0.87591016  0.49730673  1
  H+  H59  1  0.86241284  0.38230269  0.33791194  1
  H+  H60  1  0.14917478  0.64722635  0.65368066  1
  H+  H61  1  0.62358318  0.75328001  -0.00855514  1
  H+  H62  1  0.22193728  0.61379403  0.49642295  1
  H+  H63  1  0.87227492  0.88956405  0.16000561  1
  H+  H64  1  0.64235607  0.53214089  0.31737362  1
  H+  H65  1  0.38907041  0.03000813  0.99176010  1
  H+  H66  1  0.09985110  0.72706622  0.13601579  1
  H+  H67  1  0.47270008  0.35844987  0.51044822  1
  H+  H68  1  0.15785596  0.41360780  0.63108211  1
  H+  H69  1  0.84031259  -0.01781806  0.67305595  1
  H+  H70  1  0.86526119  0.37518907  0.49035310  1
  H+  H71  1  0.86977193  0.62877625  0.84159729  1
  H+  H72  1  0.07812233  0.10379526  0.51400803  1
  H+  H73  1  0.40169548  1.02461997  0.34043924  1
  H+  H74  1  0.69539505  0.82838581  0.83862783  1
  H+  H75  1  0.62498579  0.12269844  1.00337554  1
  H+  H76  1  0.35864053  0.63229069  0.48943345  1
  H+  H77  1  0.13125760  0.53095462  0.33239179  1
  H+  H78  1  0.36039026  0.45679095  0.17236329  1
  H+  H79  1  0.85861973  0.24514755  0.00138095  1
  H+  H80  1  0.23770911  0.61036845  0.99018618  1
  H+  H81  1  0.75375709  0.11754617  0.80852161  1
  H+  H82  1  0.87650915  0.15391656  0.15200089  1
  H+  H83  1  0.84011264  0.14698253  -0.00039401  1
  H+  H84  1  0.27063489  0.14612391  0.82656601  1
  H+  H85  1  0.36042305  0.72265927  0.33432538  1
  H+  H86  1  1.02253459  0.63164289  0.83421460  1
  H+  H87  1  0.64288709  0.36119451  0.32452393  1
  H+  H88  1  0.64021742  0.36315982  0.16932805  1
  H+  H89  1  0.65790588  0.07315972  0.27699960  1
  H+  H90  1  0.18550734  0.09812514  0.21448353  1
  H+  H91  1  0.31946302  0.41788007  0.41032834  1
  H+  H92  1  0.71768794  0.85509688  0.66898909  1
  H+  H93  1  0.44076693  0.10108102  0.50836270  1
  H+  H94  1  0.37961190  0.49105789  0.79904109  1
  H+  H95  1  0.14781956  0.38028241  -0.01209154  1
  H+  H96  1  0.83544837  0.68471688  0.68439641  1
  H+  H97  1  0.64036520  0.86610772  0.33288818  1
  H+  H98  1  0.26122925  0.38768210  0.34886978  1
  H+  H99  1  1.02366287  0.38353577  0.65998320  1
  H+  H100  1  0.10720299  0.73087299  0.49555408  1
  H+  H101  1  0.03254576  0.64857340  0.33644659  1
  H+  H102  1  0.38147813  0.11898265  0.83683507  1
  H+  H103  1  0.78286384  0.40408960  0.15292476  1
  H+  H104  1  0.68608927  0.10733984  0.50205755  1
  H+  H105  1  0.38092351  0.59383150  0.17504283  1
  H+  H106  1  0.22970651  0.38139229  0.53128359  1
  H+  H107  1  0.61395386  0.95734472  0.49446027  1
  H+  H108  1  0.37450504  0.26484548  0.65746595  1
  H+  H109  1  0.37483334  0.07970795  0.66039078  1
  H+  H110  1  0.73979187  0.86996235  0.17510617  1
  H+  H111  1  0.73104598  0.10810872  0.33076135  1
  H+  H112  1  0.47269259  0.85932176  0.84120688  1
  H+  H113  1  0.54241186  0.03143725  0.21608128  1
  H+  H114  1  0.39640223  0.86982335  -0.00128335  1
  H+  H115  1  0.46949944  0.60467852  0.65027207  1
  H+  H116  1  0.14031360  0.25847241  0.82054843  1
  H+  H117  1  0.37399948  0.96488194  0.16569807  1
  H+  H118  1  0.62164190  0.85154815  0.67363012  1
  H+  H119  1  0.64835953  0.36962961  0.49623425  1
  H+  H120  1  0.88117846  0.59852021  0.66094825  1
  H+  H121  1  0.67808330  0.33997947  0.22749921  1
  H+  H122  1  0.71527215  0.12489762  0.99965578  1
  H+  H123  1  0.36529044  0.14333644  -0.00239777  1
  H+  H124  1  0.71488674  0.58964257  1.00785526  1
  H+  H125  1  0.63856446  0.36947134  -0.00368064  1
  H+  H126  1  0.16248136  0.30008038  0.98584517  1
  H+  H127  1  0.13065384  0.27447883  0.17808542  1
  H+  H128  1  0.22145425  0.35903002  0.18099258  1
  H+  H129  1  0.61050602  0.99563026  0.01914718  1
  H+  H130  1  0.23171124  0.12398403  -0.00842768  1
  H+  H131  1  0.52366207  0.15272565  1.00434129  1
  H+  H132  1  0.88884194  0.76721859  0.84644116  1
  H+  H133  1  0.00698751  0.64642432  0.14500990  1
  H+  H134  1  0.85019689  0.99869978  0.48284563  1
  H+  H135  1  0.97706263  0.88180190  0.65469025  1
  H+  H136  1  0.56274655  0.70446260  0.83142296  1
  H+  H137  1  0.69527275  0.59030964  0.12644792  1
  H+  H138  1  0.53153144  0.00942938  0.88715437  1
  H+  H139  1  0.41229709  0.63523383  0.81963704  1
  H+  H140  1  0.88582637  1.02854259  0.31538799  1
  H+  H141  1  0.32219322  0.15984841  0.33645729  1
  H+  H142  1  0.27654456  0.40706224  1.00406373  1
  H+  H143  1  0.32877587  0.16731503  0.72891063  1
  H+  H144  1  0.66690220  0.57889923  0.94272057  1
  H+  H145  1  0.26661805  0.63594755  0.33488308  1
  H+  H146  1  0.02232794  0.63866689  0.67412140  1
  H+  H147  1  0.11167255  0.13862471  0.15531727  1
  H+  H148  1  0.63337546  0.00601238  0.65823099  1
  H+  H149  1  0.13243463  0.86469028  0.84849845  1
  H+  H150  1  1.02082018  0.88053558  0.16472729  1
  H+  H151  1  0.38043661  0.33907134  0.17916413  1
  H+  H152  1  0.38565087  0.85898834  0.32891344  1
  H+  H153  1  0.28723552  0.40918734  0.81288031  1
  H+  H154  1  0.27896047  0.22263378  0.27019901  1
  H+  H155  1  0.38640738  0.37135626  0.99222366  1
  H+  H156  1  0.22013362  0.85724624  0.66587906  1
  H+  H157  1  0.33647562  0.35315602  0.66202494  1
  H+  H158  1  0.14179252  0.59804827  -0.01023281  1
  H+  H159  1  0.97007426  0.86622485  0.32872603  1
  H+  H160  1  0.36848061  0.70782858  0.16021727  1
  H+  H161  1  0.11025428  0.60462824  0.17124618  1
  H+  H162  1  0.87372600  0.47831476  0.66986446  1
  H+  H163  1  0.13692719  0.16239681  0.00498352  1
  H+  H164  1  0.88567500  0.50998834  0.84073510  1
  H+  H165  1  0.39529588  0.52977227  0.96609381  1
  H+  H166  1  0.81019375  0.61749247  0.19216483  1
  H+  H167  1  0.46980186  0.33814984  0.17189612  1
  H+  H168  1  0.08574460  0.97192091  0.49862500  1
  H+  H169  1  0.87185900  0.97975943  0.15594046  1
  H+  H170  1  0.59309529  0.12078259  0.82860659  1
  H+  H171  1  0.84162869  0.44587415  0.09330287  1
  H+  H172  1  0.52178143  0.87378385  0.67474103  1
  H+  H173  1  0.10698690  0.48005900  0.49497295  1
  H+  H174  1  0.07965715  0.92111957  0.77884684  1
  H+  H175  1  -0.02568401  0.61687623  0.50343610  1
  H+  H176  1  0.51734365  0.87611478  0.49451877  1
  H+  H177  1  0.13416058  0.12794458  0.83906839  1
  H+  H178  1  0.16276582  0.09745490  0.89874806  1
  H+  H179  1  0.86973728  0.47369895  0.33589074  1
  H+  H180  1  0.86636375  0.37700119  0.82211329  1
  H+  H181  1  0.66371178  0.33777161  0.90763437  1
  H+  H182  1  0.59803873  0.95766088  0.83277040  1
  H+  H183  1  0.13084520  0.37373019  0.33136320  1
  H+  H184  1  0.33042427  0.66426841  0.43040944  1
  H+  H185  1  0.60878011  0.63281340  0.67895016  1
  H+  H186  1  0.85351706  -0.01540721  0.83996740  1
  H+  H187  1  0.62706082  0.59578050  0.51201540  1
  H+  H188  1  0.60874069  0.62119452  0.00930405  1
  H+  H189  1  0.60102732  0.86858223  0.83069747  1
  H+  H190  1  0.20724132  0.15717848  0.31237045  1
  H+  H191  1  0.12156939  0.47707224  1.00325779  1
  H+  H192  1  0.52088411  0.89526237  1.01256781  1
  H+  H193  1  0.97178759  0.86366326  0.84467423  1
  H+  H194  1  0.61064990  0.96964966  0.34584361  1
  H+  H195  1  0.35699953  0.47703159  0.49712558  1
  H+  H196  1  0.27158161  0.89010888  0.83650670  1
  H+  H197  1  0.23951063  0.86098040  0.17191340  1
  H+  H198  1  0.62093812  0.46915612  0.50562851  1
  H+  H199  1  0.44115812  0.06713118  0.24671725  1
  H+  H200  1  0.59467227  0.45836951  0.15608044  1
  H+  H201  1  0.09888613  0.91021374  0.00544071  1
  H+  H202  1  0.08928096  0.67677022  0.98779123  1
  H+  H203  1  0.38040761  0.27174335  0.50811159  1
  H+  H204  1  0.38637998  0.86625337  0.84694526  1
  H+  H205  1  0.97624637  0.12139664  0.16321860  1
  H+  H206  1  0.52189239  0.62588244  -0.00193365  1
  H+  H207  1  0.38702492  0.37230444  0.83165101  1
  H+  H208  1  0.93205090  0.34063684  0.89386275  1
  H+  H209  1  0.61864683  0.88563845  0.16298882  1
  H+  H210  1  0.11039897  0.88264415  0.15684700  1
  H+  H211  1  0.46555598  0.58739346  0.18274095  1
  H+  H212  1  0.47016556  0.11769668  0.83321452  1
  H+  H213  1  0.77458951  0.89452257  0.33959382  1
  H+  H214  1  0.62065468  0.83597224  0.50843285  1
  H+  H215  1  0.58542721  0.14093029  0.50130155  1
  H+  H216  1  0.14592105  0.62071782  0.83891564  1
  H+  H217  1  0.88890518  0.37412034  0.16330878  1
  H+  H218  1  0.90780655  0.38899652  -0.02138416  1
  H+  H219  1  0.05840739  0.17861955  0.00104843  1
  H+  H220  1  0.83106760  -0.03703652  1.00674482  1
  H+  H221  1  0.89852821  0.21116365  0.49819388  1
  H+  H222  1  0.46367620  0.08229409  0.65452808  1
  H+  H223  1  0.76944761  0.16369780  0.81724633  1
  H+  H224  1  0.60504678  0.40201556  0.67394274  1
  H+  H225  1  0.47376913  0.85691992  0.32842145  1
  H+  H226  1  0.40727373  0.29153938  0.34624374  1
  H+  H227  1  0.67942507  0.37744971  0.59991453  1
  H+  H228  1  0.37656328  0.64202403  -0.00643156  1
  H+  H229  1  0.15638041  0.38922321  0.82903890  1
  H+  H230  1  0.28157985  0.64732333  0.66961218  1
  H+  H231  1  0.86477401  0.13705366  0.33282205  1
  H+  H232  1  0.62901399  0.22851165  0.34340095  1
  H+  H233  1  0.02221270  0.02553846  0.55652592  1
  H+  H234  1  -0.02179606  0.54078762  0.27317076  1
  H+  H235  1  0.84221501  0.86287312  0.82321195  1
  H+  H236  1  0.62561611  0.72866079  0.34591319  1
  H+  H237  1  0.65976747  0.27833253  0.49990700  1
  H+  H238  1  0.39773015  0.56592109  0.26864076  1
  H+  H239  1  0.41001141  0.34210143  0.92950301  1
  H+  H240  1  0.61214800  0.40234511  0.83085021  1
  H+  H241  1  0.87780624  0.25350041  0.15467398  1
  H+  H242  1  0.58305885  0.28671389  0.86714866  1
  H+  H243  1  0.82895322  0.62327452  0.08247959  1
  H+  H244  1  0.10847122  0.38935467  0.16119228  1
  H+  H245  1  0.87697364  0.54198594  0.16300424  1
  H+  H246  1  0.13772292  0.81057038  1.00182789  1
  H+  H247  1  0.27950859  0.89430915  0.34291123  1
  H+  H248  1  0.86499067  0.89281881  0.33882374  1
  H+  H249  1  0.84897701  0.13558458  0.67415836  1
  H+  H250  1  0.13297991  1.03014483  0.66302744  1
  H+  H251  1  0.35951319  -0.01958308  0.82975560  1
  H+  H252  1  0.13637215  0.02162519  0.16535924  1
  H+  H253  1  0.34780543  -0.03642136  0.49769717  1
  H+  H254  1  0.88808043  0.52638005  0.50450922  1
  H+  H255  1  0.34045443  0.13415647  0.50498129  1
  H+  H256  1  0.97777775  0.37106114  0.16559530  1
  H+  H257  1  0.13877167  0.78703427  0.33017286  1
  H+  H258  1  0.49541778  0.11083617  0.34056551  1
  H+  H259  1  0.60397448  0.46927260  1.00889649  1
  H+  H260  1  0.63280093  0.64619860  0.33459464  1
  H+  H261  1  0.00973574  0.17439894  0.48946156  1
  H+  H262  1  0.36813393  0.73255732  0.82747089  1
  H+  H263  1  0.47043877  0.84574170  0.17481311  1
  H+  H264  1  0.92465089  0.28455591  0.83529086  1
  H+  H265  1  0.73867362  0.40860986  0.65727039  1
  H+  H266  1  0.96958811  0.12190009  0.31689665  1
  H+  H267  1  0.88401792  0.80967810  0.64061298  1
  H+  H268  1  0.38169658  0.76727016  0.50528112  1
  H+  H269  1  0.88301175  0.36339503  0.65177032  1
  H+  H270  1  0.89877550  0.76609588  0.18116086  1
  H+  H271  1  0.85057816  0.72645184  0.49471451  1
  H+  H272  1  0.36337752  0.50998959  0.33588089  1
  H+  H273  1  0.87019553  0.87201388  0.99248266  1
  H+  H274  1  0.78217799  0.64539959  0.33353785  1
  H+  H275  1  0.90815425  0.13750589  0.81915349  1
  H+  H276  1  0.36220483  0.87237372  0.15826508  1
  H+  H277  1  1.03924634  0.40105990  0.81812674  1
  H+  H278  1  0.27223113  0.79243629  0.72272150  1
  H+  H279  1  0.10248729  0.47626044  0.15995516  1
  H+  H280  1  0.01749059  0.81854684  0.71628508  1
  H+  H281  1  0.51550006  0.37989636  0.00408037  1
  H+  H282  1  -0.02634864  0.35663021  0.50391652  1
  H+  H283  1  0.09048321  0.13070380  0.67243676  1
  H+  H284  1  0.36358816  0.23349095  -0.00260166  1
  H+  H285  1  0.21791992  0.86178826  0.50840571  1
  H+  H286  1  0.10565709  0.73238273  0.67669789  1
  H+  H287  1  0.73444524  0.36756006  0.32662873  1
  H+  H288  1  0.62327064  0.17557851  0.43507198  1
  H+  H289  1  0.07739259  0.66652687  0.77252995  1
  H+  H290  1  0.17755198  0.58526587  0.89441582  1
  H+  H291  1  0.64003733  0.53835281  0.84929675  1
  H+  H292  1  0.63029038  0.13868530  0.34569312  1
  H+  H293  1  0.83698767  0.41461899  0.72720440  1
  H+  H294  1  0.07754949  0.91942268  0.43724478  1
  H+  H295  1  0.90817425  0.83962200  0.92875329  1
  H+  H296  1  0.14086895  0.08126741  0.60311053  1
  H+  H297  1  0.41519659  0.08766764  0.93089068  1
  H+  H298  1  0.33823113  0.66689513  0.73086048  1
  H+  H299  1  0.84100594  0.18721264  0.09111149  1
  H+  H300  1  0.81421175  0.55183971  1.03331301  1
  H+  H301  1  0.47509396  0.37301340  0.84033728  1
  H+  H302  1  0.36038568  0.23414312  0.82571385  1
  H+  H303  1  0.94544845  0.19898377  0.76103116  1
  H+  H304  1  0.91694226  0.83021104  0.23676921  1
  H+  H305  1  0.39491034  0.06022748  0.57274055  1
  H+  H306  1  0.39626783  0.76715198  0.66037092  1
  H+  H307  1  0.56006818  0.65580901  0.73345752  1
  H+  H308  1  0.34924897  0.65434510  0.09854629  1
  H+  H309  1  0.57602618  0.42538729  0.77173773  1
  H+  H310  1  0.16679533  0.59635948  0.55613823  1
  H+  H311  1  0.33570274  0.17152676  0.08547017  1
  H+  H312  1  0.85783394  0.90486505  0.66823647  1
  H+  H313  1  0.84001707  0.93850860  0.41497080  1
  H+  H314  1  0.90886987  0.85710288  0.55258917  1
  H+  H315  1  0.11290151  0.39621590  0.50555402  1
  H+  H316  1  0.33250989  0.91082769  0.40404906  1
  H+  H317  1  0.85205478  0.16468064  0.39834727  1
  H+  H318  1  0.35469988  0.38628982  0.49861872  1
  H+  H319  1  0.22719968  0.70616957  0.61211748  1
  H+  H320  1  0.08858127  0.41899188  0.71614434  1
  H+  H321  1  0.58875760  0.42179408  0.44218006  1
  H+  H322  1  0.80990197  0.16353386  0.73047800  1
  H+  H323  1  0.57123245  0.14776355  0.72062536  1
  H+  H324  1  0.55911252  0.50392673  0.39174560  1
  H+  H325  1  0.34017009  0.91828707  0.06601836  1
  H+  H326  1  0.57658550  0.90367590  0.40190437  1
  H+  H327  1  0.83383949  0.64965607  0.78153955  1
  H+  H328  1  0.58701139  0.17442018  0.10071313  1
  H+  H329  1  0.06966784  0.16914758  0.72979633  1
  H+  H330  1  0.65551281  0.77933977  0.17862320  1
  H+  H331  1  0.62437184  0.23338762  0.15963742  1
  H+  H332  1  0.41480300  0.82643605  0.56537288  1
  H+  H333  1  0.14370276  0.58130997  0.23249382  1
  H+  H334  1  0.15957410  0.34085311  0.27168454  1
  H+  H335  1  0.58236024  0.92263065  0.07842605  1
  H+  H336  1  0.06908382  0.92315722  0.07028783  1
  H+  H337  1  0.41050107  0.81938536  0.23351842  1
  H+  H338  1  0.90969655  0.32186947  0.56045194  1
  H+  H339  1  0.06542930  0.63715705  0.05334392  1
  H+  H340  1  0.58649599  0.65264819  0.43440123  1
  H+  H341  1  0.33990690  0.17355396  0.44127480  1
  H+  H342  1  0.08634323  0.41793459  0.06352454  1
  H+  H343  1  0.42819423  0.84072649  0.93959026  1
  H+  H344  1  0.71962396  0.60461344  0.51527031  1
  H+  H345  1  0.65459421  0.57466080  0.61061871  1
  H+  H346  1  0.34216649  0.48379724  0.04706975  1
  H+  H347  1  0.64309358  0.80813702  0.90175693  1
  H+  H348  1  0.73555579  0.38805264  0.99541119  1
  H+  H349  1  0.56740958  0.65819265  0.09230204  1
  H+  H350  1  0.91288326  0.09161344  0.22058722  1
  H+  H351  1  0.33112012  0.39606751  0.11394992  1
  H+  H352  1  0.84099201  0.41368896  0.43048321  1
  H+  H353  1  0.92509577  0.58463471  0.25938179  1
  H+  H354  1  0.31287364  0.40016616  0.72059199  1
  H+  H355  1  0.81270831  0.89835713  0.76556681  1
  H+  H356  1  0.57981967  0.90376560  0.73668040  1
  H+  H357  1  0.96829578  0.87882336  0.99362154  1
  H+  H358  1  0.79237141  0.07629144  0.51709486  1
  H+  H359  1  0.40519985  0.32889773  0.59870327  1
  H+  H360  1  0.64420205  0.80613847  0.56930562  1
  H+  H361  1  0.17171665  0.84983432  0.27232087  1
  H+  H362  1  0.89185975  0.09082184  0.59912690  1
  H+  H363  1  0.09224523  0.18245783  0.09963653  1
  H+  H364  1  0.36534602  0.60785650  0.32707670  1
  H+  H365  1  0.19039622  0.36458423  0.88971110  1
  H+  H366  1  0.86397243  0.05602665  0.93082839  1
  H+  H367  1  0.07940935  0.41999198  0.40454012  1
  H+  H368  1  0.86663252  0.91138128  0.48495258  1
  H+  H369  1  0.07171919  0.18233408  0.43830839  1
  H+  H370  1  0.67332424  0.57916887  0.25263249  1
  H+  H371  1  0.08356220  0.68081452  0.40001773  1
  H+  H372  1  0.56862357  0.39801982  0.09838980  1
  H+  H373  1  0.82911982  0.67387585  0.39766807  1
  H+  H374  1  0.16965836  0.81574624  0.93351480  1
  H+  H375  1  0.59686107  0.96307333  0.17004376  1
  H+  H376  1  0.41124881  0.58045348  0.55971415  1
  H+  H377  1  0.98400290  0.36974128  0.99012077  1
  H+  H378  1  0.95045933  0.53225472  0.99818595  1
  H+  H379  1  0.91421235  0.33238538  0.26568497  1
  H+  H380  1  0.67772315  0.06179659  0.56593968  1
  H+  H381  1  0.17751562  0.77442685  0.20517243  1
  H+  H382  1  0.67540729  0.84082669  0.27368386  1
  H+  H383  1  0.62286145  0.06214996  0.91574286  1
  O2-  O384  1  0.08279644  0.17192315  0.14418799  1
  O2-  O385  1  0.06486116  0.17633126  0.48279796  1
  O2-  O386  1  0.09784654  0.19671054  0.81109596  1
  O2-  O387  1  0.07666883  0.41585580  0.14269935  1
  O2-  O388  1  0.07980641  0.41809303  0.48279116  1
  O2-  O389  1  0.09800726  0.42940666  0.80026873  1
  O2-  O390  1  0.06526684  0.66523450  0.12777462  1
  O2-  O391  1  0.07761469  0.67246520  0.47654526  1
  O2-  O392  1  0.08164665  0.66880713  0.81786486  1
  O2-  O393  1  0.07957068  0.91284319  0.14485835  1
  O2-  O394  1  0.06996531  0.91403996  0.48227089  1
  O2-  O395  1  0.07858294  0.92362529  0.82373250  1
  O2-  O396  1  0.33202842  0.16690821  0.13176784  1
  O2-  O397  1  0.32624233  0.17468477  0.48486843  1
  O2-  O398  1  0.33068787  0.17316945  0.81137221  1
  O2-  O399  1  0.33001814  0.39475738  0.15874468  1
  O2-  O400  1  0.32159883  0.41429585  0.48516341  1
  O2-  O401  1  0.34291404  0.42901042  0.79022990  1
  O2-  O402  1  0.35292115  0.65065859  0.14333066  1
  O2-  O403  1  0.32849499  0.66397718  0.47559527  1
  O2-  O404  1  0.34354195  0.67423532  0.80897958  1
  O2-  O405  1  0.33652907  0.90829651  0.14500256  1
  O2-  O406  1  0.31948610  0.90341275  0.48118282  1
  O2-  O407  1  0.33142297  0.91753672  0.82038069  1
  O2-  O408  1  0.59165124  0.17240762  0.14569836  1
  O2-  O409  1  0.63810056  0.18182042  0.48041012  1
  O2-  O410  1  0.57712225  0.15877759  0.80590724  1
  O2-  O411  1  0.56833781  0.39707573  0.14446265  1
  O2-  O412  1  0.59550335  0.41023549  0.48591490  1
  O2-  O413  1  0.57902318  0.42970967  0.81729022  1
  O2-  O414  1  0.56566208  0.66730253  0.13846622  1
  O2-  O415  1  0.57724433  0.64436238  0.47954649  1
  O2-  O416  1  0.52984131  0.64963174  0.80711703  1
  O2-  O417  1  0.58114371  0.90803497  0.14771418  1
  O2-  O418  1  0.57678988  0.89840855  0.47823725  1
  O2-  O419  1  0.57423305  0.90135984  0.81206030  1
  O2-  O420  1  0.84906847  0.18917199  0.13742476  1
  O2-  O421  1  0.89923002  0.16205496  0.47642448  1
  O2-  O422  1  0.94103406  0.19832354  0.80529458  1
  O2-  O423  1  0.84397884  0.43969260  0.13950276  1
  O2-  O424  1  0.83757740  0.40991605  0.47629584  1
  O2-  O425  1  0.83523621  0.40694444  0.80726192  1
  O2-  O426  1  0.86131480  0.64670800  0.16567725  1
  O2-  O427  1  0.82209929  0.66554916  0.48225756  1
  O2-  O428  1  0.84478934  0.66367356  0.82533763  1
  O2-  O429  1  0.84135036  0.91816056  0.14326984  1
  O2-  O430  1  0.83846192  0.94227803  0.46435359  1
  O2-  O431  1  0.80782701  0.88987991  0.81053925  1
  O2-  O432  1  0.16925142  0.08537850  0.17106020  1
  O2-  O433  1  0.07876085  0.05460666  0.53739908  1
  O2-  O434  1  0.15981983  0.09302068  0.85359172  1
  O2-  O435  1  0.16057326  0.33459843  0.19384378  1
  O2-  O436  1  0.17605240  0.36463478  0.55539116  1
  O2-  O437  1  0.19124130  0.36298033  0.84444593  1
  O2-  O438  1  0.13484269  0.57087627  0.18820864  1
  O2-  O439  1  0.16108356  0.58749997  0.51140802  1
  O2-  O440  1  0.17879932  0.59122829  0.84904532  1
  O2-  O441  1  0.17866836  0.82575657  0.18898358  1
  O2-  O442  1  0.15851041  0.83454681  0.52645827  1
  O2-  O443  1  0.16283846  0.83318774  0.85973347  1
  O2-  O444  1  0.45023220  0.04959419  0.20554078  1
  O2-  O445  1  0.38487588  0.06321797  0.52627943  1
  O2-  O446  1  0.41173262  0.08813463  0.85179140  1
  O2-  O447  1  0.40774209  0.30270697  0.18547965  1
  O2-  O448  1  0.41254373  0.33374993  0.52361803  1
  O2-  O449  1  0.41276381  0.34129066  0.85255345  1
  O2-  O450  1  0.40512926  0.55871760  0.19670116  1
  O2-  O451  1  0.40934415  0.57962375  0.51360747  1
  O2-  O452  1  0.44222715  0.60243536  0.83261393  1
  O2-  O453  1  0.40948388  0.81636305  0.18795370  1
  O2-  O454  1  0.41153618  0.82817773  0.52021274  1
  O2-  O455  1  0.41554943  0.83472520  0.86207081  1
  O2-  O456  1  0.60304916  0.04796434  0.20665072  1
  O2-  O457  1  0.69269399  0.06150365  0.52146953  1
  O2-  O458  1  0.59216270  0.04113614  0.87589603  1
  O2-  O459  1  0.67881552  0.34095932  0.18236611  1
  O2-  O460  1  0.68622984  0.34215128  0.50950924  1
  O2-  O461  1  0.64489883  0.32519339  0.86323995  1
  O2-  O462  1  0.65849473  0.57663648  0.16244972  1
  O2-  O463  1  0.65964030  0.56908782  0.53087728  1
  O2-  O464  1  0.67500178  0.59342896  0.87093035  1
  O2-  O465  1  0.67946710  0.83962960  0.19102527  1
  O2-  O466  1  0.64811488  0.80400337  0.52503561  1
  O2-  O467  1  0.63685304  0.80564542  0.85530407  1
  O2-  O468  1  0.91387987  0.09298648  0.17479468  1
  O2-  O469  1  0.85320466  0.08577301  0.51664353  1
  O2-  O470  1  0.88925504  0.04380081  0.85930758  1
  O2-  O471  1  0.91484210  0.33940511  0.17861147  1
  O2-  O472  1  0.91141224  0.31891593  0.51464428  1
  O2-  O473  1  0.93354032  0.34110084  0.84832250  1
  O2-  O474  1  0.90948499  0.60233293  0.18212377  1
  O2-  O475  1  0.91421382  0.58576917  0.52007401  1
  O2-  O476  1  0.91408050  0.56538967  0.86357722  1
  O2-  O477  1  0.92105823  0.82744781  0.19100888  1
  O2-  O478  1  0.90298538  0.85030536  0.50786027  1
  O2-  O479  1  0.91054639  0.82894646  0.85891399  1
  O2-  O480  1  0.24495649  0.16112825  0.27918752  1
  O2-  O481  1  0.15888031  0.08832176  0.64682246  1
  O2-  O482  1  0.16975614  0.10044847  0.97914534  1
  O2-  O483  1  0.15931965  0.34052596  0.31732894  1
  O2-  O484  1  0.21188865  0.42134727  0.60905791  1
  O2-  O485  1  0.18669973  0.35989027  0.97048762  1
  O2-  O486  1  0.16310946  0.59004969  0.31459735  1
  O2-  O487  1  0.19664887  0.64811201  0.62890048  1
  O2-  O488  1  0.17860580  0.57570975  0.97295112  1
  O2-  O489  1  0.16933529  0.84942536  0.31726595  1
  O2-  O490  1  0.16224183  0.83906434  0.64861489  1
  O2-  O491  1  0.17728231  0.80170304  0.97679243  1
  O2-  O492  1  0.43567524  0.08487336  0.32448228  1
  O2-  O493  1  0.40177405  0.04991907  0.64077421  1
  O2-  O494  1  0.41690888  0.09027127  0.97647074  1
  O2-  O495  1  0.42328717  0.34909621  0.32945450  1
  O2-  O496  1  0.39940763  0.32697383  0.64457941  1
  O2-  O497  1  0.41047724  0.33721583  0.97520962  1
  O2-  O498  1  0.39223480  0.56983352  0.31472524  1
  O2-  O499  1  0.41067996  0.57495786  0.63417055  1
  O2-  O500  1  0.42833957  0.59154272  0.95668997  1
  O2-  O501  1  0.41341702  0.82682048  0.31245888  1
  O2-  O502  1  0.42547263  0.82917578  0.64626755  1
  O2-  O503  1  0.43120734  0.84279569  0.98529499  1
  O2-  O504  1  0.66818358  0.07767632  0.32177212  1
  O2-  O505  1  0.65909928  0.06331089  0.63826631  1
  O2-  O506  1  0.65277974  0.08748515  0.99061384  1
  O2-  O507  1  0.67395449  0.33275503  0.31047973  1
  O2-  O508  1  0.69111976  0.41197084  0.63672021  1
  O2-  O509  1  0.67458617  0.34501177  0.98137799  1
  O2-  O510  1  0.68121897  0.58752781  0.29678166  1
  O2-  O511  1  0.65267831  0.57731466  0.65610670  1
  O2-  O512  1  0.65753209  0.57065706  0.98869769  1
  O2-  O513  1  0.67721058  0.84174962  0.31879327  1
  O2-  O514  1  0.65407457  0.81840455  0.65907673  1
  O2-  O515  1  0.64932568  0.81199440  0.97349173  1
  O2-  O516  1  0.91152366  0.08749426  0.29772991  1
  O2-  O517  1  0.89479924  0.08517503  0.64376205  1
  O2-  O518  1  0.85954657  0.06350850  0.97593626  1
  O2-  O519  1  0.91422647  0.33305044  0.31073042  1
  O2-  O520  1  0.91055288  0.33033322  0.63620870  1
  O2-  O521  1  0.92441620  0.34398760  0.97290505  1
  O2-  O522  1  0.94630015  0.56424009  0.29382939  1
  O2-  O523  1  0.92276840  0.58274590  0.64407442  1
  O2-  O524  1  0.82705064  0.46584619  1.02247179  1
  O2-  O525  1  0.91035762  0.83870260  0.31298988  1
  O2-  O526  1  0.92294832  0.87076138  0.63343690  1
  O2-  O527  1  0.90836618  0.84701128  0.97568375  1
  O2-  O528  1  0.11361700  0.19992460  0.02116002  1
  O2-  O529  1  0.06253584  0.18251016  0.35552111  1
  O2-  O530  1  0.05134641  0.15032971  0.68753578  1
  O2-  O531  1  0.08725664  0.41595745  0.01803216  1
  O2-  O532  1  0.08073920  0.42423509  0.35891103  1
  O2-  O533  1  0.08512230  0.41534476  0.67130716  1
  O2-  O534  1  0.06382075  0.62153495  0.00952583  1
  O2-  O535  1  0.09036455  0.68510532  0.35443139  1
  O2-  O536  1  0.08152554  0.67244140  0.69210887  1
  O2-  O537  1  0.06531428  0.93253522  0.02504299  1
  O2-  O538  1  0.07760066  0.91748700  0.35813596  1
  O2-  O539  1  0.05335615  0.87630518  0.69960751  1
  O2-  O540  1  0.33355966  0.17259373  0.01303168  1
  O2-  O541  1  0.37204472  0.18301999  0.36378210  1
  O2-  O542  1  0.32982210  0.16448379  0.68372701  1
  O2-  O543  1  0.33571051  0.43418805  0.02437086  1
  O2-  O544  1  0.32175911  0.42009530  0.36407319  1
  O2-  O545  1  0.29098757  0.36757613  0.68058007  1
  O2-  O546  1  0.34460783  0.66521954  0.01621526  1
  O2-  O547  1  0.32820504  0.66100182  0.34851557  1
  O2-  O548  1  0.34051150  0.66749718  0.68535015  1
  O2-  O549  1  0.34288501  0.92046661  0.02045373  1
  O2-  O550  1  0.33879798  0.91682246  0.35857738  1
  O2-  O551  1  0.30212426  0.85146799  0.70759895  1
  O2-  O552  1  0.58305901  0.17951469  0.02116377  1
  O2-  O553  1  0.60300529  0.17122293  0.36364497  1
  O2-  O554  1  0.56522858  0.14163609  0.67607966  1
  O2-  O555  1  0.57367872  0.40708966  0.02283363  1
  O2-  O556  1  0.57087656  0.46052951  0.37480309  1
  O2-  O557  1  0.56421660  0.41651256  0.69502060  1
  O2-  O558  1  0.57605135  0.65126196  0.02227540  1
  O2-  O559  1  0.60044288  0.66765696  0.35783769  1
  O2-  O560  1  0.57926013  0.66688081  0.68994042  1
  O2-  O561  1  0.58146138  0.93199467  0.03200261  1
  O2-  O562  1  0.57841711  0.90723901  0.35613303  1
  O2-  O563  1  0.58283752  0.90110369  0.69088157  1
  O2-  O564  1  0.82339704  0.18583931  0.02003104  1
  O2-  O565  1  0.83872273  0.16746734  0.35495811  1
  O2-  O566  1  0.81765442  0.16694905  0.68632928  1
  O2-  O567  1  0.89850042  0.48428456  -0.02111580  1
  O2-  O568  1  0.83497266  0.41542023  0.35415414  1
  O2-  O569  1  0.83584497  0.41698027  0.68199646  1
  O2-  O570  1  0.80199086  0.59968309  0.04302584  1
  O2-  O571  1  0.83864591  0.68186171  0.35322448  1
  O2-  O572  1  0.81097898  0.62592990  0.69883282  1
  O2-  O573  1  0.81954968  0.90557627  0.02146692  1
  O2-  O574  1  0.83780099  0.92785865  0.35263019  1
  O2-  O575  1  0.81753657  0.92123633  0.68688455  1
