# generated using pymatgen
data_H2O
_symmetry_space_group_name_H-M   'P 1'
_cell_length_a   17.99278665
_cell_length_b   17.99497965
_cell_length_c   22.00475166
_cell_angle_alpha   89.99618797
_cell_angle_beta   89.99285821
_cell_angle_gamma   119.99282890
_symmetry_Int_Tables_number   1
_chemical_formula_structural   H2O
_chemical_formula_sum   'H384 O192'
_cell_volume   6170.61233908
_cell_formula_units_Z   192
loop_
 _symmetry_equiv_pos_site_id
 _symmetry_equiv_pos_as_xyz
  1  'x, y, z'
loop_
 _atom_type_symbol
 _atom_type_oxidation_number
  H+  1.0
  O2-  -2.0
loop_
 _atom_site_type_symbol
 _atom_site_label
 _atom_site_symmetry_multiplicity
 _atom_site_fract_x
 _atom_site_fract_y
 _atom_site_fract_z
 _atom_site_occupancy
  H+  H0  1  0.39088977  0.52502543  0.50621750  1
  H+  H1  1  0.10842971  0.88316000  0.82473781  1
  H+  H2  1  0.88820946  0.87450197  -0.00972299  1
  H+  H3  1  0.22677108  0.62020600  0.50425631  1
  H+  H4  1  0.34147274  0.36347542  0.67505052  1
  H+  H5  1  0.43533903  0.96031762  0.32134290  1
  H+  H6  1  0.06679975  -0.11349179  1.07270354  1
  H+  H7  1  0.86871204  0.12410069  0.33268122  1
  H+  H8  1  0.91697218  0.84675701  0.89401915  1
  H+  H9  1  0.60648135  0.47688636  0.17373578  1
  H+  H10  1  0.16955239  0.19523084  0.04006109  1
  H+  H11  1  0.37217539  1.04452994  0.32890795  1
  H+  H12  1  0.36491084  0.09750541  -0.00791418  1
  H+  H13  1  0.61479303  0.14646781  0.15996415  1
  H+  H14  1  0.56976574  0.04375237  0.88674632  1
  H+  H15  1  0.96856742  0.86486159  0.33036193  1
  H+  H16  1  0.62638842  0.52085381  0.84068140  1
  H+  H17  1  0.41837453  0.84015468  0.92715451  1
  H+  H18  1  0.61047496  0.23301145  0.15894425  1
  H+  H19  1  0.71818165  0.11105062  0.50160346  1
  H+  H20  1  0.70608596  0.33514939  0.89433502  1
  H+  H21  1  0.89148758  0.37267692  0.17507631  1
  H+  H22  1  0.60990346  0.47699035  0.33553433  1
  H+  H23  1  0.11874090  0.63933616  0.00611953  1
  H+  H24  1  0.39724611  0.52675270  0.98401050  1
  H+  H25  1  0.98374629  0.61080675  0.98064741  1
  H+  H26  1  0.64274517  0.02717121  0.32871259  1
  H+  H27  1  0.46615043  0.36730390  0.18377056  1
  H+  H28  1  0.46206011  0.61889025  0.82672472  1
  H+  H29  1  0.89179429  0.27597939  0.80641669  1
  H+  H30  1  0.41853677  0.09381308  0.26745224  1
  H+  H31  1  0.14180175  0.02029379  0.83614863  1
  H+  H32  1  0.62796585  0.10811744  0.65719976  1
  H+  H33  1  0.84956031  0.97291172  0.67566347  1
  H+  H34  1  0.52616025  0.43131653  1.01971790  1
  H+  H35  1  0.37679560  0.02309539  0.49997740  1
  H+  H36  1  0.03379716  0.39308781  0.49348521  1
  H+  H37  1  0.89174049  0.53588752  0.50167701  1
  H+  H38  1  0.90520432  0.07907297  0.60269839  1
  H+  H39  1  0.40570680  0.07855315  0.93209644  1
  H+  H40  1  0.12562080  0.98931763  0.34341995  1
  H+  H41  1  0.48181453  0.11641278  0.17705012  1
  H+  H42  1  0.61077139  0.59929009  0.84608809  1
  H+  H43  1  0.60665744  0.22355773  0.33653629  1
  H+  H44  1  0.78894656  0.64731532  -0.00602262  1
  H+  H45  1  0.37071332  0.75684283  0.67660969  1
  H+  H46  1  0.38467860  0.47477505  0.32753401  1
  H+  H47  1  0.38806396  0.78072071  -0.01367106  1
  H+  H48  1  0.86153457  0.21708694  0.48719146  1
  H+  H49  1  0.68150877  0.07510263  0.93587140  1
  H+  H50  1  0.35312700  -0.02527431  0.99209370  1
  H+  H51  1  1.02225034  0.11618155  0.82379384  1
  H+  H52  1  0.12547380  0.86323367  0.50607049  1
  H+  H53  1  0.77547174  0.38970816  0.16403156  1
  H+  H54  1  0.66242641  0.35083187  0.60425206  1
  H+  H55  1  0.86395965  0.52104544  0.32438755  1
  H+  H56  1  0.12446671  0.09490589  -0.01577017  1
  H+  H57  1  0.97867071  0.10991083  0.99251180  1
  H+  H58  1  0.86409123  0.61431623  0.17080693  1
  H+  H59  1  0.25385042  0.58851764  0.17137056  1
  H+  H60  1  0.90440754  0.62393532  0.66167390  1
  H+  H61  1  0.89835803  0.26405655  0.32173111  1
  H+  H62  1  0.44505886  0.96447930  0.35488851  1
  H+  H63  1  0.86074451  0.75458296  0.17861097  1
  H+  H64  1  0.91398046  0.27960378  -0.02630566  1
  H+  H65  1  0.27898506  0.62775431  0.35227153  1
  H+  H66  1  0.60918254  0.73714090  0.34408946  1
  H+  H67  1  0.74052947  0.40475263  0.51470135  1
  H+  H68  1  0.52274979  0.13112534  0.67561196  1
  H+  H69  1  0.39518334  0.75131196  0.33570372  1
  H+  H70  1  0.38526558  0.26402913  0.83360001  1
  H+  H71  1  0.10738167  0.98388792  0.67338122  1
  H+  H72  1  0.83999542  0.21478009  0.66892224  1
  H+  H73  1  0.40445825  0.94488179  0.68159494  1
  H+  H74  1  0.12692421  0.11117106  0.33034232  1
  H+  H75  1  0.62509935  0.64960873  1.00054435  1
  H+  H76  1  0.61426936  0.89056535  0.49895407  1
  H+  H77  1  0.15133127  0.88153815  0.67447160  1
  H+  H78  1  0.08937843  0.41496223  0.39775739  1
  H+  H79  1  0.72678237  0.86803782  0.51326002  1
  H+  H80  1  0.90521124  0.36946416  0.79696947  1
  H+  H81  1  0.14292962  0.81890999  0.25175029  1
  H+  H82  1  0.27861973  0.38683203  -0.00417753  1
  H+  H83  1  0.61691648  0.72348128  0.15661755  1
  H+  H84  1  0.23347966  0.35656979  0.31971266  1
  H+  H85  1  0.10894801  0.84308360  0.31188417  1
  H+  H86  1  0.17410616  0.94309453  0.36774133  1
  H+  H87  1  0.86599386  0.64542437  0.49518103  1
  H+  H88  1  0.65217389  0.54260841  0.99673205  1
  H+  H89  1  0.75351602  0.63456541  0.62789453  1
  H+  H90  1  -0.02042737  0.36823987  0.17192068  1
  H+  H91  1  0.86090497  0.48129544  0.66080443  1
  H+  H92  1  0.48489673  0.62392063  0.33683936  1
  H+  H93  1  0.78217261  0.12992197  0.33381119  1
  H+  H94  1  0.33564564  0.40866272  0.77316860  1
  H+  H95  1  0.88275688  0.86670032  0.66301333  1
  H+  H96  1  0.51038770  0.37523116  0.48166482  1
  H+  H97  1  0.86581834  0.98090976  0.34224001  1
  H+  H98  1  0.97115381  0.27984548  0.54302855  1
  H+  H99  1  0.88059020  0.10976786  0.50396748  1
  H+  H100  1  0.73162669  0.86026572  0.66476555  1
  H+  H101  1  0.71109502  0.35586101  0.32847861  1
  H+  H102  1  0.51423468  0.39418048  0.33475094  1
  H+  H103  1  0.39122148  0.61374753  0.51173776  1
  H+  H104  1  0.64538139  0.39072910  0.50611954  1
  H+  H105  1  0.14647080  0.58331743  0.18179301  1
  H+  H106  1  0.12757134  0.02343296  0.50512544  1
  H+  H107  1  0.52767841  0.87250376  0.15892175  1
  H+  H108  1  0.00026340  0.12989350  0.16108372  1
  H+  H109  1  0.87973152  0.77745723  0.51082446  1
  H+  H110  1  0.12661185  0.77464167  0.50163029  1
  H+  H111  1  0.74544884  0.66360849  0.64777642  1
  H+  H112  1  0.14437546  0.51911989  0.33501198  1
  H+  H113  1  0.36960911  0.18969902  0.66528735  1
  H+  H114  1  0.13911765  0.76942917  -0.00962302  1
  H+  H115  1  0.61629911  0.39076047  0.83122652  1
  H+  H116  1  0.09878044  0.71289851  0.33530286  1
  H+  H117  1  0.52193881  0.37965195  0.83020874  1
  H+  H118  1  0.58498998  0.90059136  0.09891762  1
  H+  H119  1  0.61727711  0.73453920  -0.00150011  1
  H+  H120  1  0.85398546  0.72754433  0.34393084  1
  H+  H121  1  0.86583304  0.60959422  0.32586016  1
  H+  H122  1  0.75594961  0.12344365  0.66859537  1
  H+  H123  1  0.50476171  0.13194615  0.01216451  1
  H+  H124  1  0.01379154  0.88967687  0.49397194  1
  H+  H125  1  0.39137383  0.47809988  0.82587121  1
  H+  H126  1  0.58890192  0.50364380  0.65448112  1
  H+  H127  1  0.10562102  0.22243460  0.33953695  1
  H+  H128  1  0.51806673  0.12920573  0.49151383  1
  H+  H129  1  0.18768396  0.49944899  0.71733065  1
  H+  H130  1  0.80643434  0.15934444  0.76577554  1
  H+  H131  1  0.25721405  0.12161921  1.00277149  1
  H+  H132  1  0.14541261  0.28371301  0.99306932  1
  H+  H133  1  0.48950389  0.88752497  0.51083099  1
  H+  H134  1  0.33365231  0.87781566  0.47764056  1
  H+  H135  1  0.62833562  0.50218845  0.49918407  1
  H+  H136  1  0.75676026  0.15285318  0.82667058  1
  H+  H137  1  0.15146750  0.53552579  0.99646529  1
  H+  H138  1  0.77270677  0.63422067  0.49784050  1
  H+  H139  1  -0.01957100  0.62504084  0.50061899  1
  H+  H140  1  -0.02736614  0.11533195  0.50763903  1
  H+  H141  1  0.16557604  0.59701023  0.56099336  1
  H+  H142  1  0.39267340  0.85673654  0.17985724  1
  H+  H143  1  0.41179621  0.31822198  0.92729440  1
  H+  H144  1  0.39119364  0.11206320  0.17542674  1
  H+  H145  1  0.35844637  0.46801675  0.14574155  1
  H+  H146  1  0.97713711  0.87655376  0.66168587  1
  H+  H147  1  0.85499654  0.88132663  0.16081590  1
  H+  H148  1  0.23849450  0.38087544  0.84573190  1
  H+  H149  1  0.85875567  -0.02140094  0.49948536  1
  H+  H150  1  0.48586576  0.61643402  0.98749433  1
  H+  H151  1  0.24707741  0.88161348  0.49240106  1
  H+  H152  1  0.14812331  0.36410646  0.32480079  1
  H+  H153  1  0.61523460  0.64166654  0.49822614  1
  H+  H154  1  -0.00772096  0.36895665  -0.01032418  1
  H+  H155  1  0.59160394  0.91835417  0.40040709  1
  H+  H156  1  0.89383026  0.74344449  0.68017271  1
  H+  H157  1  0.22218112  0.35096963  0.16616716  1
  H+  H158  1  0.76577669  0.28993593  0.38007191  1
  H+  H159  1  0.53428319  0.88053864  0.34089897  1
  H+  H160  1  0.51991459  0.13504257  0.33833517  1
  H+  H161  1  0.11000924  0.22930899  0.49165062  1
  H+  H162  1  0.24774175  0.89563601  0.33615667  1
  H+  H163  1  0.60423549  0.13751485  0.82273565  1
  H+  H164  1  0.11824821  0.48697597  0.49089483  1
  H+  H165  1  0.13453774  0.46434949  0.15507375  1
  H+  H166  1  0.08415345  -0.04161558  0.16409336  1
  H+  H167  1  0.03103136  0.38234820  0.33766776  1
  H+  H168  1  0.35529171  0.15253953  0.32971801  1
  H+  H169  1  0.69689606  0.51319911  0.54389283  1
  H+  H170  1  0.34728744  0.20971560  0.00266270  1
  H+  H171  1  0.84589580  0.47636775  1.00360374  1
  H+  H172  1  0.13322862  0.52735491  0.85461904  1
  H+  H173  1  1.01353300  0.13217353  0.34012356  1
  H+  H174  1  0.77166253  0.63792729  0.82827705  1
  H+  H175  1  0.67475996  0.59179744  0.93252491  1
  H+  H176  1  0.36760743  0.73082013  0.50320703  1
  H+  H177  1  0.36072940  0.88457078  0.83629558  1
  H+  H178  1  0.75812215  0.88393145  0.82767619  1
  H+  H179  1  0.61794694  0.97618757  0.67299521  1
  H+  H180  1  0.84744595  0.17590948  0.06088955  1
  H+  H181  1  0.76633346  0.88043794  0.15900187  1
  H+  H182  1  0.13158167  0.85428964  0.99786391  1
  H+  H183  1  0.87139115  0.01838593  0.17342212  1
  H+  H184  1  0.63260731  0.85007817  0.16873755  1
  H+  H185  1  0.97663279  0.61412040  0.82828260  1
  H+  H186  1  0.65286775  0.01773861  0.99505633  1
  H+  H187  1  0.10130265  0.08901368  0.17591811  1
  H+  H188  1  0.71865547  0.36672190  0.66191929  1
  H+  H189  1  0.86034814  0.48146402  0.16235491  1
  H+  H190  1  0.86614704  0.39479555  0.50496345  1
  H+  H191  1  0.64453656  0.27419773  0.84049917  1
  H+  H192  1  0.85835799  0.14012062  0.15995455  1
  H+  H193  1  0.72333322  0.60830965  0.18431277  1
  H+  H194  1  0.57590547  0.42363143  0.11257865  1
  H+  H195  1  0.25746030  0.87584930  0.99278369  1
  H+  H196  1  0.64600638  0.86823273  0.32540531  1
  H+  H197  1  0.87475605  0.10802667  0.66217238  1
  H+  H198  1  0.19908175  0.48667044  0.68762391  1
  H+  H199  1  0.49469914  0.60508752  0.15949337  1
  H+  H200  1  0.39918077  0.84061240  0.32764625  1
  H+  H201  1  0.62396487  0.36066432  0.32449833  1
  H+  H202  1  0.14093545  0.63987171  0.65501376  1
  H+  H203  1  0.62342368  0.88762594  0.83507153  1
  H+  H204  1  0.19762775  0.34846156  0.65779843  1
  H+  H205  1  0.64133285  0.74581174  0.66673234  1
  H+  H206  1  0.08379541  0.65256234  0.16086353  1
  H+  H207  1  0.46833383  0.31006243  0.97751912  1
  H+  H208  1  0.10686735  0.13191891  0.66358074  1
  H+  H209  1  0.48662322  0.88122406  0.66982120  1
  H+  H210  1  0.36575409  0.38185544  -0.00261830  1
  H+  H211  1  0.48129216  0.86133216  0.83871868  1
  H+  H212  1  0.35959223  -0.02734356  0.83594585  1
  H+  H213  1  0.89299846  0.78858947  0.98169479  1
  H+  H214  1  0.88542263  0.77835360  0.83969249  1
  H+  H215  1  0.47367253  0.37791067  0.65695400  1
  H+  H216  1  0.27785328  0.64203431  0.82642434  1
  H+  H217  1  0.04125198  0.39292493  0.90270243  1
  H+  H218  1  0.23491359  0.59049089  0.14090608  1
  H+  H219  1  0.13137296  0.78250116  0.15848050  1
  H+  H220  1  0.56982210  0.17607299  0.06773186  1
  H+  H221  1  0.01447672  0.12729904  0.66762961  1
  H+  H222  1  0.52441229  0.63683572  0.50315509  1
  H+  H223  1  0.86095972  -0.02254174  1.00781817  1
  H+  H224  1  0.11366526  0.63981616  0.82531080  1
  H+  H225  1  1.02192535  0.87608828  1.00755718  1
  H+  H226  1  0.63269024  0.60654371  0.17680923  1
  H+  H227  1  0.64140753  0.11548017  0.33045446  1
  H+  H228  1  0.58978193  0.39791869  1.01258316  1
  H+  H229  1  0.02785555  0.64296716  0.66887894  1
  H+  H230  1  0.95580372  0.03993346  0.28839743  1
  H+  H231  1  0.35784946  0.09812747  0.67742228  1
  H+  H232  1  0.40553009  0.73802682  0.14600569  1
  H+  H233  1  0.11168590  0.72799368  0.82348304  1
  H+  H234  1  0.14533153  0.37274557  0.49962113  1
  H+  H235  1  0.40369250  0.64833766  0.14344199  1
  H+  H236  1  0.62690983  0.10990038  0.50154164  1
  H+  H237  1  0.72315693  0.86367227  0.98859746  1
  H+  H238  1  0.23974310  0.62586308  0.99371618  1
  H+  H239  1  0.60849444  0.00368369  0.84089716  1
  H+  H240  1  0.65475891  0.07710991  0.59622796  1
  H+  H241  1  0.08541443  0.17097223  0.07533549  1
  H+  H242  1  0.14755317  0.37868358  0.85478656  1
  H+  H243  1  0.86238257  0.35606094  0.64722315  1
  H+  H244  1  0.38136221  0.35940646  0.49615404  1
  H+  H245  1  0.15654398  0.79876520  0.67312892  1
  H+  H246  1  0.12080000  0.63935644  0.35003580  1
  H+  H247  1  0.27612729  0.38839061  0.48304437  1
  H+  H248  1  0.71865332  0.60449075  0.33217140  1
  H+  H249  1  0.06415841  0.34746899  0.68036552  1
  H+  H250  1  1.00082127  0.86429648  0.16412114  1
  H+  H251  1  0.49287327  0.63418538  0.69346699  1
  H+  H252  1  0.78503977  0.39134277  0.81474286  1
  H+  H253  1  0.88171607  0.86836615  0.33511235  1
  H+  H254  1  0.87156764  0.48205945  0.81487972  1
  H+  H255  1  0.52575272  0.88849445  0.00236730  1
  H+  H256  1  0.26458838  0.13247436  0.48758902  1
  H+  H257  1  0.26927656  0.13018736  0.82372277  1
  H+  H258  1  0.61661628  0.98138181  0.49353436  1
  H+  H259  1  0.38637703  0.63792959  0.66147488  1
  H+  H260  1  0.37391749  0.64555771  0.98740243  1
  H+  H261  1  0.47646262  0.12094882  0.83860649  1
  H+  H262  1  0.56567462  0.25723628  0.99771234  1
  H+  H263  1  0.22533650  0.10487969  0.65530864  1
  H+  H264  1  0.39022840  0.77233508  0.83873579  1
  H+  H265  1  0.09540349  0.21448607  0.16465123  1
  H+  H266  1  0.11458408  0.36960542  0.15991528  1
  H+  H267  1  0.37556748  0.97366035  0.17356070  1
  H+  H268  1  0.88406173  1.01588863  0.83736612  1
  H+  H269  1  0.26349690  0.29606446  0.71467658  1
  H+  H270  1  0.89388620  0.11763862  0.99543993  1
  H+  H271  1  0.85235436  0.34751712  0.34612050  1
  H+  H272  1  0.38406546  0.11333868  0.49756615  1
  H+  H273  1  0.13179202  0.39932535  1.00288782  1
  H+  H274  1  0.73175925  0.86359057  0.32706728  1
  H+  H275  1  0.43302207  0.92687865  0.53145483  1
  H+  H276  1  -0.05561795  0.34335094  0.65699465  1
  H+  H277  1  0.82876853  0.91498157  0.06587569  1
  H+  H278  1  0.33897871  0.41479694  0.42496176  1
  H+  H279  1  0.38463107  0.11423617  0.83805674  1
  H+  H280  1  0.28113501  0.67008375  0.66738030  1
  H+  H281  1  0.63737249  0.77822040  0.51354823  1
  H+  H282  1  0.78967759  0.13722308  1.00191564  1
  H+  H283  1  0.84851127  0.88147607  0.82228470  1
  H+  H284  1  0.10927698  0.64246754  0.49064943  1
  H+  H285  1  0.22150962  0.86092841  0.84045399  1
  H+  H286  1  0.61037329  0.87950777  1.00032580  1
  H+  H287  1  0.90330538  0.07722885  0.23391348  1
  H+  H288  1  0.59057017  0.91631249  0.77269672  1
  H+  H289  1  0.92273256  0.59274032  0.59694002  1
  H+  H290  1  0.83350887  0.15903131  0.42657900  1
  H+  H291  1  0.83389037  0.42283885  0.72042320  1
  H+  H292  1  0.91301797  0.83963217  0.56945374  1
  H+  H293  1  0.63680230  0.78865138  0.84251580  1
  H+  H294  1  0.89773025  0.82320069  0.23428213  1
  H+  H295  1  0.67229994  0.09957237  0.23223450  1
  H+  H296  1  0.57635806  0.41448518  0.73624123  1
  H+  H297  1  0.61502241  0.54916999  0.58974877  1
  H+  H298  1  0.86640390  0.23292877  0.15889426  1
  H+  H299  1  0.58813408  0.31452458  0.93582423  1
  H+  H300  1  0.42146016  0.60198310  0.27821790  1
  H+  H301  1  0.83242238  0.40006920  0.43969301  1
  H+  H302  1  0.85682350  0.88836900  0.49944644  1
  H+  H303  1  0.44453784  0.54345714  0.21401651  1
  H+  H304  1  0.09768577  0.41941356  0.06417568  1
  H+  H305  1  0.13023658  0.11406893  0.50431993  1
  H+  H306  1  0.36430284  0.22354005  0.16244304  1
  H+  H307  1  0.61584501  0.88548454  0.67530078  1
  H+  H308  1  0.86426254  0.67925681  0.04363044  1
  H+  H309  1  0.79367843  0.65757785  0.11845512  1
  H+  H310  1  0.60464963  0.62535140  0.65999508  1
  H+  H311  1  0.91965394  0.07407845  0.89637830  1
  H+  H312  1  0.81600103  0.42384759  0.06351016  1
  H+  H313  1  0.66280509  0.33511546  0.23066830  1
  H+  H314  1  0.36354827  0.67994624  0.05110385  1
  H+  H315  1  0.07720740  0.92436034  0.73366389  1
  H+  H316  1  0.07806749  0.14844082  0.76275247  1
  H+  H317  1  0.02128639  0.88842654  0.82582452  1
  H+  H318  1  -0.00390851  0.64815928  0.15077920  1
  H+  H319  1  0.15799221  0.82938833  0.89666589  1
  H+  H320  1  0.92239595  0.33190823  0.26683404  1
  H+  H321  1  0.17740605  0.34095393  0.93006892  1
  H+  H322  1  0.66592735  0.82384958  0.22969403  1
  H+  H323  1  0.11546033  0.25890669  0.64928612  1
  H+  H324  1  0.37569620  0.36095739  0.17106832  1
  H+  H325  1  0.08566893  0.67048771  0.72966342  1
  H+  H326  1  0.15481293  0.55874947  0.65428120  1
  H+  H327  1  0.45304563  0.58260175  0.89318684  1
  H+  H328  1  0.02551479  0.38702913  0.83467440  1
  H+  H329  1  0.63383052  0.36786840  0.17350897  1
  H+  H330  1  0.05396205  0.53664756  0.21065433  1
  H+  H331  1  0.57924601  0.15958235  0.43346618  1
  H+  H332  1  0.28580652  0.88803587  0.16764249  1
  H+  H333  1  0.33517188  0.67724839  0.76720338  1
  H+  H334  1  0.16655828  0.08430897  0.59562144  1
  H+  H335  1  0.21955820  0.11808097  0.32312789  1
  H+  H336  1  0.59227374  0.67015006  0.09324060  1
  H+  H337  1  0.16576416  0.33562842  0.55919629  1
  H+  H338  1  0.42334338  0.81545193  0.23304550  1
  H+  H339  1  0.16549611  0.07916299  0.92509791  1
  H+  H340  1  0.83030002  0.92131846  0.40408371  1
  H+  H341  1  0.08094543  0.92166867  0.43693300  1
  H+  H342  1  0.86302191  0.68358255  0.73971907  1
  H+  H343  1  0.58664858  0.17775169  0.76330829  1
  H+  H344  1  0.16579791  0.58919589  0.28372604  1
  H+  H345  1  0.89953622  0.61766865  0.97427166  1
  H+  H346  1  0.17388920  0.60029829  0.90251580  1
  H+  H347  1  0.72759369  0.12875897  0.17148850  1
  H+  H348  1  0.92039177  0.57836080  0.88866926  1
  H+  H349  1  0.34180294  0.67066919  0.44428344  1
  H+  H350  1  0.33487081  0.16400006  0.10356326  1
  H+  H351  1  0.13354155  0.86922490  0.16730656  1
  H+  H352  1  0.66857397  0.82667797  0.60272089  1
  H+  H353  1  0.29009856  0.93284325  0.40148367  1
  H+  H354  1  0.16971588  0.32635860  0.22986951  1
  H+  H355  1  0.07388078  0.66713453  0.05897082  1
  H+  H356  1  0.38891199  0.35601298  0.83780994  1
  H+  H357  1  0.35326767  0.22070675  0.48692973  1
  H+  H358  1  0.85989777  0.63491290  0.83036763  1
  H+  H359  1  0.32994947  0.15315481  0.76435280  1
  H+  H360  1  0.41865251  0.59713116  0.60954396  1
  H+  H361  1  0.00354060  0.35329212  0.73323905  1
  H+  H362  1  0.81827937  0.91175235  0.73640120  1
  H+  H363  1  0.60792799  0.22579911  0.66828317  1
  H+  H364  1  0.66715234  0.83888507  0.92504989  1
  H+  H365  1  0.07856723  0.66958019  0.43004891  1
  H+  H366  1  0.60509048  0.38362550  0.67623428  1
  H+  H367  1  0.32647178  0.40699673  0.08769203  1
  H+  H368  1  0.35856765  0.88177875  -0.00909561  1
  H+  H369  1  0.90124420  0.58594797  0.22702326  1
  H+  H370  1  0.39233490  0.36165069  0.27266929  1
  H+  H371  1  0.36650278  0.62340614  0.35460107  1
  H+  H372  1  0.57858065  0.68064185  0.40628684  1
  H+  H373  1  0.65931385  0.57517175  0.27268631  1
  H+  H374  1  0.91524004  0.31589322  0.57014677  1
  H+  H375  1  0.07461958  0.16695022  0.43400711  1
  H+  H376  1  0.82755067  0.66998924  0.40386075  1
  H+  H377  1  0.13598047  0.06362385  0.23446777  1
  H+  H378  1  0.31978159  0.16958409  0.39015427  1
  H+  H379  1  0.57036935  0.40759530  0.42081045  1
  H+  H380  1  0.42821997  0.86212458  0.61117760  1
  H+  H381  1  0.46030772  0.44364287  0.62251246  1
  H+  H382  1  0.13794959  0.10724766  0.83174116  1
  H+  H383  1  0.41350278  0.33697287  0.55676650  1
  O2-  O384  1  0.06136339  0.15640164  0.14637583  1
  O2-  O385  1  0.07554923  0.16767224  0.47991554  1
  O2-  O386  1  0.08240943  0.14338261  0.80697706  1
  O2-  O387  1  0.08976565  0.40635513  0.14477227  1
  O2-  O388  1  0.09173652  0.42642050  0.47509627  1
  O2-  O389  1  0.07428900  0.41539270  0.86439790  1
  O2-  O390  1  0.05746798  0.67744387  0.13474125  1
  O2-  O391  1  0.07696701  0.67076873  0.47664320  1
  O2-  O392  1  0.08226176  0.66750342  0.80744142  1
  O2-  O393  1  0.06116678  0.89750362  0.14877259  1
  O2-  O394  1  0.07569058  0.92090796  0.48225689  1
  O2-  O395  1  0.08187648  0.91770878  0.81081347  1
  O2-  O396  1  0.34400490  0.16484025  0.14786901  1
  O2-  O397  1  0.32380833  0.16139705  0.47029624  1
  O2-  O398  1  0.33155051  0.16175865  0.80909165  1
  O2-  O399  1  0.32196636  0.40690874  0.13327577  1
  O2-  O400  1  0.33766001  0.41899640  0.46976078  1
  O2-  O401  1  0.34700102  0.41684310  0.81746270  1
  O2-  O402  1  0.40124654  0.69192104  0.11847075  1
  O2-  O403  1  0.33914400  0.67083948  0.49003599  1
  O2-  O404  1  0.33818630  0.67212000  0.81196138  1
  O2-  O405  1  0.34796351  0.91234612  0.16113490  1
  O2-  O406  1  0.30847169  0.91442665  0.47254640  1
  O2-  O407  1  0.32381348  0.91023471  0.82983951  1
  O2-  O408  1  0.57964849  0.17244727  0.14437669  1
  O2-  O409  1  0.57983659  0.15642690  0.47846631  1
  O2-  O410  1  0.58672562  0.17952611  0.80910986  1
  O2-  O411  1  0.57286011  0.41583864  0.15726435  1
  O2-  O412  1  0.57094134  0.40788005  0.46682770  1
  O2-  O413  1  0.58299218  0.41685707  0.81587364  1
  O2-  O414  1  0.58851561  0.66354424  0.13854395  1
  O2-  O415  1  0.58547009  0.67288052  0.48829853  1
  O2-  O416  1  0.54272386  0.65337041  0.72535546  1
  O2-  O417  1  0.58715094  0.89580722  0.14377860  1
  O2-  O418  1  0.58477482  0.91910356  0.47983313  1
  O2-  O419  1  0.58678732  0.91551544  0.81770467  1
  O2-  O420  1  0.83456244  0.17446806  0.14123626  1
  O2-  O421  1  0.82616572  0.15757519  0.47179465  1
  O2-  O422  1  0.81386904  0.17465205  0.80955390  1
  O2-  O423  1  0.83712499  0.41955952  0.15158155  1
  O2-  O424  1  0.83990974  0.42224488  0.48229339  1
  O2-  O425  1  0.84269949  0.42252181  0.79655808  1
  O2-  O426  1  0.81127828  0.65906108  0.16035451  1
  O2-  O427  1  0.83155554  0.67318628  0.48273378  1
  O2-  O428  1  0.83334705  0.67023481  0.81838188  1
  O2-  O429  1  0.82778716  0.91452732  0.14505524  1
  O2-  O430  1  0.82516391  0.91790331  0.48465359  1
  O2-  O431  1  0.81773090  0.91070684  0.80665663  1
  O2-  O432  1  0.12502721  0.05312226  0.19020675  1
  O2-  O433  1  0.16161129  0.08485312  0.51893639  1
  O2-  O434  1  0.17360813  0.08185297  0.84930366  1
  O2-  O435  1  0.16322050  0.32194294  0.18449577  1
  O2-  O436  1  0.17249228  0.33912789  0.51380303  1
  O2-  O437  1  0.17969670  0.34784730  0.86223177  1
  O2-  O438  1  0.10988976  0.58897636  0.21222655  1
  O2-  O439  1  0.16496611  0.58962344  0.51559175  1
  O2-  O440  1  0.16737501  0.59137209  0.85759026  1
  O2-  O441  1  0.16633753  0.83926721  0.17840468  1
  O2-  O442  1  0.15903890  0.83491309  0.51669608  1
  O2-  O443  1  0.15815974  0.82941418  0.85143861  1
  O2-  O444  1  0.42196328  0.08375318  0.19393116  1
  O2-  O445  1  0.41432576  0.08339233  0.51246218  1
  O2-  O446  1  0.41786917  0.08838575  0.85611369  1
  O2-  O447  1  0.40505525  0.33901356  0.19787076  1
  O2-  O448  1  0.40929092  0.32725003  0.51224982  1
  O2-  O449  1  0.41828613  0.32355237  0.85124002  1
  O2-  O450  1  0.43405421  0.56764599  0.17759193  1
  O2-  O451  1  0.42177748  0.58309034  0.52500322  1
  O2-  O452  1  0.46954712  0.57720296  0.85042830  1
  O2-  O453  1  0.42255741  0.82268977  0.18870191  1
  O2-  O454  1  0.43217114  0.87216673  0.52971665  1
  O2-  O455  1  0.42080967  0.83347060  0.85410956  1
  O2-  O456  1  0.66881557  0.10549372  0.18794962  1
  O2-  O457  1  0.65889192  0.07958503  0.51799773  1
  O2-  O458  1  0.61838497  0.06104788  0.85945551  1
  O2-  O459  1  0.66675132  0.33884697  0.18553708  1
  O2-  O460  1  0.69177893  0.40391744  0.53626749  1
  O2-  O461  1  0.67494636  0.33476853  0.85789559  1
  O2-  O462  1  0.65752977  0.57424736  0.19650685  1
  O2-  O463  1  0.67097707  0.54702377  0.52842720  1
  O2-  O464  1  0.65346056  0.58194276  0.85472062  1
  O2-  O465  1  0.66520038  0.82014140  0.18454181  1
  O2-  O466  1  0.66633598  0.83777808  0.53031771  1
  O2-  O467  1  0.66926747  0.84732894  0.85748507  1
  O2-  O468  1  0.89987479  0.07934411  0.18801689  1
  O2-  O469  1  0.91213789  0.08343382  0.52343340  1
  O2-  O470  1  0.92520566  0.07460659  0.85177932  1
  O2-  O471  1  0.92178599  0.34159037  0.19043325  1
  O2-  O472  1  0.94018115  0.30858979  0.52953801  1
  O2-  O473  1  0.93588660  0.33655978  0.79521713  1
  O2-  O474  1  0.90229294  0.58799931  0.18156661  1
  O2-  O475  1  0.91907206  0.59559780  0.51672388  1
  O2-  O476  1  0.91563184  0.58051493  0.84292576  1
  O2-  O477  1  0.89580702  0.81942643  0.18941809  1
  O2-  O478  1  0.91000667  0.83897178  0.52357076  1
  O2-  O479  1  0.91460085  0.84102033  0.84853098  1
  O2-  O480  1  0.15585117  0.08119984  0.31272740  1
  O2-  O481  1  0.16592091  0.08543959  0.64127860  1
  O2-  O482  1  0.16379210  0.07565529  0.97071635  1
  O2-  O483  1  0.17266738  0.32980417  0.30710053  1
  O2-  O484  1  0.14187561  0.32104681  0.63639457  1
  O2-  O485  1  0.17815259  0.34319080  0.97743189  1
  O2-  O486  1  0.17860149  0.58236961  0.32623762  1
  O2-  O487  1  0.17689242  0.61517962  0.63578790  1
  O2-  O488  1  0.17740638  0.59644464  0.98238383  1
  O2-  O489  1  0.13340697  0.80828900  0.29684805  1
  O2-  O490  1  0.19305369  0.86138835  0.67496825  1
  O2-  O491  1  0.16794668  0.83118547  0.97719118  1
  O2-  O492  1  0.41766428  0.10055701  0.31320637  1
  O2-  O493  1  0.41904393  0.05667816  0.66530681  1
  O2-  O494  1  0.39691198  0.06821746  0.97713138  1
  O2-  O495  1  0.40368237  0.37513481  0.31759774  1
  O2-  O496  1  0.42852014  0.38201240  0.63274601  1
  O2-  O497  1  0.41654991  0.31676498  0.97288026  1
  O2-  O498  1  0.42202368  0.58247433  0.31954934  1
  O2-  O499  1  0.41531832  0.60343824  0.65382930  1
  O2-  O500  1  0.42808687  0.58607261  0.96736524  1
  O2-  O501  1  0.42885542  0.80982540  0.31626041  1
  O2-  O502  1  0.42659101  0.86290948  0.65624230  1
  O2-  O503  1  0.41432154  0.84226865  0.97319609  1
  O2-  O504  1  0.67567057  0.08871702  0.31653033  1
  O2-  O505  1  0.65519478  0.07484950  0.64173290  1
  O2-  O506  1  0.69023053  0.07744774  0.97993832  1
  O2-  O507  1  0.65380576  0.32916781  0.30986472  1
  O2-  O508  1  0.65704142  0.33558668  0.64841519  1
  O2-  O509  1  0.56324137  0.30806052  0.97625335  1
  O2-  O510  1  0.65849516  0.56930649  0.31796036  1
  O2-  O511  1  0.58126172  0.54433408  0.62744393  1
  O2-  O512  1  0.68540975  0.60043298  0.97726896  1
  O2-  O513  1  0.67167086  0.83346586  0.31071639  1
  O2-  O514  1  0.66836746  0.82123548  0.64890958  1
  O2-  O515  1  0.66341969  0.83205832  0.97265719  1
  O2-  O516  1  0.92592875  0.06685622  0.30723741  1
  O2-  O517  1  0.90499693  0.07705235  0.64805269  1
  O2-  O518  1  0.91834201  0.08013659  0.98084680  1
  O2-  O519  1  0.92386873  0.32668940  0.31236228  1
  O2-  O520  1  0.88655626  0.31844396  0.63507865  1
  O2-  O521  1  0.94862544  0.33880763  0.95805750  1
  O2-  O522  1  0.88924171  0.57658278  0.30453261  1
  O2-  O523  1  0.92374408  0.58543900  0.64175205  1
  O2-  O524  1  0.92480679  0.58179081  0.96256154  1
  O2-  O525  1  0.90829452  0.83448061  0.31835702  1
  O2-  O526  1  0.91636569  0.84183202  0.64524958  1
  O2-  O527  1  0.92194000  0.85022514  0.97056010  1
  O2-  O528  1  0.11124213  0.18371782  0.03283706  1
  O2-  O529  1  0.07430192  0.16492541  0.35862593  1
  O2-  O530  1  0.07654829  0.16230712  0.67840217  1
  O2-  O531  1  0.10420573  0.43145709  0.02005711  1
  O2-  O532  1  0.09185138  0.41342497  0.35227068  1
  O2-  O533  1  0.02979283  0.37386618  0.69242641  1
  O2-  O534  1  0.08300258  0.66691253  0.01415320  1
  O2-  O535  1  0.08127862  0.66041942  0.36009820  1
  O2-  O536  1  0.08832659  0.67424780  0.68418145  1
  O2-  O537  1  0.07127583  0.87746189  0.02838960  1
  O2-  O538  1  0.11459854  0.93327022  0.36277920  1
  O2-  O539  1  0.07318538  0.92371629  0.68821826  1
  O2-  O540  1  0.31786803  0.15077390  0.01971346  1
  O2-  O541  1  0.31670007  0.17280037  0.34515813  1
  O2-  O542  1  0.33004991  0.13525275  0.68447493  1
  O2-  O543  1  0.34006155  0.41614769  0.01144100  1
  O2-  O544  1  0.35064449  0.41175049  0.33807427  1
  O2-  O545  1  0.29273599  0.35586219  0.70156100  1
  O2-  O546  1  0.34671863  0.67605710  0.00673552  1
  O2-  O547  1  0.33904360  0.65701123  0.36911961  1
  O2-  O548  1  0.33922519  0.69380200  0.68571660  1
  O2-  O549  1  0.32365934  0.91031946  0.00476909  1
  O2-  O550  1  0.27588783  0.94831545  0.36085546  1
  O2-  O551  1  0.40211157  0.99112908  0.70568011  1
  O2-  O552  1  0.56269217  0.17906980  0.02272741  1
  O2-  O553  1  0.58163897  0.16354520  0.35170184  1
  O2-  O554  1  0.58547611  0.16776174  0.68662613  1
  O2-  O555  1  0.58454811  0.44634126  0.03133950  1
  O2-  O556  1  0.57334507  0.41230372  0.34771264  1
  O2-  O557  1  0.57225619  0.41208195  0.69099504  1
  O2-  O558  1  0.58911840  0.67364928  0.01524491  1
  O2-  O559  1  0.56760241  0.68018890  0.36232259  1
  O2-  O560  1  0.61930450  0.67807116  0.68875374  1
  O2-  O561  1  0.58463601  0.91269959  0.01878496  1
  O2-  O562  1  0.59406648  0.91945544  0.35500342  1
  O2-  O563  1  0.58897847  0.91740766  0.69173221  1
  O2-  O564  1  0.85127671  0.17208568  0.01593840  1
  O2-  O565  1  0.84363392  0.15852782  0.34786131  1
  O2-  O566  1  0.81598468  0.15541950  0.68511578  1
  O2-  O567  1  0.79575308  0.42759035  0.02267286  1
  O2-  O568  1  0.80535411  0.34991780  0.36990036  1
  O2-  O569  1  0.82650455  0.41997250  0.67510550  1
  O2-  O570  1  0.85328445  0.67924131  0.00025284  1
  O2-  O571  1  0.82464749  0.66711703  0.35859671  1
  O2-  O572  1  0.88560602  0.68918586  0.69798818  1
  O2-  O573  1  0.82959484  0.91566857  0.02034936  1
  O2-  O574  1  0.83184580  0.91878743  0.35889881  1
  O2-  O575  1  0.81951225  0.91162712  0.68944117  1
