# generated using pymatgen
data_H2O
_symmetry_space_group_name_H-M   'P 1'
_cell_length_a   17.98904490
_cell_length_b   17.97625852
_cell_length_c   21.97725014
_cell_angle_alpha   89.97962929
_cell_angle_beta   89.99144382
_cell_angle_gamma   119.97203309
_symmetry_Int_Tables_number   1
_chemical_formula_structural   H2O
_chemical_formula_sum   'H384 O192'
_cell_volume   6156.49677710
_cell_formula_units_Z   192
loop_
 _symmetry_equiv_pos_site_id
 _symmetry_equiv_pos_as_xyz
  1  'x, y, z'
loop_
 _atom_type_symbol
 _atom_type_oxidation_number
  H+  1.0
  O2-  -2.0
loop_
 _atom_site_type_symbol
 _atom_site_label
 _atom_site_symmetry_multiplicity
 _atom_site_fract_x
 _atom_site_fract_y
 _atom_site_fract_z
 _atom_site_occupancy
  H+  H0  1  0.88264596  0.78599269  0.31945312  1
  H+  H1  1  0.11302089  0.22844440  0.15892981  1
  H+  H2  1  0.83544492  0.42752791  0.77158735  1
  H+  H3  1  0.67364239  0.32692621  0.58253161  1
  H+  H4  1  0.82875691  0.19984850  0.47999834  1
  H+  H5  1  0.25741361  0.87983984  0.32426748  1
  H+  H6  1  -0.02376379  0.60925957  -0.00208417  1
  H+  H7  1  0.51922845  0.39092624  0.68165241  1
  H+  H8  1  0.07558908  0.91568024  0.77832466  1
  H+  H9  1  0.87009484  0.35169993  1.00880368  1
  H+  H10  1  0.34818106  0.62090093  0.50408123  1
  H+  H11  1  0.73990129  0.08666974  0.31109834  1
  H+  H12  1  0.83903527  0.15135974  -0.04193012  1
  H+  H13  1  0.46993159  0.11196570  0.99337522  1
  H+  H14  1  0.60243729  0.13082261  0.00006530  1
  H+  H15  1  0.28493914  0.35515389  1.02266222  1
  H+  H16  1  0.54903898  0.19632663  0.68194734  1
  H+  H17  1  0.38540447  0.13140894  0.47612052  1
  H+  H18  1  0.27041168  0.38768821  0.34900889  1
  H+  H19  1  0.47698592  0.36672466  0.84613660  1
  H+  H20  1  0.88234678  0.00271727  1.00026815  1
  H+  H21  1  0.85571398  0.72174403  0.68435918  1
  H+  H22  1  0.10307144  0.38509737  0.33364036  1
  H+  H23  1  0.10941893  0.63457732  0.83519153  1
  H+  H24  1  0.89021791  0.60902247  0.16656441  1
  H+  H25  1  0.46870851  0.83734375  0.53140063  1
  H+  H26  1  0.84885818  0.35881617  0.48685876  1
  H+  H27  1  0.67159754  0.29716233  0.65120550  1
  H+  H28  1  0.82354219  0.38247372  0.38734744  1
  H+  H29  1  0.72362850  0.36736430  0.84198399  1
  H+  H30  1  0.60035924  0.88904534  0.70776203  1
  H+  H31  1  0.66810479  0.78364033  0.51018709  1
  H+  H32  1  0.86702232  0.76084131  0.98882557  1
  H+  H33  1  0.83377731  0.87954408  0.33895622  1
  H+  H34  1  0.62293977  0.76605016  0.82410638  1
  H+  H35  1  0.42196623  0.33127970  0.93691296  1
  H+  H36  1  0.75959759  0.35290621  0.33130600  1
  H+  H37  1  0.74846141  0.13334908  0.16691188  1
  H+  H38  1  0.38687123  0.12088496  0.83915432  1
  H+  H39  1  0.26280823  0.32342777  0.69921531  1
  H+  H40  1  0.14484993  0.86664220  0.16554022  1
  H+  H41  1  0.37971771  0.34917313  0.66248666  1
  H+  H42  1  0.87426779  0.59690414  0.70586307  1
  H+  H43  1  0.87617867  0.58606254  0.51273226  1
  H+  H44  1  0.98224634  0.37995709  0.85501173  1
  H+  H45  1  0.29909212  0.67072284  0.16455639  1
  H+  H46  1  0.63761814  0.88680131  0.97890344  1
  H+  H47  1  1.08887678  0.91267976  0.09880659  1
  H+  H48  1  0.98321712  0.86229903  0.51420653  1
  H+  H49  1  0.61276506  0.23647658  0.83305325  1
  H+  H50  1  0.10862314  0.86214868  0.32678492  1
  H+  H51  1  0.72994864  0.62050850  0.16729172  1
  H+  H52  1  0.63736992  0.12211810  0.83252418  1
  H+  H53  1  0.58673219  0.86995621  0.59369681  1
  H+  H54  1  0.12660013  0.49367551  0.00844367  1
  H+  H55  1  0.63234967  0.51829121  0.31665708  1
  H+  H56  1  0.12322408  -0.02337861  1.00949333  1
  H+  H57  1  0.28454492  0.87813716  0.15775007  1
  H+  H58  1  0.36553512  0.21894109  0.66912610  1
  H+  H59  1  0.85208155  0.62107443  0.00047432  1
  H+  H60  1  0.60599522  -0.01987423  0.99660879  1
  H+  H61  1  0.09649387  0.96612202  0.68186897  1
  H+  H62  1  0.35739289  -0.01430147  0.48869455  1
  H+  H63  1  0.26104110  0.62659445  0.34889883  1
  H+  H64  1  0.35762860  0.85479022  0.48377066  1
  H+  H65  1  0.38723774  0.86307722  -0.00860010  1
  H+  H66  1  0.14072170  0.61124575  0.00023918  1
  H+  H67  1  0.08075273  0.46387982  0.15953475  1
  H+  H68  1  0.40619289  0.63526556  0.16303432  1
  H+  H69  1  0.76212056  0.88460357  0.81725465  1
  H+  H70  1  -0.01858120  0.11170207  0.17151124  1
  H+  H71  1  0.62746905  0.34264912  0.49198511  1
  H+  H72  1  0.54986360  0.90119615  0.15731249  1
  H+  H73  1  0.82395931  0.91492028  0.76016087  1
  H+  H74  1  0.86986862  0.12782682  0.14544304  1
  H+  H75  1  0.10342671  0.72467295  0.35175576  1
  H+  H76  1  0.46251494  0.84839638  0.27340193  1
  H+  H77  1  -0.01011132  0.11999366  0.32543794  1
  H+  H78  1  0.25938727  0.62474806  0.50420977  1
  H+  H79  1  0.66634299  0.86244209  0.53516501  1
  H+  H80  1  0.36460879  -0.02505229  1.00648810  1
  H+  H81  1  0.85416118  0.37788170  0.16268089  1
  H+  H82  1  0.17135050  0.82942150  0.93561049  1
  H+  H83  1  0.64134405  0.03514266  0.82373705  1
  H+  H84  1  0.46690160  0.61638032  0.50439015  1
  H+  H85  1  0.65002493  0.87243244  0.15934531  1
  H+  H86  1  0.36499849  0.50472520  0.15377379  1
  H+  H87  1  0.37480954  0.51075393  0.65803485  1
  H+  H88  1  0.53318109  0.38653725  0.33207070  1
  H+  H89  1  0.35309290  0.74228460  0.66102141  1
  H+  H90  1  0.07000726  0.41315303  0.39139798  1
  H+  H91  1  0.13460368  0.86373433  0.84513163  1
  H+  H92  1  0.08911895  0.87838133  0.68397943  1
  H+  H93  1  0.19995591  0.55584147  0.19183063  1
  H+  H94  1  0.48324358  0.34872671  0.99583209  1
  H+  H95  1  0.63976615  0.75768888  -0.01232534  1
  H+  H96  1  0.31353457  0.43747660  0.09948648  1
  H+  H97  1  0.71660744  0.89820325  0.32078329  1
  H+  H98  1  0.12038816  0.72970480  0.15900658  1
  H+  H99  1  0.60834358  0.22213111  0.00460785  1
  H+  H100  1  0.20548503  0.09574314  0.50164620  1
  H+  H101  1  0.36463635  0.22898820  0.82651077  1
  H+  H102  1  0.12308454  0.10491274  0.17339538  1
  H+  H103  1  0.39732255  0.26605436  0.31281694  1
  H+  H104  1  0.60686813  0.63633103  0.67349651  1
  H+  H105  1  0.10628243  0.97915219  0.34265876  1
  H+  H106  1  0.87587367  0.48208196  0.58839894  1
  H+  H107  1  0.54369766  0.74306665  0.45774962  1
  H+  H108  1  0.91507799  0.33931492  0.95059198  1
  H+  H109  1  0.61540158  0.63862619  0.83235973  1
  H+  H110  1  0.89083176  0.37137713  0.63320119  1
  H+  H111  1  0.43588356  0.42236194  0.01811439  1
  H+  H112  1  0.72520799  0.35683542  0.99780365  1
  H+  H113  1  0.50086997  0.10064757  0.48876923  1
  H+  H114  1  0.26820420  0.89051354  0.82429819  1
  H+  H115  1  0.28117246  0.38759042  0.49410464  1
  H+  H116  1  1.02453898  0.13352044  0.81985011  1
  H+  H117  1  0.73208831  0.59797411  0.51618271  1
  H+  H118  1  0.39678825  0.08592236  0.16414461  1
  H+  H119  1  -0.01917134  0.61242885  0.16845434  1
  H+  H120  1  0.36537570  0.90735500  0.82206541  1
  H+  H121  1  0.43172536  0.55150426  1.00447115  1
  H+  H122  1  0.52309359  0.14581865  0.82880778  1
  H+  H123  1  0.38743984  0.51777900  0.50453105  1
  H+  H124  1  0.43309136  0.75639496  0.82781431  1
  H+  H125  1  0.11464420  0.86703355  0.50649678  1
  H+  H126  1  0.22030327  0.11133318  0.32503204  1
  H+  H127  1  0.63668187  0.66902332  -0.02166378  1
  H+  H128  1  0.12975347  0.27297505  0.32811882  1
  H+  H129  1  0.85211689  0.68101363  0.89313250  1
  H+  H130  1  0.35944535  0.46569929  0.83497227  1
  H+  H131  1  0.86036681  0.72262739  0.15157909  1
  H+  H132  1  0.11435013  0.13602185  0.82578391  1
  H+  H133  1  0.83993369  0.96257106  0.66489997  1
  H+  H134  1  0.88127808  0.99139704  0.49006654  1
  H+  H135  1  0.61241034  0.63297001  0.33613839  1
  H+  H136  1  0.94001674  0.24182337  0.52345967  1
  H+  H137  1  0.53302574  0.12536321  0.15862362  1
  H+  H138  1  0.10291047  0.47191011  0.48822142  1
  H+  H139  1  0.88612082  0.60801780  0.84809448  1
  H+  H140  1  0.49831018  0.64522239  0.98843892  1
  H+  H141  1  0.40950314  0.08282982  0.93448189  1
  H+  H142  1  0.01370551  0.89477553  0.34268230  1
  H+  H143  1  0.87993116  0.27896181  0.65652245  1
  H+  H144  1  0.60867480  0.77160570  0.67224807  1
  H+  H145  1  -0.02758728  0.61873120  0.33074069  1
  H+  H146  1  0.34749520  0.62361323  0.66068981  1
  H+  H147  1  0.12278299  0.64272325  0.16311137  1
  H+  H148  1  0.38268078  0.03081272  0.83490706  1
  H+  H149  1  0.09726990  0.47974661  0.67521780  1
  H+  H150  1  0.48902483  0.62496240  0.15493317  1
  H+  H151  1  0.23463799  0.08731824  0.65380865  1
  H+  H152  1  0.76289872  0.61995588  -0.01187127  1
  H+  H153  1  0.48506702  0.96867869  0.87512640  1
  H+  H154  1  0.70094906  0.08373954  0.51271023  1
  H+  H155  1  0.12039378  0.51195459  0.84387521  1
  H+  H156  1  0.01648782  0.12288974  0.00764041  1
  H+  H157  1  0.63157767  0.11992951  0.67143253  1
  H+  H158  1  0.46462667  0.60634363  0.33451771  1
  H+  H159  1  0.33804256  0.41613310  0.43338486  1
  H+  H160  1  0.14153558  0.36562111  0.49257537  1
  H+  H161  1  0.36033932  0.29148106  0.16504499  1
  H+  H162  1  0.78003070  0.14242640  0.82211261  1
  H+  H163  1  0.09169935  0.72095929  0.50262370  1
  H+  H164  1  0.12625345  0.88884725  0.00956826  1
  H+  H165  1  0.14593300  0.57348177  0.56570170  1
  H+  H166  1  0.00900929  0.62364808  0.50050668  1
  H+  H167  1  0.42120605  0.79139207  0.17926620  1
  H+  H168  1  1.00113241  0.62108926  0.70020140  1
  H+  H169  1  0.14305811  0.25423910  0.67142942  1
  H+  H170  1  0.86112445  0.47056900  0.16553073  1
  H+  H171  1  0.11722272  1.00090539  0.50618738  1
  H+  H172  1  0.89349568  1.01902461  0.17522848  1
  H+  H173  1  0.76912409  0.87902033  0.01702722  1
  H+  H174  1  0.25956586  0.88693567  0.66737955  1
  H+  H175  1  0.20082762  0.85402604  0.50528809  1
  H+  H176  1  0.52820340  0.38414393  0.49122280  1
  H+  H177  1  -0.00003645  0.36981204  0.15570442  1
  H+  H178  1  0.22112513  0.37429918  0.17372749  1
  H+  H179  1  0.83803135  0.68671815  0.25997261  1
  H+  H180  1  0.86119033  0.21418454  0.32806122  1
  H+  H181  1  0.12965537  0.26600959  0.83507148  1
  H+  H182  1  0.22060771  0.38835338  0.65183266  1
  H+  H183  1  0.61896222  0.24773829  0.49426035  1
  H+  H184  1  0.63052519  0.74245477  0.15236757  1
  H+  H185  1  0.88242705  0.09136814  1.00195455  1
  H+  H186  1  0.83926507  0.12080442  0.48001212  1
  H+  H187  1  0.62192922  0.46570608  0.49458965  1
  H+  H188  1  -0.03508876  0.34550790  0.31776713  1
  H+  H189  1  0.76867407  0.14713652  0.67871867  1
  H+  H190  1  0.97750031  0.61180411  0.84393386  1
  H+  H191  1  0.65925302  0.13551779  0.17432519  1
  H+  H192  1  0.85224219  0.10528020  0.65269011  1
  H+  H193  1  0.38355669  0.35828559  0.84587042  1
  H+  H194  1  0.78123499  0.88803681  0.16488182  1
  H+  H195  1  0.61139916  0.45722917  0.02527175  1
  H+  H196  1  0.02316256  0.37484549  0.48795789  1
  H+  H197  1  0.35283279  0.12498686  0.32348165  1
  H+  H198  1  0.20771007  0.60765619  0.65584841  1
  H+  H199  1  0.12485700  0.61119342  0.33418372  1
  H+  H200  1  0.37576972  0.60508271  0.33769748  1
  H+  H201  1  0.88086562  0.78253542  0.84258402  1
  H+  H202  1  0.85855921  0.47278860  1.01251475  1
  H+  H203  1  0.61175653  0.88768027  0.80116543  1
  H+  H204  1  0.89184318  0.11623170  0.32207096  1
  H+  H205  1  0.60290158  0.94531683  0.54676946  1
  H+  H206  1  0.12358118  0.60825814  0.50613004  1
  H+  H207  1  0.63426079  0.35623495  0.32754292  1
  H+  H208  1  0.12678566  0.36051906  0.17362342  1
  H+  H209  1  0.98748073  0.13921036  0.50465187  1
  H+  H210  1  0.63369856  0.26450303  0.17219051  1
  H+  H211  1  0.13679535  0.77513574  0.84274593  1
  H+  H212  1  0.63477213  0.35271076  1.00004475  1
  H+  H213  1  0.10690035  0.38125746  0.82492717  1
  H+  H214  1  0.85331912  0.86894769  0.00939171  1
  H+  H215  1  0.23254908  0.61189142  -0.00111005  1
  H+  H216  1  0.35819532  0.17660989  0.16450897  1
  H+  H217  1  0.23199356  0.85621662  0.99436005  1
  H+  H218  1  0.36735389  0.13051057  0.66981573  1
  H+  H219  1  0.60953591  0.71917771  0.33320381  1
  H+  H220  1  0.88250594  0.01861957  0.83557653  1
  H+  H221  1  0.58929853  0.42184440  0.39381385  1
  H+  H222  1  0.36391904  0.22787396  0.00732275  1
  H+  H223  1  0.87933565  0.87045036  0.83600464  1
  H+  H224  1  0.35874132  0.47623544  0.34792173  1
  H+  H225  1  0.84303001  0.87475472  0.66894693  1
  H+  H226  1  0.46395333  0.07727008  0.63547091  1
  H+  H227  1  0.10488172  0.25774083  0.99373900  1
  H+  H228  1  0.10987595  0.13437202  0.33975506  1
  H+  H229  1  0.88003752  0.26029770  0.16141725  1
  H+  H230  1  0.95746549  0.85573442  0.66880635  1
  H+  H231  1  0.61617402  0.48893536  0.84216037  1
  H+  H232  1  0.89350468  0.37916821  0.85571868  1
  H+  H233  1  0.86498218  0.13581933  0.82234195  1
  H+  H234  1  0.88995098  0.85673506  0.16986838  1
  H+  H235  1  0.62698168  0.52458190  0.66973025  1
  H+  H236  1  0.64145548  0.63173510  0.16411944  1
  H+  H237  1  0.10226459  0.38418648  1.00561952  1
  H+  H238  1  0.87416441  0.72646919  0.50469947  1
  H+  H239  1  0.72078242  0.60972597  0.30812738  1
  H+  H240  1  0.37615432  0.96295355  0.16018593  1
  H+  H241  1  0.79304130  0.40819698  0.62429703  1
  H+  H242  1  0.12989685  0.38445022  0.65337842  1
  H+  H243  1  1.02076028  0.89152689  0.83841011  1
  H+  H244  1  0.10829895  0.96731802  0.16073066  1
  H+  H245  1  0.38875768  0.75065994  0.82746891  1
  H+  H246  1  0.08031262  0.71242650  0.67840435  1
  H+  H247  1  0.68045225  0.98644917  0.28646984  1
  H+  H248  1  0.41270965  0.87300025  0.18077328  1
  H+  H249  1  0.72658857  0.91922757  0.94370890  1
  H+  H250  1  0.59121540  0.10609272  0.49584294  1
  H+  H251  1  0.88292282  0.51829666  0.67905024  1
  H+  H252  1  0.29970602  0.39035265  -0.00129046  1
  H+  H253  1  0.51404866  0.62828744  0.67521100  1
  H+  H254  1  0.89394473  0.86119294  0.51113425  1
  H+  H255  1  0.50836114  0.37532166  0.16374249  1
  H+  H256  1  0.87474303  0.49877336  0.49478781  1
  H+  H257  1  0.31855102  0.90762560  0.72875407  1
  H+  H258  1  0.59368986  0.36564934  0.16801520  1
  H+  H259  1  0.75949445  0.35681615  0.48282991  1
  H+  H260  1  0.61183224  0.54233662  0.94403627  1
  H+  H261  1  0.12010729  0.61163595  0.66182998  1
  H+  H262  1  0.37422177  1.01323922  0.31211974  1
  H+  H263  1  0.56116320  0.14387839  0.39330291  1
  H+  H264  1  0.71727885  0.61167824  0.66993035  1
  H+  H265  1  0.22518195  0.11854274  -0.00497081  1
  H+  H266  1  0.10790486  0.13234259  0.49533690  1
  H+  H267  1  0.35137295  0.83963982  0.66151694  1
  H+  H268  1  0.01322807  0.38716179  0.67191109  1
  H+  H269  1  0.32766689  0.58583316  0.81042814  1
  H+  H270  1  0.47269277  0.60119895  0.84025685  1
  H+  H271  1  0.39733712  0.27756383  0.50303998  1
  H+  H272  1  0.49735551  0.90786026  0.83110131  1
  H+  H273  1  0.86181435  0.47913198  0.83216746  1
  H+  H274  1  0.35898002  0.13591186  0.00916159  1
  H+  H275  1  0.39043552  0.36324785  0.50510064  1
  H+  H276  1  0.33553813  0.16826322  0.76654794  1
  H+  H277  1  0.52019980  0.88646434  0.99901252  1
  H+  H278  1  0.76260425  0.63619501  0.85744812  1
  H+  H279  1  0.13764421  0.02557431  0.84373840  1
  H+  H280  1  1.12060199  0.22874677  0.49150503  1
  H+  H281  1  0.71762772  0.35683085  0.17682731  1
  H+  H282  1  0.37324515  -0.00156224  0.65213277  1
  H+  H283  1  0.21202475  0.10892723  0.17288177  1
  H+  H284  1  0.11860995  0.72152829  1.00513886  1
  H+  H285  1  1.13563690  0.20625890  0.73328536  1
  H+  H286  1  0.71521366  0.11252378  0.98418132  1
  H+  H287  1  0.18723287  0.94284904  0.63233073  1
  H+  H288  1  0.62962680  0.03115105  0.68306503  1
  H+  H289  1  0.26780467  0.37792431  0.83364986  1
  H+  H290  1  0.36414727  0.72707176  1.00082870  1
  H+  H291  1  0.33179871  0.89887624  0.36954997  1
  H+  H292  1  0.65552527  0.07482055  0.57793333  1
  H+  H293  1  0.97728449  0.85245315  0.16835675  1
  H+  H294  1  0.37092017  0.64236032  1.00814463  1
  H+  H295  1  0.17617081  0.84200877  0.22554989  1
  H+  H296  1  0.07648419  0.41953190  0.06904275  1
  H+  H297  1  0.07821852  0.16297783  0.40000954  1
  H+  H298  1  0.66681472  0.33554293  0.90310027  1
  H+  H299  1  0.91840994  0.84910982  0.26532238  1
  H+  H300  1  0.33994491  0.16430208  0.38423667  1
  H+  H301  1  0.84341540  0.66665652  0.44643149  1
  H+  H302  1  0.79625358  0.90006726  0.49957136  1
  H+  H303  1  0.64786426  0.83410915  0.87789864  1
  H+  H304  1  0.15612495  0.08018752  0.26804794  1
  H+  H305  1  0.08912032  0.66453453  0.06588138  1
  H+  H306  1  0.38720885  0.81003641  0.59821602  1
  H+  H307  1  0.91864330  0.57662851  0.93798517  1
  H+  H308  1  0.41852623  0.57871146  0.90135590  1
  H+  H309  1  0.86983573  0.33501615  0.31731964  1
  H+  H310  1  0.16672502  0.08777549  0.93514797  1
  H+  H311  1  0.16039377  0.57384799  0.90202495  1
  H+  H312  1  0.61473306  0.39847227  0.83783418  1
  H+  H313  1  0.67344537  0.85194703  0.22382690  1
  H+  H314  1  0.68977098  0.07868132  0.24419205  1
  H+  H315  1  0.42281878  0.84525270  0.93023727  1
  H+  H316  1  0.90561436  0.31218933  0.22551559  1
  H+  H317  1  0.17065234  0.05466125  0.59543322  1
  H+  H318  1  0.90670213  0.82267618  0.60579286  1
  H+  H319  1  0.45218071  0.21631525  0.44402594  1
  H+  H320  1  0.17720865  0.59901007  0.24572402  1
  H+  H321  1  0.65752062  0.08310910  0.92406882  1
  H+  H322  1  0.82118677  0.65702956  0.09445417  1
  H+  H323  1  0.38448456  0.04011253  0.55109695  1
  H+  H324  1  0.12094878  0.51969786  0.32647609  1
  H+  H325  1  0.66043536  0.58646977  0.22949820  1
  H+  H326  1  0.07437003  0.78262623  0.28257946  1
  H+  H327  1  0.82275644  0.67338715  0.74740464  1
  H+  H328  1  0.92258985  0.30522908  0.56392386  1
  H+  H329  1  0.32564370  0.40049242  0.74047810  1
  H+  H330  1  0.22689675  0.11506777  0.83960965  1
  H+  H331  1  0.59389672  0.18918223  0.74167165  1
  H+  H332  1  0.79737075  0.02937751  0.60835298  1
  H+  H333  1  0.59166898  0.21108710  0.33827807  1
  H+  H334  1  0.81377668  0.90949489  0.40112376  1
  H+  H335  1  0.40785676  0.56989720  0.59854003  1
  H+  H336  1  0.69606375  0.85888764  0.66691689  1
  H+  H337  1  0.41664633  0.32914945  0.60184735  1
  H+  H338  1  0.19201533  0.34471288  0.98763949  1
  H+  H339  1  0.57947433  0.65647886  0.76840900  1
  H+  H340  1  0.16169615  0.33284107  0.26932109  1
  H+  H341  1  0.89829508  0.82993696  0.93387645  1
  H+  H342  1  0.92357350  0.58676793  0.26682965  1
  H+  H343  1  0.85526793  0.23222967  -0.00109788  1
  H+  H344  1  0.65294911  0.31697037  0.26842204  1
  H+  H345  1  0.91622216  0.07298886  0.89672790  1
  H+  H346  1  0.83898507  0.15436549  0.08385408  1
  H+  H347  1  0.24267174  0.59253782  0.81348930  1
  H+  H348  1  0.83722372  0.17379608  0.73273880  1
  H+  H349  1  0.37591389  0.75113940  0.51619919  1
  H+  H350  1  0.61111354  0.68874008  0.08944088  1
  H+  H351  1  0.84053588  0.91406100  0.10631626  1
  H+  H352  1  0.86584638  0.64408346  0.31097021  1
  H+  H353  1  0.42356733  0.33588953  0.26029632  1
  H+  H354  1  0.34680410  0.68773524  0.10021671  1
  H+  H355  1  0.16049401  0.85707402  0.59473447  1
  H+  H356  1  0.31909055  0.65381139  0.40805242  1
  H+  H357  1  0.11193642  0.13677077  0.00516819  1
  H+  H358  1  0.91534285  0.10517633  0.55968233  1
  H+  H359  1  0.92780779  0.08831139  0.25839063  1
  H+  H360  1  0.07295837  0.91215147  0.44532912  1
  H+  H361  1  0.27349957  0.81619613  0.44576420  1
  H+  H362  1  0.66702764  0.56755881  0.57140969  1
  H+  H363  1  0.07248530  0.66354664  0.41060814  1
  H+  H364  1  0.34194901  0.91267043  0.06516027  1
  H+  H365  1  0.08192872  0.66721264  0.77606157  1
  H+  H366  1  0.32246909  0.17435199  0.09717471  1
  H+  H367  1  0.46537063  0.10343956  0.32051373  1
  H+  H368  1  0.16660577  0.34461677  0.55665895  1
  H+  H369  1  0.57453476  0.42686267  0.74250369  1
  H+  H370  1  0.82462168  0.41504409  0.07345265  1
  H+  H371  1  0.57275161  0.39190855  0.08046696  1
  H+  H372  1  0.08229583  0.16777709  0.09929105  1
  H+  H373  1  0.44209153  0.46423429  0.08241454  1
  H+  H374  1  0.30659225  0.63502397  0.72192340  1
  H+  H375  1  0.57323557  0.68267110  0.43012696  1
  H+  H376  1  0.42173212  0.07115421  0.23188864  1
  H+  H377  1  0.14602767  0.32157016  0.89534574  1
  H+  H378  1  0.61304984  0.86382732  0.31150515  1
  H+  H379  1  0.82242020  0.14956782  0.38713528  1
  H+  H380  1  0.37359244  0.38535330  0.17083096  1
  H+  H381  1  0.59530971  0.92080024  0.09246090  1
  H+  H382  1  0.58638760  0.16066494  0.09664776  1
  H+  H383  1  0.07331897  0.41394844  0.76880108  1
  O2-  O384  1  0.08174033  0.16742285  0.14493011  1
  O2-  O385  1  0.08389656  0.16759452  0.47766677  1
  O2-  O386  1  0.08614555  0.16712580  0.80818225  1
  O2-  O387  1  0.06299183  0.40770206  0.14150690  1
  O2-  O388  1  0.07998120  0.41389646  0.46925214  1
  O2-  O389  1  0.07697987  0.41360548  0.81416895  1
  O2-  O390  1  0.08965329  0.66807291  0.14576982  1
  O2-  O391  1  0.06950109  0.66139839  0.48616739  1
  O2-  O392  1  0.08172489  0.66835203  0.82146173  1
  O2-  O393  1  0.08349001  0.90740871  0.14544402  1
  O2-  O394  1  0.07677526  0.91352752  0.49003938  1
  O2-  O395  1  0.08131687  0.91805055  0.82369544  1
  O2-  O396  1  0.31353053  0.18058752  0.14230655  1
  O2-  O397  1  0.39232257  0.18507669  0.45712865  1
  O2-  O398  1  0.33338700  0.16795215  0.81197822  1
  O2-  O399  1  0.32317971  0.44002919  0.14331696  1
  O2-  O400  1  0.34216552  0.41681202  0.48058814  1
  O2-  O401  1  0.32862095  0.40502613  0.81945444  1
  O2-  O402  1  0.35586683  0.69362779  0.14519644  1
  O2-  O403  1  0.32145438  0.65632296  0.49237275  1
  O2-  O404  1  0.28470078  0.59016929  0.78530163  1
  O2-  O405  1  0.34482437  0.90350509  0.14294666  1
  O2-  O406  1  0.32024382  0.87122810  0.46012673  1
  O2-  O407  1  0.32572599  0.92466732  0.80373218  1
  O2-  O408  1  0.59190193  0.16243374  0.14207401  1
  O2-  O409  1  0.56243517  0.13576576  0.47759175  1
  O2-  O410  1  0.58432865  0.17675114  0.81484826  1
  O2-  O411  1  0.56701869  0.39632895  0.14784238  1
  O2-  O412  1  0.58708716  0.40760203  0.47412500  1
  O2-  O413  1  0.58274284  0.42852187  0.82649159  1
  O2-  O414  1  0.60478882  0.68240406  0.13433300  1
  O2-  O415  1  0.56018347  0.70098083  0.46973076  1
  O2-  O416  1  0.58016382  0.66232028  0.81388936  1
  O2-  O417  1  0.60645325  0.92424145  0.13669159  1
  O2-  O418  1  0.57630114  0.88178377  0.55161164  1
  O2-  O419  1  0.58963200  0.92872126  0.79101486  1
  O2-  O420  1  0.84218135  0.15947015  0.12853290  1
  O2-  O421  1  0.79916305  0.13995517  0.46491630  1
  O2-  O422  1  0.83840491  0.16782613  0.80488989  1
  O2-  O423  1  0.82507949  0.41045525  0.15063246  1
  O2-  O424  1  0.82158423  0.38942380  0.46988599  1
  O2-  O425  1  0.82834254  0.41900687  0.81551974  1
  O2-  O426  1  0.82408416  0.66008820  0.13980542  1
  O2-  O427  1  0.84585506  0.66449560  0.49058956  1
  O2-  O428  1  0.83066256  0.66739029  0.85146773  1
  O2-  O429  1  0.84351406  0.91667624  0.15187108  1
  O2-  O430  1  0.85377636  0.93090774  0.47804355  1
  O2-  O431  1  0.82404938  0.91604529  0.80598361  1
  O2-  O432  1  0.15275205  0.07447061  0.18927873  1
  O2-  O433  1  0.14888010  0.06840948  0.52054479  1
  O2-  O434  1  0.16744539  0.08731417  0.85655079  1
  O2-  O435  1  0.16104450  0.33452510  0.18762524  1
  O2-  O436  1  0.16957577  0.33566299  0.51187309  1
  O2-  O437  1  0.15790933  0.32679788  0.85115092  1
  O2-  O438  1  0.18824317  0.60235955  0.19958877  1
  O2-  O439  1  0.15089890  0.57455441  0.52027714  1
  O2-  O440  1  0.15295098  0.57388097  0.85747966  1
  O2-  O441  1  0.17710580  0.83737240  0.18088751  1
  O2-  O442  1  0.14353820  0.82826312  0.52316079  1
  O2-  O443  1  0.16931322  0.83635274  0.85677482  1
  O2-  O444  1  0.42997358  0.06502901  0.18554147  1
  O2-  O445  1  0.38867125  0.04405360  0.50586111  1
  O2-  O446  1  0.41629721  0.08881805  0.85374187  1
  O2-  O447  1  0.39962911  0.34947531  0.18131053  1
  O2-  O448  1  0.42214498  0.33463991  0.52213385  1
  O2-  O449  1  0.41613366  0.32946586  0.86008451  1
  O2-  O450  1  0.42865781  0.59516392  0.16842317  1
  O2-  O451  1  0.40987019  0.57687887  0.52293084  1
  O2-  O452  1  0.41300717  0.56916650  0.85664830  1
  O2-  O453  1  0.45009644  0.85084534  0.19613610  1
  O2-  O454  1  0.40496480  0.81339037  0.53158284  1
  O2-  O455  1  0.45470376  0.91029180  0.85912163  1
  O2-  O456  1  0.70546173  0.13073518  0.19643614  1
  O2-  O457  1  0.64505940  0.05630049  0.53449374  1
  O2-  O458  1  0.66627945  0.08984563  0.84675592  1
  O2-  O459  1  0.65683880  0.32273151  0.19071788  1
  O2-  O460  1  0.65607471  0.30932935  0.50522507  1
  O2-  O461  1  0.66326946  0.33736100  0.85761146  1
  O2-  O462  1  0.66794954  0.59657506  0.18236255  1
  O2-  O463  1  0.67123453  0.56052705  0.52692353  1
  O2-  O464  1  0.67003899  0.59561902  0.86827682  1
  O2-  O465  1  0.67705804  0.84000489  0.17969491  1
  O2-  O466  1  0.70490365  0.83839780  0.53124249  1
  O2-  O467  1  0.65020190  0.82990616  0.83317292  1
  O2-  O468  1  0.92131442  0.08116530  0.18860263  1
  O2-  O469  1  0.92742509  0.12459245  0.51658731  1
  O2-  O470  1  0.91685072  0.07838314  0.85195503  1
  O2-  O471  1  0.90714590  0.31893632  0.17971490  1
  O2-  O472  1  0.92711973  0.28911108  0.52031555  1
  O2-  O473  1  0.93333190  0.37023399  0.88123095  1
  O2-  O474  1  0.92041485  0.58045524  0.18359173  1
  O2-  O475  1  0.90418621  0.55125798  0.52057061  1
  O2-  O476  1  0.91752262  0.57804838  0.86069621  1
  O2-  O477  1  0.91621415  0.82150355  0.18340168  1
  O2-  O478  1  0.91974787  0.82836088  0.52854171  1
  O2-  O479  1  0.91145925  0.84389600  0.85480350  1
  O2-  O480  1  0.15773915  0.08275774  0.31359846  1
  O2-  O481  1  0.18301378  0.03742410  0.63586704  1
  O2-  O482  1  0.16443741  0.08804221  0.98074070  1
  O2-  O483  1  0.15743631  0.33359972  0.31435733  1
  O2-  O484  1  0.16411910  0.36205654  0.63186740  1
  O2-  O485  1  0.13075395  0.31914234  0.97782190  1
  O2-  O486  1  0.15443470  0.58226231  0.31552167  1
  O2-  O487  1  0.14624914  0.57926475  0.64328877  1
  O2-  O488  1  0.16995735  0.57795218  0.98678375  1
  O2-  O489  1  0.12533819  0.82100045  0.30615886  1
  O2-  O490  1  0.17441194  0.88199442  0.63749600  1
  O2-  O491  1  0.17079989  0.82461902  0.98099640  1
  O2-  O492  1  0.40647814  0.07521650  0.29912645  1
  O2-  O493  1  0.40268657  0.05588653  0.63053817  1
  O2-  O494  1  0.40830991  0.08080619  0.97995416  1
  O2-  O495  1  0.44353150  0.32225411  0.29818695  1
  O2-  O496  1  0.41349801  0.32282177  0.64712868  1
  O2-  O497  1  0.42313704  0.32957921  0.98275012  1
  O2-  O498  1  0.40409759  0.57274604  0.32275730  1
  O2-  O499  1  0.40368784  0.57079896  0.64438807  1
  O2-  O500  1  0.43635410  0.60285526  0.98323521  1
  O2-  O501  1  0.47274005  0.85504691  0.31892425  1
  O2-  O502  1  0.38029442  0.80657495  0.64557081  1
  O2-  O503  1  0.41665441  0.83215384  0.97433848  1
  O2-  O504  1  0.68572664  0.04684424  0.28814303  1
  O2-  O505  1  0.65770485  0.08489415  0.65872534  1
  O2-  O506  1  0.65430272  0.08083349  0.96970794  1
  O2-  O507  1  0.65408182  0.31602485  0.31394007  1
  O2-  O508  1  0.69404761  0.34767057  0.62458738  1
  O2-  O509  1  0.66534474  0.32509364  0.98072456  1
  O2-  O510  1  0.65799826  0.57839315  0.29810905  1
  O2-  O511  1  0.65905635  0.58498767  0.65199247  1
  O2-  O512  1  0.66467976  0.59688771  0.93661368  1
  O2-  O513  1  0.67285931  0.89884980  0.29241162  1
  O2-  O514  1  0.63290410  0.83457030  0.66486715  1
  O2-  O515  1  0.67676043  0.86702167  0.95876828  1
  O2-  O516  1  0.92860163  0.09093298  0.30566961  1
  O2-  O517  1  0.85434144  0.05956721  0.62673399  1
  O2-  O518  1  0.91210147  0.06341199  0.98362163  1
  O2-  O519  1  0.90559253  0.30802117  0.30130017  1
  O2-  O520  1  0.91708002  0.33342762  0.63368893  1
  O2-  O521  1  0.90063957  0.32129214  0.99469890  1
  O2-  O522  1  0.91614943  0.59679296  0.31012511  1
  O2-  O523  1  0.90394012  0.56329439  0.71182443  1
  O2-  O524  1  0.91556621  0.57843005  0.98356567  1
  O2-  O525  1  0.91296103  0.84866393  0.31033535  1
  O2-  O526  1  0.89860962  0.82165180  0.65121880  1
  O2-  O527  1  0.89199730  0.82233175  0.97879271  1
  O2-  O528  1  0.07694129  0.16285915  0.02084426  1
  O2-  O529  1  0.07651157  0.16272795  0.35416647  1
  O2-  O530  1  0.17091090  0.22930040  0.69607393  1
  O2-  O531  1  0.08781588  0.42777095  0.02343574  1
  O2-  O532  1  0.06845373  0.41252886  0.34580460  1
  O2-  O533  1  0.07185148  0.41929655  0.69028596  1
  O2-  O534  1  0.08820670  0.66038696  0.02054105  1
  O2-  O535  1  0.07531717  0.66396989  0.36474545  1
  O2-  O536  1  0.06741963  0.65829431  0.69742117  1
  O2-  O537  1  0.09841914  0.91901477  0.02812400  1
  O2-  O538  1  0.07420950  0.91815971  0.35696571  1
  O2-  O539  1  0.06000781  0.90846207  0.70094565  1
  O2-  O540  1  0.33011850  0.16779144  0.02419095  1
  O2-  O541  1  0.32512263  0.15727449  0.34033696  1
  O2-  O542  1  0.33678715  0.15883559  0.68629729  1
  O2-  O543  1  0.45295180  0.47780716  0.03927600  1
  O2-  O544  1  0.32970987  0.41522828  0.36423402  1
  O2-  O545  1  0.31308514  0.38434754  0.69649107  1
  O2-  O546  1  0.33579681  0.66908850  0.02053447  1
  O2-  O547  1  0.32087040  0.65318224  0.36325258  1
  O2-  O548  1  0.31580785  0.65237656  0.67677913  1
  O2-  O549  1  0.33885713  0.91362220  0.01957705  1
  O2-  O550  1  0.31989032  0.90844584  0.32757347  1
  O2-  O551  1  0.31849080  0.90137909  0.68302785  1
  O2-  O552  1  0.57392017  0.16080893  0.01880682  1
  O2-  O553  1  0.55627657  0.14894653  0.34897030  1
  O2-  O554  1  0.59800052  0.19149799  0.69544573  1
  O2-  O555  1  0.58022281  0.39570091  0.03307131  1
  O2-  O556  1  0.59318860  0.42439584  0.34840698  1
  O2-  O557  1  0.57767321  0.42906622  0.69761639  1
  O2-  O558  1  0.61439812  0.69893680  0.00406266  1
  O2-  O559  1  0.58582869  0.66467541  0.35479590  1
  O2-  O560  1  0.57363790  0.66339591  0.69058121  1
  O2-  O561  1  0.58247864  0.91920538  0.01075187  1
  O2-  O562  1  0.51609055  0.81381166  0.33454247  1
  O2-  O563  1  0.57851760  0.92749819  0.72454487  1
  O2-  O564  1  0.82488497  0.16174102  -0.00099173  1
  O2-  O565  1  0.83412902  0.15139889  0.34243107  1
  O2-  O566  1  0.83147684  0.17566727  0.68647215  1
  O2-  O567  1  0.82444152  0.41266944  0.02785022  1
  O2-  O568  1  0.82116361  0.37641918  0.34260186  1
  O2-  O569  1  0.85866868  0.44519272  0.62524918  1
  O2-  O570  1  0.81682632  0.64834504  0.01175385  1
  O2-  O571  1  0.83027482  0.67433528  0.30354918  1
  O2-  O572  1  0.82643125  0.66345724  0.70413584  1
  O2-  O573  1  0.82947969  0.90542253  0.02951541  1
  O2-  O574  1  0.79192079  0.89157039  0.35910076  1
  O2-  O575  1  0.81233317  0.90495289  0.68397977  1
