# generated using pymatgen
data_H2O
_symmetry_space_group_name_H-M   'P 1'
_cell_length_a   17.98889536
_cell_length_b   17.99210684
_cell_length_c   22.00398383
_cell_angle_alpha   89.98106900
_cell_angle_beta   90.00829184
_cell_angle_gamma   120.02008636
_symmetry_Int_Tables_number   1
_chemical_formula_structural   H2O
_chemical_formula_sum   'H384 O192'
_cell_volume   6166.38311345
_cell_formula_units_Z   192
loop_
 _symmetry_equiv_pos_site_id
 _symmetry_equiv_pos_as_xyz
  1  'x, y, z'
loop_
 _atom_type_symbol
 _atom_type_oxidation_number
  H+  1.0
  O2-  -2.0
loop_
 _atom_site_type_symbol
 _atom_site_label
 _atom_site_symmetry_multiplicity
 _atom_site_fract_x
 _atom_site_fract_y
 _atom_site_fract_z
 _atom_site_occupancy
  H+  H0  1  0.15538344  0.10773656  0.51146702  1
  H+  H1  1  0.78142940  0.62768868  0.82014914  1
  H+  H2  1  0.25338126  0.62837248  0.32727433  1
  H+  H3  1  0.27422083  0.88491331  0.48107864  1
  H+  H4  1  0.12539722  0.22676106  0.17063113  1
  H+  H5  1  0.77368834  0.63912289  0.48976642  1
  H+  H6  1  0.35504351  0.54870964  0.88926377  1
  H+  H7  1  0.61671273  1.03558234  0.18482454  1
  H+  H8  1  0.90980950  0.52482792  0.65858748  1
  H+  H9  1  0.36216407  0.38758684  0.34341501  1
  H+  H10  1  0.48922968  0.37272279  0.50760945  1
  H+  H11  1  0.25817392  0.36986629  0.81581359  1
  H+  H12  1  0.14305814  0.01473283  0.32422415  1
  H+  H13  1  0.79871399  0.14836322  -0.00470998  1
  H+  H14  1  0.35593978  0.48148617  0.15696213  1
  H+  H15  1  0.02178688  0.39137733  0.82380471  1
  H+  H16  1  0.37325557  0.47406781  0.66426852  1
  H+  H17  1  0.50255542  0.33798195  0.68656275  1
  H+  H18  1  0.11748222  0.62896641  0.84271414  1
  H+  H19  1  0.81329650  0.39656996  0.42441552  1
  H+  H20  1  0.14863338  0.86552763  0.33139757  1
  H+  H21  1  0.26986954  0.39054253  0.16119692  1
  H+  H22  1  0.20864690  0.62285744  0.65732151  1
  H+  H23  1  0.89084438  0.60464947  0.18003487  1
  H+  H24  1  0.40435986  0.11771062  0.29769493  1
  H+  H25  1  0.11438993  0.40050461  0.82523119  1
  H+  H26  1  1.02313073  0.88991392  0.49337512  1
  H+  H27  1  0.38628963  0.86044772  0.65771892  1
  H+  H28  1  0.80427698  0.64039528  0.88970781  1
  H+  H29  1  0.36953598  0.14794614  0.00806279  1
  H+  H30  1  0.09057242  -0.03998631  0.15497624  1
  H+  H31  1  0.87914250  0.82188571  0.18032539  1
  H+  H32  1  0.36919163  0.34831739  0.83826675  1
  H+  H33  1  0.60660772  0.71800383  0.49081325  1
  H+  H34  1  0.34101108  0.75097266  0.00787948  1
  H+  H35  1  0.88450543  0.77170392  0.84410410  1
  H+  H36  1  0.26335564  0.63393683  0.82243611  1
  H+  H37  1  0.01037930  0.58560615  0.33070081  1
  H+  H38  1  0.59473637  0.65192824  0.17260753  1
  H+  H39  1  0.12245142  0.23202758  -0.00433354  1
  H+  H40  1  0.63798639  0.24490406  0.84221526  1
  H+  H41  1  0.34333385  0.45952928  0.81853340  1
  H+  H42  1  0.61954239  0.39373126  0.49277573  1
  H+  H43  1  0.64109566  0.76966105  0.32305179  1
  H+  H44  1  0.02878889  0.88081118  0.33686618  1
  H+  H45  1  0.12471644  0.22351569  0.33127248  1
  H+  H46  1  1.02481449  0.38153478  1.00965566  1
  H+  H47  1  0.27890388  0.12576746  0.32020556  1
  H+  H48  1  0.39815155  0.86929606  0.31658982  1
  H+  H49  1  0.23342143  0.59112595  0.18665481  1
  H+  H50  1  0.87141503  0.38370813  0.66737062  1
  H+  H51  1  0.39988976  0.03435695  0.14450597  1
  H+  H52  1  0.25128708  0.81311093  -0.00103282  1
  H+  H53  1  0.66600979  0.58041492  0.99486715  1
  H+  H54  1  0.86516820  0.47196775  0.16221988  1
  H+  H55  1  0.72678309  0.60239077  0.17692975  1
  H+  H56  1  0.90430240  0.79185344  -0.00715459  1
  H+  H57  1  0.10757199  0.39407015  0.66456918  1
  H+  H58  1  0.46539360  0.35297217  0.17119405  1
  H+  H59  1  0.87731467  0.51937422  0.48261578  1
  H+  H60  1  0.53069116  0.16063175  0.14897005  1
  H+  H61  1  0.13445666  0.11613272  0.66625199  1
  H+  H62  1  0.32819541  0.92149337  0.90895832  1
  H+  H63  1  0.11135238  0.72359218  0.83623314  1
  H+  H64  1  0.88493668  0.04707415  0.18086416  1
  H+  H65  1  0.86288912  0.92487975  0.16582745  1
  H+  H66  1  0.12231162  0.13992591  0.99225705  1
  H+  H67  1  0.61252127  0.21520401  0.49600680  1
  H+  H68  1  0.40307389  0.33035157  0.93746418  1
  H+  H69  1  0.47289428  0.61071075  0.31770143  1
  H+  H70  1  0.35487260  0.71833729  0.82284220  1
  H+  H71  1  0.52493638  0.89021568  0.15471884  1
  H+  H72  1  0.86975529  0.12854339  0.66253610  1
  H+  H73  1  0.63681070  0.34356354  0.84374526  1
  H+  H74  1  0.38412546  0.83799716  0.16193563  1
  H+  H75  1  1.02028038  0.62419503  0.83229647  1
  H+  H76  1  0.23072200  0.37315432  0.99147590  1
  H+  H77  1  0.09797864  0.48213761  0.50536273  1
  H+  H78  1  0.43741293  0.11119144  0.94128459  1
  H+  H79  1  0.12863226  0.28037294  0.65326422  1
  H+  H80  1  0.02362096  0.88866608  0.67148497  1
  H+  H81  1  0.60993252  0.62939276  0.49008874  1
  H+  H82  1  0.14720933  0.10620788  0.31855399  1
  H+  H83  1  0.90035171  0.10388187  0.83049466  1
  H+  H84  1  0.71868289  0.86102733  0.17498948  1
  H+  H85  1  0.11736957  0.97230876  0.49782951  1
  H+  H86  1  0.85862954  0.45771567  0.81752211  1
  H+  H87  1  0.72660948  0.86826512  0.65165773  1
  H+  H88  1  1.01478415  0.13359431  0.98709500  1
  H+  H89  1  0.37605504  0.39068181  0.49375897  1
  H+  H90  1  0.62602809  0.13752238  0.85774660  1
  H+  H91  1  0.11128851  0.60653391  0.50838559  1
  H+  H92  1  0.13348465  0.85723673  0.49986775  1
  H+  H93  1  0.37958707  0.85260956  0.85538962  1
  H+  H94  1  0.62920914  0.10752182  0.50429067  1
  H+  H95  1  0.66152869  0.07230093  0.98203096  1
  H+  H96  1  0.77227222  0.89300679  0.01334576  1
  H+  H97  1  0.45536558  0.34269030  0.84683004  1
  H+  H98  1  0.78692683  0.39240274  0.66675673  1
  H+  H99  1  0.15276495  0.88993269  0.15510457  1
  H+  H100  1  0.61219770  0.87678238  0.33986593  1
  H+  H101  1  0.72298151  0.86811807  0.84247494  1
  H+  H102  1  0.23162093  0.11722586  -0.01041672  1
  H+  H103  1  0.58548855  0.16797209  0.43219061  1
  H+  H104  1  0.85490071  0.87965395  0.00936750  1
  H+  H105  1  0.13912627  0.36251372  0.17864038  1
  H+  H106  1  0.13202155  0.10384574  0.17283277  1
  H+  H107  1  0.60320960  0.62163394  0.33188177  1
  H+  H108  1  0.27754097  0.11926137  0.82514139  1
  H+  H109  1  -0.03746252  0.36160075  0.50589236  1
  H+  H110  1  0.75281725  0.63034669  0.64769993  1
  H+  H111  1  0.86708068  0.13154757  0.34539779  1
  H+  H112  1  0.78112022  0.88801208  0.33628873  1
  H+  H113  1  0.83819189  0.44942658  1.00741259  1
  H+  H114  1  0.81234527  0.42439567  0.33328561  1
  H+  H115  1  0.37902835  0.61523050  0.64545339  1
  H+  H116  1  0.47169380  0.61920284  0.64324547  1
  H+  H117  1  0.57714272  0.64817312  0.89358173  1
  H+  H118  1  0.84239611  0.12761584  0.50312233  1
  H+  H119  1  0.90751767  0.55962825  0.23537039  1
  H+  H120  1  0.35599164  0.97898161  0.48158591  1
  H+  H121  1  0.38571540  0.84966309  1.01984545  1
  H+  H122  1  0.71949156  0.37500253  0.18436550  1
  H+  H123  1  0.40080118  0.03226298  0.85310305  1
  H+  H124  1  0.36261297  0.97608770  0.66343360  1
  H+  H125  1  0.91942396  0.84359743  0.92980123  1
  H+  H126  1  0.63569004  0.78370667  0.64435910  1
  H+  H127  1  0.42123047  0.91466923  0.50959448  1
  H+  H128  1  0.49292546  0.63778121  1.01897993  1
  H+  H129  1  0.61061574  0.89851640  0.82446772  1
  H+  H130  1  0.77139822  0.73110628  0.37411534  1
  H+  H131  1  0.77461693  0.07854978  0.80127066  1
  H+  H132  1  0.61415252  0.89343058  0.66739514  1
  H+  H133  1  0.63442808  0.28711172  0.18354698  1
  H+  H134  1  1.00319166  0.55590047  0.35698648  1
  H+  H135  1  0.49168620  0.63715505  0.86413039  1
  H+  H136  1  0.64205226  0.52641974  0.49990312  1
  H+  H137  1  0.66086726  0.27536189  0.66783885  1
  H+  H138  1  0.48461535  0.79236163  0.46682393  1
  H+  H139  1  0.87212931  0.35844986  0.50342540  1
  H+  H140  1  0.27081193  0.13601353  0.67549772  1
  H+  H141  1  0.87906993  0.26033024  0.32820179  1
  H+  H142  1  0.23883530  0.35907712  0.49515765  1
  H+  H143  1  0.61362009  0.15637545  0.16501216  1
  H+  H144  1  0.99928335  0.61974005  1.00013547  1
  H+  H145  1  0.06875985  0.39623870  0.40893249  1
  H+  H146  1  0.37118598  0.64352203  0.33020808  1
  H+  H147  1  0.26025931  0.12901881  0.15629338  1
  H+  H148  1  0.76556264  0.88163423  0.48656541  1
  H+  H149  1  0.24317189  0.87771941  0.32188568  1
  H+  H150  1  0.51789041  0.88573904  0.82206635  1
  H+  H151  1  0.86394659  0.96843037  0.82316192  1
  H+  H152  1  0.73221943  0.10699446  0.65324383  1
  H+  H153  1  0.11231214  0.97707673  0.67747338  1
  H+  H154  1  0.59207455  0.43968884  0.84043230  1
  H+  H155  1  0.13422743  0.21984778  0.48387636  1
  H+  H156  1  0.50675893  0.36513242  0.01394477  1
  H+  H157  1  0.94969745  0.74668299  0.06718531  1
  H+  H158  1  0.63126477  1.01596957  0.33422371  1
  H+  H159  1  0.13027364  0.52476548  0.84530587  1
  H+  H160  1  0.58282343  0.67156724  0.70430572  1
  H+  H161  1  0.63713266  0.81793794  1.00265859  1
  H+  H162  1  0.79994590  0.54887735  0.31057396  1
  H+  H163  1  0.37941834  0.10302445  0.65464007  1
  H+  H164  1  0.13687373  0.60002278  1.00368190  1
  H+  H165  1  0.23062018  0.94203647  0.19843422  1
  H+  H166  1  0.66170251  0.61300656  0.77395122  1
  H+  H167  1  0.38677241  0.65279949  0.48176223  1
  H+  H168  1  0.09000574  0.17064332  0.74001273  1
  H+  H169  1  0.02971895  0.90050217  -0.00041594  1
  H+  H170  1  0.38621483  0.98773445  0.32468746  1
  H+  H171  1  0.47606916  0.86229493  0.65988113  1
  H+  H172  1  0.02136282  0.38340204  0.16900094  1
  H+  H173  1  0.38977687  0.11871313  0.49739809  1
  H+  H174  1  0.36299972  0.26079549  0.16320924  1
  H+  H175  1  0.29220222  0.90679850  0.13168549  1
  H+  H176  1  0.62089509  0.64924773  0.64775315  1
  H+  H177  1  0.59838241  0.44536216  0.03130112  1
  H+  H178  1  0.71690297  0.61570615  0.32422472  1
  H+  H179  1  0.14162853  0.02895827  0.99283106  1
  H+  H180  1  0.87298472  0.71726279  0.18110322  1
  H+  H181  1  0.61548811  0.83685616  0.49508474  1
  H+  H182  1  0.40188442  0.11994523  0.83917291  1
  H+  H183  1  0.84885507  0.22217211  0.49763043  1
  H+  H184  1  0.91148701  0.66776178  1.02269042  1
  H+  H185  1  0.63777511  0.02212791  0.65678410  1
  H+  H186  1  0.05325954  0.12489798  0.48051766  1
  H+  H187  1  0.14968864  0.34905153  0.47609707  1
  H+  H188  1  0.64260615  0.69907101  0.03344075  1
  H+  H189  1  0.38386117  0.26439818  0.65767121  1
  H+  H190  1  0.38425352  0.11376261  0.15655675  1
  H+  H191  1  0.91104890  0.32732671  0.59807889  1
  H+  H192  1  0.94183936  0.11309185  0.51462855  1
  H+  H193  1  1.01924442  0.15132211  0.69035646  1
  H+  H194  1  0.22599713  0.60019704  1.00111033  1
  H+  H195  1  0.52790411  0.27526298  0.71893635  1
  H+  H196  1  0.13657715  0.36318928  0.99703673  1
  H+  H197  1  0.90740689  0.12499355  0.98691790  1
  H+  H198  1  0.55054040  0.94975581  0.00370006  1
  H+  H199  1  0.88630849  0.59425478  0.84554203  1
  H+  H200  1  0.84918873  0.97426661  0.49377860  1
  H+  H201  1  0.22601429  0.36210578  0.33316585  1
  H+  H202  1  0.13731068  0.21153202  0.83264127  1
  H+  H203  1  0.02053133  0.87742306  0.82351172  1
  H+  H204  1  0.96204245  0.06773101  0.63301970  1
  H+  H205  1  0.61814007  0.17437050  0.74305449  1
  H+  H206  1  0.06088490  0.61717391  0.67129901  1
  H+  H207  1  0.49687795  0.15297087  0.99873483  1
  H+  H208  1  0.16661154  0.63831214  0.33423091  1
  H+  H209  1  0.59704688  0.36822696  0.34513516  1
  H+  H210  1  0.72929298  0.11829804  0.50591946  1
  H+  H211  1  0.66710243  0.52934220  0.76460618  1
  H+  H212  1  0.76458107  0.38808664  0.48696546  1
  H+  H213  1  0.57112203  0.28369383  0.54119006  1
  H+  H214  1  0.74455683  0.13690728  0.88091818  1
  H+  H215  1  0.22479116  0.86199799  0.64873631  1
  H+  H216  1  0.35751476  0.23055799  0.00812343  1
  H+  H217  1  0.88928340  0.26509087  0.83357117  1
  H+  H218  1  0.13932159  1.00490280  0.83836173  1
  H+  H219  1  0.37021041  0.64008636  0.01518072  1
  H+  H220  1  0.12267098  0.70817761  0.02635712  1
  H+  H221  1  0.63354996  0.51732939  0.17395004  1
  H+  H222  1  0.13081211  0.35026657  0.33430975  1
  H+  H223  1  0.87598203  0.61418480  0.48507521  1
  H+  H224  1  0.89253968  0.27752326  0.17197780  1
  H+  H225  1  0.38259793  0.36950184  0.99644971  1
  H+  H226  1  0.68466598  0.30328493  0.34175917  1
  H+  H227  1  0.37241881  0.49067636  1.00860833  1
  H+  H228  1  1.03396208  0.14331627  0.17132440  1
  H+  H229  1  0.85382993  0.96687957  0.66817652  1
  H+  H230  1  0.97661179  0.61916510  0.48509101  1
  H+  H231  1  0.37440366  0.24227629  0.49910421  1
  H+  H232  1  0.89768961  0.77638429  0.65149293  1
  H+  H233  1  0.47034744  0.36565891  0.33301214  1
  H+  H234  1  0.62890729  0.79028690  0.86137861  1
  H+  H235  1  0.89055342  0.63758063  0.65628217  1
  H+  H236  1  0.32804381  0.66347819  0.71899815  1
  H+  H237  1  0.36063849  0.72629709  0.66174251  1
  H+  H238  1  0.88147154  0.85904925  0.83392295  1
  H+  H239  1  0.11436234  0.46847359  0.01253940  1
  H+  H240  1  0.83772075  0.35045493  0.33859867  1
  H+  H241  1  0.59481784  0.37453664  0.17672906  1
  H+  H242  1  0.75753723  0.35655008  0.01554053  1
  H+  H243  1  0.87978938  0.34837634  0.82911221  1
  H+  H244  1  0.53546236  0.13568780  0.84092155  1
  H+  H245  1  0.63655752  0.14515523  0.67918230  1
  H+  H246  1  0.13772910  0.86378005  0.65022900  1
  H+  H247  1  0.53586009  0.16159450  0.32812584  1
  H+  H248  1  0.08901002  0.39359573  0.52778568  1
  H+  H249  1  0.61394727  0.32703991  1.01654248  1
  H+  H250  1  0.60111189  0.74493604  0.17521746  1
  H+  H251  1  0.90381750  0.86843496  0.31647803  1
  H+  H252  1  0.66174736  0.54867062  0.65390557  1
  H+  H253  1  0.63172204  0.93742107  0.00510895  1
  H+  H254  1  0.37279285  0.73590099  0.32707865  1
  H+  H255  1  0.35969062  0.47631591  0.34148546  1
  H+  H256  1  0.88676711  0.78044047  0.50405377  1
  H+  H257  1  0.64495192  0.35383612  0.66827301  1
  H+  H258  1  0.11749871  0.62127540  0.16888576  1
  H+  H259  1  0.09821927  0.72829067  0.49446957  1
  H+  H260  1  0.87667142  0.15627530  0.15991336  1
  H+  H261  1  0.16414664  0.76050516  0.34980448  1
  H+  H262  1  0.35621715  0.21439678  0.82889731  1
  H+  H263  1  0.48858380  0.60895325  0.50175060  1
  H+  H264  1  1.02804449  0.62008735  0.16936331  1
  H+  H265  1  0.73151870  0.35024852  0.82866781  1
  H+  H266  1  0.89577279  0.02331018  0.32931296  1
  H+  H267  1  0.12439187  0.53146804  0.66010502  1
  H+  H268  1  0.83305136  0.40427421  0.75511778  1
  H+  H269  1  0.71991601  0.57611106  1.04841018  1
  H+  H270  1  0.12767468  0.11857307  0.82696880  1
  H+  H271  1  0.47303118  0.10817882  0.49830953  1
  H+  H272  1  0.58849553  0.41960179  0.43127626  1
  H+  H273  1  0.14809289  0.88461379  0.99159739  1
  H+  H274  1  -0.02465659  0.36084419  0.65599514  1
  H+  H275  1  0.88685682  0.23377713  -0.00072017  1
  H+  H276  1  1.01216429  0.36544917  0.34875814  1
  H+  H277  1  0.88589287  0.35613795  -0.00897280  1
  H+  H278  1  0.85483586  0.74976583  0.33743783  1
  H+  H279  1  0.61346073  0.46557817  0.33636300  1
  H+  H280  1  0.13892869  0.50783420  0.18622356  1
  H+  H281  1  0.08867758  0.28386629  0.85484663  1
  H+  H282  1  0.99014268  0.10350877  0.83559810  1
  H+  H283  1  0.15524883  0.82717786  0.89776277  1
  H+  H284  1  0.71927503  0.10322449  0.33133707  1
  H+  H285  1  0.39082711  0.51203072  0.50172673  1
  H+  H286  1  0.33236566  0.42643611  0.06473078  1
  H+  H287  1  0.51964190  0.88436027  0.49447085  1
  H+  H288  1  0.66891820  0.83693143  0.26825586  1
  H+  H289  1  0.58227385  0.92048034  0.72838286  1
  H+  H290  1  0.08086324  0.90625608  0.76374484  1
  H+  H291  1  0.93366648  0.08803917  0.92660474  1
  H+  H292  1  0.32131288  0.16676129  0.09647959  1
  H+  H293  1  0.59296438  0.94529310  0.10274469  1
  H+  H294  1  0.66324548  0.57338943  0.26216939  1
  H+  H295  1  0.89032087  0.06581880  0.58105418  1
  H+  H296  1  0.15452194  0.32764485  0.58951805  1
  H+  H297  1  0.85597320  0.87909817  0.67118578  1
  H+  H298  1  0.31370589  0.18799596  0.44523267  1
  H+  H299  1  0.33151531  0.64846544  0.07760588  1
  H+  H300  1  0.63852075  0.88036094  0.17420337  1
  H+  H301  1  0.37329140  0.36162956  0.16461660  1
  H+  H302  1  0.34439713  0.42048646  0.43248947  1
  H+  H303  1  0.16028121  0.33475726  0.90415412  1
  H+  H304  1  0.92021022  0.84186292  0.59699609  1
  H+  H305  1  0.10467406  0.16165749  0.38812071  1
  H+  H306  1  0.97740112  0.66556323  0.94870656  1
  H+  H307  1  0.64469681  0.58429650  0.90240342  1
  H+  H308  1  0.08199082  0.64148346  0.08182115  1
  H+  H309  1  0.56420997  0.88605199  0.39796877  1
  H+  H310  1  0.16658462  0.08275207  0.60945227  1
  H+  H311  1  0.07783463  0.91680130  0.06355877  1
  H+  H312  1  0.12598815  0.84871419  0.83400458  1
  H+  H313  1  0.33554247  0.16232354  0.73155287  1
  H+  H314  1  0.82980220  0.15897426  0.40203306  1
  H+  H315  1  0.58891277  0.70651206  0.08689479  1
  H+  H316  1  0.84379048  0.65858076  0.12001988  1
  H+  H317  1  0.92071859  0.33437930  0.93010389  1
  H+  H318  1  0.17472659  0.33778820  0.23754288  1
  H+  H319  1  0.66965523  0.62836205  0.91714157  1
  H+  H320  1  0.08463976  0.91460446  0.39845426  1
  H+  H321  1  0.35203968  0.14753194  0.36945246  1
  H+  H322  1  0.91863619  0.55589300  0.89590965  1
  H+  H323  1  0.16485096  0.82896516  0.55925844  1
  H+  H324  1  0.86954657  0.21876511  0.66624530  1
  H+  H325  1  0.08656715  0.67402350  0.43396107  1
  H+  H326  1  0.35048209  0.93038074  0.38616771  1
  H+  H327  1  0.55702370  0.38490090  0.11271291  1
  H+  H328  1  0.82483622  0.90849295  0.76416586  1
  H+  H329  1  0.37839892  0.70319117  0.17164817  1
  H+  H330  1  -0.01314571  0.11221448  0.32848340  1
  H+  H331  1  0.81622210  0.88005100  0.10391602  1
  H+  H332  1  0.67567697  0.59069496  0.55761086  1
  H+  H333  1  0.66274524  0.83005316  0.55495873  1
  H+  H334  1  0.66354741  0.08204399  0.56932125  1
  H+  H335  1  0.57513813  0.63695358  0.77957400  1
  H+  H336  1  0.44777235  0.88602633  0.56974965  1
  H+  H337  1  0.91084012  0.32475123  0.27046306  1
  H+  H338  1  0.67116484  0.86948298  0.93955863  1
  H+  H339  1  0.82734669  0.40435763  0.10732989  1
  H+  H340  1  0.14354062  0.58390766  0.56899433  1
  H+  H341  1  0.41588493  0.57987995  0.56467428  1
  H+  H342  1  0.56088419  0.37313082  0.78247256  1
  H+  H343  1  0.17591172  0.58471551  0.27135709  1
  H+  H344  1  0.38391687  0.27825563  0.32144964  1
  H+  H345  1  0.40552450  0.58454155  0.26234653  1
  H+  H346  1  0.57479840  0.65406417  0.39054439  1
  H+  H347  1  0.23977015  0.10518473  0.52185596  1
  H+  H348  1  0.43035429  0.33865396  0.56874373  1
  H+  H349  1  0.83643409  0.14588339  0.75426304  1
  H+  H350  1  0.08073505  0.42316133  0.72632331  1
  H+  H351  1  0.40817039  0.07462209  0.59467978  1
  H+  H352  1  0.60978945  0.21398681  0.06985184  1
  H+  H353  1  0.64011099  0.08827985  0.24670283  1
  H+  H354  1  0.21144525  0.73202165  0.39912449  1
  H+  H355  1  0.88981071  0.36458352  0.17892432  1
  H+  H356  1  0.82803232  0.68022518  0.42977194  1
  H+  H357  1  0.35896836  0.59945339  0.82977675  1
  H+  H358  1  0.83813348  0.91782615  0.39636889  1
  H+  H359  1  0.16334174  0.06555739  0.22626472  1
  H+  H360  1  0.08209429  0.41183614  0.10960926  1
  H+  H361  1  0.85382531  0.18127602  0.09628941  1
  H+  H362  1  0.33050311  0.91688641  0.72282523  1
  H+  H363  1  0.48368455  0.86129360  0.31925513  1
  H+  H364  1  0.40368588  0.80934686  0.90593219  1
  H+  H365  1  0.39900837  0.36142348  0.65953539  1
  H+  H366  1  0.44036423  0.08775347  0.24393839  1
  H+  H367  1  0.88363207  0.86804229  0.50321709  1
  H+  H368  1  0.16534254  0.58060246  0.90814533  1
  H+  H369  1  0.86300461  0.66872557  0.71369683  1
  H+  H370  1  0.27013521  0.88502044  0.85208292  1
  H+  H371  1  0.65711346  0.32238362  0.57686464  1
  H+  H372  1  0.92334073  0.81908758  0.25817316  1
  H+  H373  1  0.45448479  0.63584361  0.16710959  1
  H+  H374  1  0.92216935  0.09636123  0.24286865  1
  H+  H375  1  0.89007307  0.57368620  0.33748905  1
  H+  H376  1  0.34045450  0.41301786  0.72232159  1
  H+  H377  1  0.17205980  0.06916252  0.89704147  1
  H+  H378  1  1.00766777  0.86352966  0.16065663  1
  H+  H379  1  0.61648678  0.68043738  0.78230652  1
  H+  H380  1  0.46775391  0.62932580  0.95258336  1
  H+  H381  1  0.36591584  0.68940696  0.42321929  1
  H+  H382  1  0.41897023  0.82556375  0.22593390  1
  H+  H383  1  0.34107634  0.93614536  0.07011994  1
  O2-  O384  1  0.09390584  0.16569563  0.15808329  1
  O2-  O385  1  0.11374646  0.15915752  0.46977580  1
  O2-  O386  1  0.10054715  0.15451560  0.81491119  1
  O2-  O387  1  0.08352139  0.41267430  0.15480872  1
  O2-  O388  1  0.07093138  0.41692962  0.49457944  1
  O2-  O389  1  0.08292296  0.42922912  0.81091062  1
  O2-  O390  1  0.08589922  0.64713654  0.15014845  1
  O2-  O391  1  0.06364520  0.66714572  0.47636559  1
  O2-  O392  1  0.08441418  0.65906354  0.82466736  1
  O2-  O393  1  0.06399453  0.90099919  0.13752580  1
  O2-  O394  1  0.08320973  0.91537418  0.47787105  1
  O2-  O395  1  0.08132638  0.90273823  0.80977767  1
  O2-  O396  1  0.32170624  0.16754049  0.14242303  1
  O2-  O397  1  0.33861216  0.18166019  0.48284527  1
  O2-  O398  1  0.33811345  0.15677777  0.81092318  1
  O2-  O399  1  0.33032867  0.42131590  0.14309658  1
  O2-  O400  1  0.34459709  0.42036522  0.47917533  1
  O2-  O401  1  0.31920014  0.39915159  0.80428340  1
  O2-  O402  1  0.34567828  0.64102996  0.15783464  1
  O2-  O403  1  0.38755625  0.70372660  0.46544792  1
  O2-  O404  1  0.32210256  0.65935199  0.80494368  1
  O2-  O405  1  0.34981261  0.92511735  0.11213727  1
  O2-  O406  1  0.33321061  0.92008590  0.46453720  1
  O2-  O407  1  0.33164452  0.91736945  0.86483257  1
  O2-  O408  1  0.59411534  0.19402711  0.14334895  1
  O2-  O409  1  0.58375062  0.15733940  0.47715281  1
  O2-  O410  1  0.59968996  0.16440667  0.83159362  1
  O2-  O411  1  0.55539976  0.39457011  0.15746261  1
  O2-  O412  1  0.59129671  0.42514459  0.47736138  1
  O2-  O413  1  0.56698156  0.37966866  0.82844234  1
  O2-  O414  1  0.56610934  0.68350469  0.15896072  1
  O2-  O415  1  0.57397533  0.65526088  0.47712601  1
  O2-  O416  1  0.54311379  0.67657653  0.88870631  1
  O2-  O417  1  0.58693195  0.92915994  0.14627987  1
  O2-  O418  1  0.53915012  0.84966104  0.46913654  1
  O2-  O419  1  0.57565158  0.91991947  0.80436118  1
  O2-  O420  1  0.84933711  0.18620375  0.14063163  1
  O2-  O421  1  0.81516738  0.16060762  0.48440042  1
  O2-  O422  1  0.82893952  0.13281352  0.79951718  1
  O2-  O423  1  0.82956290  0.40944606  0.15213506  1
  O2-  O424  1  0.82221882  0.41438230  0.46946351  1
  O2-  O425  1  0.82675818  0.39819335  0.80131596  1
  O2-  O426  1  0.83583470  0.65060020  0.16424278  1
  O2-  O427  1  0.83446172  0.67003384  0.47402912  1
  O2-  O428  1  0.83075551  0.65093093  0.84945141  1
  O2-  O429  1  0.81296966  0.87323612  0.15074136  1
  O2-  O430  1  0.82787572  0.91564809  0.47578277  1
  O2-  O431  1  0.82669257  0.90772720  0.80992505  1
  O2-  O432  1  0.15935615  0.06703258  0.18113427  1
  O2-  O433  1  0.17815319  0.07462828  0.53313594  1
  O2-  O434  1  0.17305754  0.06657949  0.85133283  1
  O2-  O435  1  0.17632087  0.33875011  0.19200240  1
  O2-  O436  1  0.17496757  0.32326668  0.50206607  1
  O2-  O437  1  0.14965402  0.32640751  0.85830217  1
  O2-  O438  1  0.17443862  0.56862302  0.20242667  1
  O2-  O439  1  0.13968034  0.57544475  0.52388307  1
  O2-  O440  1  0.16200708  0.58490842  0.86231286  1
  O2-  O441  1  0.20882207  0.89628472  0.16837341  1
  O2-  O442  1  0.16136337  0.82383396  0.51281217  1
  O2-  O443  1  0.15516977  0.81809869  0.85268698  1
  O2-  O444  1  0.42245929  0.09019655  0.16594795  1
  O2-  O445  1  0.41232039  0.08190053  0.51210777  1
  O2-  O446  1  0.43602086  0.09538335  0.85780986  1
  O2-  O447  1  0.39746569  0.32414963  0.17835331  1
  O2-  O448  1  0.42864648  0.34146067  0.52301691  1
  O2-  O449  1  0.39428907  0.31615396  0.85882058  1
  O2-  O450  1  0.39287561  0.59851212  0.18039258  1
  O2-  O451  1  0.42312217  0.57551982  0.51674775  1
  O2-  O452  1  0.38153749  0.56296115  0.84902791  1
  O2-  O453  1  0.41689062  0.81378328  0.18079141  1
  O2-  O454  1  0.47149161  0.92309849  0.53327153  1
  O2-  O455  1  0.40670926  0.81658398  0.86151525  1
  O2-  O456  1  0.63017559  0.09114470  0.20226716  1
  O2-  O457  1  0.66479646  0.08310286  0.52233607  1
  O2-  O458  1  0.68583176  0.10420962  0.89692562  1
  O2-  O459  1  0.65989787  0.34694415  0.19994150  1
  O2-  O460  1  0.63294301  0.31175324  0.53374357  1
  O2-  O461  1  0.67403520  0.31768032  0.85091100  1
  O2-  O462  1  0.66438594  0.57779391  0.18768651  1
  O2-  O463  1  0.67117284  0.58870487  0.51242004  1
  O2-  O464  1  0.70207626  0.59154444  0.76842896  1
  O2-  O465  1  0.66022060  0.84306114  0.19189751  1
  O2-  O466  1  0.65773734  0.81878351  0.51017820  1
  O2-  O467  1  0.66741300  0.85305153  0.86275040  1
  O2-  O468  1  0.92478483  0.10340521  0.19711415  1
  O2-  O469  1  0.88326335  0.07294150  0.52708178  1
  O2-  O470  1  0.92958414  0.07528336  0.85024812  1
  O2-  O471  1  0.92214385  0.33594849  0.19310723  1
  O2-  O472  1  0.90106251  0.32771579  0.51945314  1
  O2-  O473  1  0.91547756  0.32504444  0.84695520  1
  O2-  O474  1  0.92139254  0.57206029  0.19199345  1
  O2-  O475  1  0.90825711  0.58184106  0.49563010  1
  O2-  O476  1  0.91804442  0.56227293  0.85124449  1
  O2-  O477  1  0.91866275  0.80374918  0.19618786  1
  O2-  O478  1  0.91674059  0.84058934  0.51889198  1
  O2-  O479  1  0.91603126  0.83415146  0.85166340  1
  O2-  O480  1  0.17603960  0.07356169  0.30547939  1
  O2-  O481  1  0.16492698  0.08505797  0.65488960  1
  O2-  O482  1  0.17133442  0.08681511  0.97272273  1
  O2-  O483  1  0.16717231  0.32782680  0.31570380  1
  O2-  O484  1  0.14504738  0.33503759  0.63248361  1
  O2-  O485  1  0.17004842  0.33834043  0.97687061  1
  O2-  O486  1  0.18629785  0.59778455  0.31726175  1
  O2-  O487  1  0.14683481  0.59202586  0.64676241  1
  O2-  O488  1  0.16704438  0.57204872  0.98330217  1
  O2-  O489  1  0.18055080  0.83686054  0.31680105  1
  O2-  O490  1  0.16628300  0.83486107  0.63119785  1
  O2-  O491  1  0.18446648  0.86489418  0.96899409  1
  O2-  O492  1  0.44099168  0.09196280  0.28927590  1
  O2-  O493  1  0.40704989  0.07082252  0.63960464  1
  O2-  O494  1  0.43610208  0.11608788  0.98591207  1
  O2-  O495  1  0.41012022  0.34120886  0.31923754  1
  O2-  O496  1  0.42499836  0.32554997  0.64506397  1
  O2-  O497  1  0.40870692  0.33471856  0.98262130  1
  O2-  O498  1  0.41039481  0.58296058  0.30710332  1
  O2-  O499  1  0.41098740  0.58589610  0.62917149  1
  O2-  O500  1  0.44080803  0.60726193  0.99284235  1
  O2-  O501  1  0.42333483  0.83379213  0.30163103  1
  O2-  O502  1  0.41689732  0.83070298  0.64234571  1
  O2-  O503  1  0.34765264  0.80586810  0.99096518  1
  O2-  O504  1  0.65750127  0.07687346  0.32210591  1
  O2-  O505  1  0.67127586  0.08269550  0.63982370  1
  O2-  O506  1  0.70088127  0.12892153  0.96199823  1
  O2-  O507  1  0.62207245  0.28380067  0.33858277  1
  O2-  O508  1  0.68131745  0.33425026  0.64816799  1
  O2-  O509  1  0.65130500  0.30313906  1.00341432  1
  O2-  O510  1  0.66050819  0.57001256  0.30832256  1
  O2-  O511  1  0.69094121  0.60537994  0.63509613  1
  O2-  O512  1  0.66134559  0.55932683  1.03645082  1
  O2-  O513  1  0.67373296  0.83181891  0.31325774  1
  O2-  O514  1  0.66799470  0.84519889  0.63300891  1
  O2-  O515  1  0.67073766  0.87614892  0.98480771  1
  O2-  O516  1  0.92500953  0.08530584  0.31673518  1
  O2-  O517  1  0.90525578  0.06194738  0.63574710  1
  O2-  O518  1  0.94063725  0.09630608  0.97183276  1
  O2-  O519  1  0.90561118  0.32223033  0.31602784  1
  O2-  O520  1  0.91341953  0.32503266  0.64341573  1
  O2-  O521  1  0.92451286  0.33556528  0.97508966  1
  O2-  O522  1  0.84450768  0.53308845  0.31074370  1
  O2-  O523  1  0.94518532  0.58652430  0.64555107  1
  O2-  O524  1  0.94891256  0.61455199  0.97442766  1
  O2-  O525  1  0.92555974  0.82870134  0.30781323  1
  O2-  O526  1  0.91960852  0.83800959  0.64247968  1
  O2-  O527  1  0.92411046  0.84934805  0.97505845  1
  O2-  O528  1  0.08890794  0.16906394  0.00476974  1
  O2-  O529  1  0.09684342  0.16108159  0.34358616  1
  O2-  O530  1  0.08112244  0.17453107  0.69537830  1
  O2-  O531  1  0.08379096  0.40773927  0.02734948  1
  O2-  O532  1  0.07074512  0.38608183  0.36526902  1
  O2-  O533  1  0.07713998  0.42366105  0.68143125  1
  O2-  O534  1  0.08495356  0.64549253  0.03443394  1
  O2-  O535  1  0.15914086  0.70703209  0.37460152  1
  O2-  O536  1  0.01364409  0.62120025  0.69198729  1
  O2-  O537  1  0.08807795  0.92502542  0.01815693  1
  O2-  O538  1  0.08888474  0.91406455  0.35322826  1
  O2-  O539  1  0.08268168  0.91525549  0.68918169  1
  O2-  O540  1  0.32933729  0.16926909  0.02138987  1
  O2-  O541  1  0.34307411  0.16101402  0.32818427  1
  O2-  O542  1  0.33325523  0.16502917  0.68624658  1
  O2-  O543  1  0.33558577  0.42917022  0.01918835  1
  O2-  O544  1  0.33212496  0.41868685  0.36081542  1
  O2-  O545  1  0.35451557  0.41555630  0.67868906  1
  O2-  O546  1  0.32867905  0.65568554  0.03302690  1
  O2-  O547  1  0.34117895  0.67517291  0.34425665  1
  O2-  O548  1  0.32815284  0.66370207  0.67401345  1
  O2-  O549  1  0.19913642  0.81372759  0.01422176  1
  O2-  O550  1  0.35277246  0.92795147  0.34075704  1
  O2-  O551  1  0.33279633  0.91367260  0.67879302  1
  O2-  O552  1  0.60534125  0.21321482  0.02349486  1
  O2-  O553  1  0.58054017  0.19505302  0.35985725  1
  O2-  O554  1  0.62083210  0.18511469  0.69912886  1
  O2-  O555  1  0.56229460  0.38208510  0.03524451  1
  O2-  O556  1  0.57893883  0.40964852  0.35805781  1
  O2-  O557  1  0.54876831  0.33660411  0.71339228  1
  O2-  O558  1  0.59826298  0.71393550  0.04144132  1
  O2-  O559  1  0.57643699  0.65607073  0.34552726  1
  O2-  O560  1  0.58219441  0.67147594  0.65962502  1
  O2-  O561  1  0.60821009  0.97471843  0.02051029  1
  O2-  O562  1  0.57602136  0.90111397  0.35355179  1
  O2-  O563  1  0.58337512  0.92302205  0.68253003  1
  O2-  O564  1  0.85783837  0.17190826  0.01190943  1
  O2-  O565  1  0.83363195  0.15983139  0.35712329  1
  O2-  O566  1  0.83931622  0.15748464  0.68012043  1
  O2-  O567  1  0.82130549  0.39249468  0.02314817  1
  O2-  O568  1  0.79719069  0.37027651  0.35477767  1
  O2-  O569  1  0.84687185  0.41978291  0.68298003  1
  O2-  O570  1  0.89779629  0.70829862  0.04426933  1
  O2-  O571  1  0.80200450  0.70153905  0.36162471  1
  O2-  O572  1  0.85685461  0.66648696  0.66960550  1
  O2-  O573  1  0.82115108  0.89611599  0.03609669  1
  O2-  O574  1  0.84182436  0.91823184  0.35100747  1
  O2-  O575  1  0.82324826  0.90683875  0.68629510  1
