# generated using pymatgen
data_H2O
_symmetry_space_group_name_H-M   'P 1'
_cell_length_a   17.98836551
_cell_length_b   17.99531026
_cell_length_c   21.99329010
_cell_angle_alpha   89.97016219
_cell_angle_beta   90.02454751
_cell_angle_gamma   120.01850595
_symmetry_Int_Tables_number   1
_chemical_formula_structural   H2O
_chemical_formula_sum   'H384 O192'
_cell_volume   6164.39973712
_cell_formula_units_Z   192
loop_
 _symmetry_equiv_pos_site_id
 _symmetry_equiv_pos_as_xyz
  1  'x, y, z'
loop_
 _atom_type_symbol
 _atom_type_oxidation_number
  H+  1.0
  O2-  -2.0
loop_
 _atom_site_type_symbol
 _atom_site_label
 _atom_site_symmetry_multiplicity
 _atom_site_fract_x
 _atom_site_fract_y
 _atom_site_fract_z
 _atom_site_occupancy
  H+  H0  1  0.38258424  0.78073420  0.65864682  1
  H+  H1  1  0.27894939  0.38737242  0.15645090  1
  H+  H2  1  0.02190783  0.87173583  0.16231841  1
  H+  H3  1  0.28970687  0.12166477  0.16703597  1
  H+  H4  1  0.95358489  0.08533663  0.31069915  1
  H+  H5  1  0.36507482  0.21471523  0.33539564  1
  H+  H6  1  0.30628184  0.64903502  0.09437845  1
  H+  H7  1  0.14272880  0.61448116  -0.00194414  1
  H+  H8  1  0.88420995  1.11298751  -0.01525528  1
  H+  H9  1  0.61808860  0.46952822  0.16849176  1
  H+  H10  1  0.45178541  0.61188514  0.66855875  1
  H+  H11  1  0.37809373  0.53956530  0.31262427  1
  H+  H12  1  0.35598437  0.88530693  0.66920883  1
  H+  H13  1  0.38827172  0.11013654  0.32171620  1
  H+  H14  1  0.38750210  0.34791085  0.32742323  1
  H+  H15  1  0.22678217  0.10644373  1.00530783  1
  H+  H16  1  0.15354374  0.61729503  0.85016728  1
  H+  H17  1  0.61924719  0.52582912  0.84730493  1
  H+  H18  1  0.93931463  0.55397453  0.87797422  1
  H+  H19  1  0.40147120  1.02642491  0.32510701  1
  H+  H20  1  0.49891620  0.88370080  0.82147948  1
  H+  H21  1  0.38786699  0.26165364  0.63560481  1
  H+  H22  1  0.63538732  0.92611830  0.98444291  1
  H+  H23  1  1.03197585  0.39053239  0.67941678  1
  H+  H24  1  0.62701616  0.60833148  0.33211337  1
  H+  H25  1  0.84451333  0.21128684  0.99332599  1
  H+  H26  1  0.47583816  0.86303251  0.50342456  1
  H+  H27  1  0.24143730  0.36643414  0.32694989  1
  H+  H28  1  0.12959717  0.83716990  0.50209732  1
  H+  H29  1  0.97364814  0.60774606  0.16197736  1
  H+  H30  1  0.85421570  0.71573728  0.16242173  1
  H+  H31  1  0.66513136  0.08311368  0.58934923  1
  H+  H32  1  0.49618455  0.10365183  0.18260674  1
  H+  H33  1  0.36110105  0.64662921  0.33872835  1
  H+  H34  1  0.06962834  0.14757934  0.36580148  1
  H+  H35  1  0.61405331  0.77645532  0.66308470  1
  H+  H36  1  0.71032781  0.85587550  0.66060211  1
  H+  H37  1  0.77088317  0.39886079  0.00296513  1
  H+  H38  1  0.88699226  0.86526196  0.66310318  1
  H+  H39  1  0.36977216  0.65311252  0.82781228  1
  H+  H40  1  0.61332003  0.22090510  0.49574911  1
  H+  H41  1  0.13819545  0.28625214  0.16632194  1
  H+  H42  1  0.60812575  0.98335353  0.66712530  1
  H+  H43  1  0.13430778  0.11081660  0.99198933  1
  H+  H44  1  0.10807067  0.71207061  0.14570003  1
  H+  H45  1  0.66604569  0.61823983  0.64071422  1
  H+  H46  1  0.38229500  0.51430675  -0.02092103  1
  H+  H47  1  0.88321512  0.61357563  0.66288203  1
  H+  H48  1  0.27608453  0.63271591  0.49778742  1
  H+  H49  1  0.14735790  0.37657264  0.66895714  1
  H+  H50  1  0.11013783  0.95310020  0.49866118  1
  H+  H51  1  0.37963297  0.01554237  0.65565453  1
  H+  H52  1  0.83534169  0.66902328  0.73892101  1
  H+  H53  1  0.49104176  0.89389789  0.16427928  1
  H+  H54  1  0.46769502  0.85897200  0.32432292  1
  H+  H55  1  0.17205079  0.84270261  0.89434225  1
  H+  H56  1  0.97170245  0.35443221  0.15261215  1
  H+  H57  1  0.85678487  0.87755083  0.49919003  1
  H+  H58  1  0.12330069  0.47840375  0.68040736  1
  H+  H59  1  0.80807370  0.08355757  0.80089423  1
  H+  H60  1  0.60788784  0.63426608  0.48887649  1
  H+  H61  1  0.10874208  0.89007017  0.67612678  1
  H+  H62  1  0.89626823  1.08183929  0.07522024  1
  H+  H63  1  0.37316687  0.50490939  0.67288538  1
  H+  H64  1  0.38352185  0.60872258  0.51466116  1
  H+  H65  1  0.14460224  0.86223638  -0.00934266  1
  H+  H66  1  0.76825651  0.62993123  0.33665333  1
  H+  H67  1  0.12090130  0.84455489  0.17496951  1
  H+  H68  1  0.32743073  0.89608542  0.06170946  1
  H+  H69  1  0.13970142  0.77116228  0.98535121  1
  H+  H70  1  0.25532682  0.86242091  0.14480710  1
  H+  H71  1  0.78485315  0.64149045  0.67576442  1
  H+  H72  1  0.87030649  0.39106252  0.34462147  1
  H+  H73  1  0.12885369  0.73039711  0.68411675  1
  H+  H74  1  0.01711569  0.86957265  0.49701466  1
  H+  H75  1  1.01687097  0.61607484  0.49813164  1
  H+  H76  1  0.15325563  0.29224716  0.65791939  1
  H+  H77  1  0.15236654  0.57128826  0.22725840  1
  H+  H78  1  0.85077206  0.96273578  0.66736722  1
  H+  H79  1  0.92758956  0.08125092  0.70840658  1
  H+  H80  1  0.60666243  0.88698449  0.33756705  1
  H+  H81  1  1.02816787  0.63490804  0.98901993  1
  H+  H82  1  0.51585165  0.43387804  0.03542575  1
  H+  H83  1  0.32678690  0.37131197  0.49473344  1
  H+  H84  1  0.10495882  0.38434156  0.15920613  1
  H+  H85  1  0.40402007  0.70784173  0.08691770  1
  H+  H86  1  0.38495469  0.86851192  0.83878096  1
  H+  H87  1  0.90031767  0.85562574  0.17505914  1
  H+  H88  1  0.74262710  0.37154837  0.17064728  1
  H+  H89  1  0.15419669  0.52940651  0.84841371  1
  H+  H90  1  0.51094553  0.21425719  0.72055462  1
  H+  H91  1  0.34731308  0.20331446  0.48502397  1
  H+  H92  1  0.91495947  0.50200717  0.81590801  1
  H+  H93  1  0.72361251  0.35479731  0.85653874  1
  H+  H94  1  0.46249461  0.61029822  0.97971187  1
  H+  H95  1  0.62216921  0.79187837  0.17001657  1
  H+  H96  1  0.87736364  0.50857364  0.49758097  1
  H+  H97  1  0.38968883  0.88139456  -0.00697115  1
  H+  H98  1  0.16023620  0.12381228  0.83258709  1
  H+  H99  1  0.29410639  0.64730888  0.67602075  1
  H+  H100  1  0.89240325  0.36327847  0.65567322  1
  H+  H101  1  0.10920054  0.98308604  0.66056363  1
  H+  H102  1  0.56400532  0.42149088  0.69603990  1
  H+  H103  1  0.62931826  0.76936180  0.50555248  1
  H+  H104  1  0.88303130  0.84667344  0.32907368  1
  H+  H105  1  0.57434045  0.64273505  0.68190499  1
  H+  H106  1  0.59968855  0.97271345  0.33366355  1
  H+  H107  1  0.35239935  0.12630302  0.65993848  1
  H+  H108  1  0.89100573  0.86556204  0.99018349  1
  H+  H109  1  0.33871424  0.92184810  0.73214188  1
  H+  H110  1  0.58161077  0.90135244  0.16905087  1
  H+  H111  1  0.12024396  0.22312762  -0.03128704  1
  H+  H112  1  1.00399762  0.88276659  0.66508028  1
  H+  H113  1  0.59723454  -0.02232335  0.81964156  1
  H+  H114  1  0.36405155  0.72252984  0.49592767  1
  H+  H115  1  0.12269943  0.14788027  0.66469253  1
  H+  H116  1  0.11140631  0.46342846  0.01142498  1
  H+  H117  1  0.27651432  0.87276055  -0.00364955  1
  H+  H118  1  0.81820913  0.15595479  0.75660796  1
  H+  H119  1  0.89471922  0.77859922  0.66990883  1
  H+  H120  1  0.61953589  0.38667941  0.33557667  1
  H+  H121  1  0.60551455  0.89269464  0.66962849  1
  H+  H122  1  0.37033054  0.21730754  0.16259997  1
  H+  H123  1  0.35949880  0.11943968  0.48920838  1
  H+  H124  1  0.22559808  0.10124134  0.32530299  1
  H+  H125  1  0.16695799  0.76404494  0.31947423  1
  H+  H126  1  0.41044688  0.46642723  0.36235419  1
  H+  H127  1  0.12290894  0.38618003  0.83883313  1
  H+  H128  1  0.73643911  0.37106490  0.32155455  1
  H+  H129  1  0.14616949  0.25149092  0.36011031  1
  H+  H130  1  0.12224872  0.51536463  0.16736183  1
  H+  H131  1  0.01285041  0.16656059  0.12045859  1
  H+  H132  1  0.38158796  0.53239268  0.82083024  1
  H+  H133  1  0.83577091  0.21881207  0.13817639  1
  H+  H134  1  0.29313369  0.91632200  0.33902899  1
  H+  H135  1  0.04543722  0.38251826  0.36391863  1
  H+  H136  1  0.60835521  0.88261117  0.48957294  1
  H+  H137  1  0.61934208  0.38974761  0.65668781  1
  H+  H138  1  0.46405019  0.10843744  0.65888267  1
  H+  H139  1  0.74276170  0.13286815  0.14543323  1
  H+  H140  1  0.46831515  0.87189703  0.65319685  1
  H+  H141  1  0.47843076  0.34869253  0.62453369  1
  H+  H142  1  0.62152080  0.67089302  0.15135132  1
  H+  H143  1  0.10760045  0.70275888  0.49258362  1
  H+  H144  1  0.22730057  0.35630170  -0.04652518  1
  H+  H145  1  0.13782019  0.71605310  0.32077118  1
  H+  H146  1  0.47259392  0.62091722  0.31983893  1
  H+  H147  1  0.70195201  0.11213755  0.31806190  1
  H+  H148  1  0.61301039  0.38114894  0.84954184  1
  H+  H149  1  0.89352212  0.98972792  0.14424121  1
  H+  H150  1  0.16448133  0.61380249  0.66300991  1
  H+  H151  1  0.37765378  0.51724061  0.51240909  1
  H+  H152  1  0.61573458  0.61265693  0.83969795  1
  H+  H153  1  0.35301639  0.20936599  0.00711915  1
  H+  H154  1  0.39014017  0.11745785  0.83750046  1
  H+  H155  1  0.37549741  0.76190383  0.16881983  1
  H+  H156  1  0.87996069  0.62418002  0.84747541  1
  H+  H157  1  1.03939904  0.15642939  0.66626927  1
  H+  H158  1  0.71144645  0.62722099  0.99111888  1
  H+  H159  1  0.88691563  0.77562362  0.99203987  1
  H+  H160  1  0.86103991  0.47164812  0.67267436  1
  H+  H161  1  1.02423379  0.88439924  1.00484285  1
  H+  H162  1  0.89338799  0.27736094  0.34307505  1
  H+  H163  1  0.69000020  0.89191231  0.16649895  1
  H+  H164  1  0.72705681  0.36042670  0.66224396  1
  H+  H165  1  0.86405936  0.47619418  0.33704689  1
  H+  H166  1  0.60523893  0.72353003  0.33898497  1
  H+  H167  1  0.63006412  0.27881361  0.66839568  1
  H+  H168  1  0.86250208  0.63101279  0.48468039  1
  H+  H169  1  0.88323447  0.01364864  0.50708670  1
  H+  H170  1  0.50014677  0.90418950  0.98352742  1
  H+  H171  1  0.86091541  0.13074519  0.49001662  1
  H+  H172  1  0.13238443  0.46953653  0.35019052  1
  H+  H173  1  0.27971443  0.64897254  0.83322738  1
  H+  H174  1  0.88267679  0.60616930  0.31965526  1
  H+  H175  1  0.63521011  1.01805596  0.50036101  1
  H+  H176  1  0.98621578  0.35419733  0.50786960  1
  H+  H177  1  0.33160261  0.15626588  0.07078398  1
  H+  H178  1  0.51722170  0.63023601  0.49660671  1
  H+  H179  1  0.89998226  0.60488088  0.93536339  1
  H+  H180  1  0.15198859  0.36375392  0.33658683  1
  H+  H181  1  0.63744247  0.38984588  0.00379557  1
  H+  H182  1  0.27523083  0.39725016  0.78226453  1
  H+  H183  1  0.02189544  0.13929310  0.50317777  1
  H+  H184  1  0.41077974  0.11524536  0.17542857  1
  H+  H185  1  0.33120464  0.16459215  0.71886861  1
  H+  H186  1  0.16836607  0.91180463  0.32224418  1
  H+  H187  1  0.36837563  0.88808388  0.33944021  1
  H+  H188  1  0.88363579  0.76460858  0.50407583  1
  H+  H189  1  0.72536983  0.10781850  0.50041515  1
  H+  H190  1  1.00100383  0.58147754  0.34604329  1
  H+  H191  1  0.11675407  0.15597428  0.51523665  1
  H+  H192  1  0.33071750  0.66623061  0.40235955  1
  H+  H193  1  0.13392169  0.06766409  0.46856965  1
  H+  H194  1  0.60603358  0.50466862  1.01019602  1
  H+  H195  1  0.55077039  0.38862110  0.49631318  1
  H+  H196  1  0.51108291  0.64412281  0.82616825  1
  H+  H197  1  0.36802530  -0.01634048  0.82707227  1
  H+  H198  1  0.38890504  0.35722375  0.16875448  1
  H+  H199  1  0.61129909  0.13163148  0.48983719  1
  H+  H200  1  0.05570192  0.63262042  0.69289407  1
  H+  H201  1  0.60340900  0.65724461  -0.00219909  1
  H+  H202  1  0.15359113  0.27438009  0.85215370  1
  H+  H203  1  0.81636545  0.90671299  0.16986506  1
  H+  H204  1  0.27825325  0.89504240  0.82601718  1
  H+  H205  1  0.10248526  0.18219395  0.76628803  1
  H+  H206  1  0.15878763  0.09373775  0.17851646  1
  H+  H207  1  0.86598205  0.11436101  0.13020619  1
  H+  H208  1  0.64635670  0.28102602  0.32289687  1
  H+  H209  1  0.51983830  0.11205299  1.02044941  1
  H+  H210  1  0.77676437  0.63794783  0.48270481  1
  H+  H211  1  0.36874722  0.47301548  0.15002392  1
  H+  H212  1  0.65645470  0.52597609  0.64234413  1
  H+  H213  1  0.96154682  0.61166189  0.63190918  1
  H+  H214  1  0.13422124  1.01576413  0.32851910  1
  H+  H215  1  0.39335408  0.61392591  0.15372483  1
  H+  H216  1  0.60768192  0.13428844  0.83392157  1
  H+  H217  1  0.14445811  0.77908533  0.83847630  1
  H+  H218  1  0.47222323  0.36188441  0.83772098  1
  H+  H219  1  0.37610358  0.77199774  0.33053903  1
  H+  H220  1  0.11819651  0.56934034  0.33202349  1
  H+  H221  1  0.15904296  0.84039934  0.73785471  1
  H+  H222  1  0.47894930  0.10706602  0.50115867  1
  H+  H223  1  0.91401494  0.57650957  0.26040463  1
  H+  H224  1  0.59847364  0.09692719  0.01461693  1
  H+  H225  1  0.14949927  0.51670073  0.51415291  1
  H+  H226  1  0.46834518  0.33470849  0.97756137  1
  H+  H227  1  0.35588148  0.37157085  0.99676113  1
  H+  H228  1  0.63701125  0.11860848  0.64598899  1
  H+  H229  1  0.77171297  0.14273372  0.66242088  1
  H+  H230  1  0.41618011  0.07278011  0.56003972  1
  H+  H231  1  0.88315585  0.60667437  0.16532921  1
  H+  H232  1  0.11260337  0.40930948  0.44949497  1
  H+  H233  1  0.88930779  0.52100018  0.97411815  1
  H+  H234  1  0.62952035  0.51932144  0.33142394  1
  H+  H235  1  0.91760798  0.12642158  0.84065365  1
  H+  H236  1  0.12879842  1.01138223  0.00306321  1
  H+  H237  1  0.38202293  0.10115727  -0.00250282  1
  H+  H238  1  0.72718360  0.85777034  0.83182431  1
  H+  H239  1  0.27380075  0.39368321  0.68848861  1
  H+  H240  1  0.87301497  0.97245493  0.81992008  1
  H+  H241  1  0.88557785  0.75958850  0.32560767  1
  H+  H242  1  0.90200777  0.26095651  0.83939076  1
  H+  H243  1  0.64651554  0.52721202  0.49303096  1
  H+  H244  1  1.02213194  0.87632857  0.34081199  1
  H+  H245  1  0.59874701  1.02330171  0.16607735  1
  H+  H246  1  0.42148545  0.34007173  0.47340293  1
  H+  H247  1  0.60587476  0.73327275  0.82511992  1
  H+  H248  1  0.86836697  0.95501322  0.35125301  1
  H+  H249  1  0.34346094  0.86468510  0.15147783  1
  H+  H250  1  0.21943083  0.60090893  0.32734439  1
  H+  H251  1  0.86132106  0.38610649  0.14633741  1
  H+  H252  1  0.57413837  0.54917156  0.19211623  1
  H+  H253  1  0.22398713  0.10848337  0.65042533  1
  H+  H254  1  0.64656520  0.36633009  0.17306184  1
  H+  H255  1  0.93351139  0.09644863  0.37869701  1
  H+  H256  1  0.07874269  0.66112943  0.05298222  1
  H+  H257  1  0.82991114  0.13369171  0.33379587  1
  H+  H258  1  1.01875884  0.37972357  1.00719200  1
  H+  H259  1  0.63087312  0.79442700  -0.01410077  1
  H+  H260  1  0.87577931  0.35391498  -0.01152624  1
  H+  H261  1  0.22650473  0.09831576  0.49444448  1
  H+  H262  1  0.72107447  0.85768368  0.32977091  1
  H+  H263  1  0.65543294  0.82955442  0.56468654  1
  H+  H264  1  0.60979628  0.14860830  0.33499466  1
  H+  H265  1  0.88232901  0.11732645  0.66737665  1
  H+  H266  1  0.28283345  0.13590233  0.81335574  1
  H+  H267  1  0.38544802  0.77673564  0.84088359  1
  H+  H268  1  0.38344804  0.01388351  0.99198577  1
  H+  H269  1  0.15352233  0.36999206  0.56118115  1
  H+  H270  1  0.64212587  0.08336068  0.25906321  1
  H+  H271  1  0.72663199  0.87380790  -0.01257774  1
  H+  H272  1  0.37348993  0.97780895  0.48932728  1
  H+  H273  1  0.83873080  0.63519752  0.00490383  1
  H+  H274  1  0.63351457  0.26905277  0.85699977  1
  H+  H275  1  1.04396172  0.14207431  0.82540589  1
  H+  H276  1  0.04606021  0.63567592  0.82281023  1
  H+  H277  1  0.65255600  0.36057503  0.50493998  1
  H+  H278  1  0.11405836  0.88975922  0.82526570  1
  H+  H279  1  0.47765631  0.35601632  0.17202656  1
  H+  H280  1  0.86626851  0.97517862  0.00157845  1
  H+  H281  1  0.91657914  0.83399643  0.89759983  1
  H+  H282  1  0.85926326  0.34917870  0.82171793  1
  H+  H283  1  0.71119225  0.10034748  0.83578922  1
  H+  H284  1  0.86389440  0.23149662  0.66729666  1
  H+  H285  1  0.36862629  0.22635523  0.81141608  1
  H+  H286  1  0.37452290  0.88343761  0.48929391  1
  H+  H287  1  0.56568584  0.17909937  0.74973350  1
  H+  H288  1  0.59380391  0.41133442  0.42969173  1
  H+  H289  1  0.76795352  0.87978966  0.49864922  1
  H+  H290  1  0.34663611  0.91965333  0.42160684  1
  H+  H291  1  0.65747579  0.34273178  0.95134896  1
  H+  H292  1  0.52076111  0.13865949  0.83861816  1
  H+  H293  1  0.83317836  0.65986097  0.39336772  1
  H+  H294  1  0.16156888  0.07856329  0.59189243  1
  H+  H295  1  0.91813593  0.81845136  0.23619120  1
  H+  H296  1  0.91119297  0.82117172  0.56565785  1
  H+  H297  1  0.94064055  0.05852029  0.23206298  1
  H+  H298  1  -0.02526881  0.85788357  0.83867974  1
  H+  H299  1  0.83891789  0.91390769  0.05998055  1
  H+  H300  1  0.91142224  0.32313963  0.93329601  1
  H+  H301  1  0.09391999  0.41446588  0.77770148  1
  H+  H302  1  0.20711796  0.89348249  0.26256714  1
  H+  H303  1  0.55523596  0.67728211  0.74230717  1
  H+  H304  1  0.89051998  0.56477876  0.55660631  1
  H+  H305  1  0.81800773  0.66663207  0.06608812  1
  H+  H306  1  0.33373638  0.15086453  0.39322478  1
  H+  H307  1  0.10353599  0.62155676  0.15063012  1
  H+  H308  1  0.98781725  0.35420757  0.84090982  1
  H+  H309  1  0.65173780  0.05839811  0.89541674  1
  H+  H310  1  0.11551848  0.95836657  0.16371704  1
  H+  H311  1  0.25227696  0.39649856  0.49058497  1
  H+  H312  1  0.64647289  0.57673915  0.24146931  1
  H+  H313  1  0.41292927  0.08474774  0.90088048  1
  H+  H314  1  0.52582850  0.37697457  0.33871724  1
  H+  H315  1  0.80874251  0.15114613  0.05104484  1
  H+  H316  1  0.86737399  0.88075605  0.82081224  1
  H+  H317  1  0.59347491  0.42227926  0.10494961  1
  H+  H318  1  0.86395929  0.47733159  0.15412945  1
  H+  H319  1  0.11760730  0.77693556  0.22477799  1
  H+  H320  1  0.59562455  0.18492933  0.39747649  1
  H+  H321  1  0.68138114  0.34191029  0.23929597  1
  H+  H322  1  0.39664501  0.31323748  0.54512047  1
  H+  H323  1  0.88166838  0.70850150  0.86893866  1
  H+  H324  1  0.21793083  0.83998920  0.49680309  1
  H+  H325  1  0.66168765  0.83787225  0.27050349  1
  H+  H326  1  0.82353111  0.89435286  0.40627897  1
  H+  H327  1  0.07500901  0.40628389  0.09522569  1
  H+  H328  1  0.57380174  0.68986611  0.05472279  1
  H+  H329  1  0.12204010  0.67670326  0.77517429  1
  H+  H330  1  0.59901649  0.41177353  0.78699766  1
  H+  H331  1  0.95311419  0.34885340  0.29588508  1
  H+  H332  1  0.95021553  0.10465524  0.23427657  1
  H+  H333  1  0.66976533  0.84008488  0.89058456  1
  H+  H334  1  0.57020783  0.66295886  0.39774823  1
  H+  H335  1  0.38550812  0.36303755  0.82587784  1
  H+  H336  1  0.77096418  0.30052054  0.78867553  1
  H+  H337  1  0.56377513  0.91929490  0.75457662  1
  H+  H338  1  0.78091292  0.37359871  0.49313459  1
  H+  H339  1  0.81770497  0.16238934  0.39990420  1
  H+  H340  1  0.42887160  0.08419934  0.25320209  1
  H+  H341  1  0.40088714  0.56463548  0.60299646  1
  H+  H342  1  0.89894173  0.31384135  0.20378847  1
  H+  H343  1  0.08184417  0.90891394  0.06595469  1
  H+  H344  1  0.32308251  0.40365019  0.05204575  1
  H+  H345  1  0.92821087  0.08032569  0.89736120  1
  H+  H346  1  0.07881167  0.90365243  0.40184174  1
  H+  H347  1  0.83581972  0.40883496  0.43161478  1
  H+  H348  1  0.83947123  0.42762645  0.05487392  1
  H+  H349  1  0.40258147  0.31328266  0.92409322  1
  H+  H350  1  0.89926777  0.35918224  0.50186729  1
  H+  H351  1  0.43042394  0.85383761  0.92778400  1
  H+  H352  1  0.71046720  0.07513809  0.98758724  1
  H+  H353  1  0.57743222  0.91341912  0.43039922  1
  H+  H354  1  0.17656101  0.06217355  0.24068986  1
  H+  H355  1  0.33327294  0.41555476  0.40695998  1
  H+  H356  1  0.34436827  0.69144977  0.73707513  1
  H+  H357  1  0.09348291  0.19011885  0.03752290  1
  H+  H358  1  0.05653293  0.60139009  0.40721232  1
  H+  H359  1  0.09205461  0.15574152  0.13126730  1
  H+  H360  1  0.91048990  0.07586927  0.56426452  1
  H+  H361  1  0.10858782  0.19491791  0.43262840  1
  H+  H362  1  0.41712998  0.32388064  0.26533644  1
  H+  H363  1  0.59139410  0.12854217  0.11243454  1
  H+  H364  1  0.17012593  0.33298515  0.23103493  1
  H+  H365  1  0.22479955  0.87122017  0.68426444  1
  H+  H366  1  0.86600125  0.22222558  0.49160633  1
  H+  H367  1  0.41895714  0.59203306  0.21835972  1
  H+  H368  1  0.13632488  0.59894580  0.51156050  1
  H+  H369  1  0.97899264  0.11859758  0.98468533  1
  H+  H370  1  0.82914739  0.90709719  0.72801935  1
  H+  H371  1  0.18383185  0.57684174  0.60352448  1
  H+  H372  1  0.68105580  0.58788623  0.55078781  1
  H+  H373  1  0.52466120  0.65247452  0.15349529  1
  H+  H374  1  0.08136414  0.92240896  0.76863368  1
  H+  H375  1  0.67283648  0.32730436  0.56671523  1
  H+  H376  1  0.41265018  0.83676077  0.56252873  1
  H+  H377  1  0.92583156  0.33233632  0.59898178  1
  H+  H378  1  0.39255302  0.81591318  0.23225410  1
  H+  H379  1  0.40464442  0.57484912  0.88917529  1
  H+  H380  1  0.15238601  0.03229949  0.83461636  1
  H+  H381  1  0.83311382  0.40337216  0.72829724  1
  H+  H382  1  0.76331830  0.62928611  0.16069850  1
  H+  H383  1  0.64855100  0.59260655  0.93220294  1
  O2-  O384  1  0.07720133  0.19747330  0.11593228  1
  O2-  O385  1  0.08432779  0.17917184  0.49457479  1
  O2-  O386  1  0.10403491  0.17856580  0.81126717  1
  O2-  O387  1  0.06877548  0.40625416  0.14177713  1
  O2-  O388  1  0.10513869  0.40826348  0.49532595  1
  O2-  O389  1  0.08915781  0.41193328  0.82301064  1
  O2-  O390  1  0.07388424  0.65216212  0.13180823  1
  O2-  O391  1  0.07674372  0.63936266  0.48381538  1
  O2-  O392  1  0.10882187  0.67799844  0.81878537  1
  O2-  O393  1  0.08141380  0.90015809  0.14475053  1
  O2-  O394  1  0.07724109  0.89476530  0.48145649  1
  O2-  O395  1  0.08152637  0.91938254  0.81314482  1
  O2-  O396  1  0.34735316  0.15721021  0.14786644  1
  O2-  O397  1  0.32369037  0.14244827  0.47144029  1
  O2-  O398  1  0.34401864  0.16661754  0.79607583  1
  O2-  O399  1  0.33763820  0.41121671  0.13874085  1
  O2-  O400  1  0.31314833  0.41520185  0.47904945  1
  O2-  O401  1  0.33660029  0.43080896  0.77130082  1
  O2-  O402  1  0.36133745  0.67696578  0.11853983  1
  O2-  O403  1  0.33689998  0.66186381  0.48216623  1
  O2-  O404  1  0.34082827  0.68659692  0.81683020  1
  O2-  O405  1  0.31397463  0.89077787  0.12877754  1
  O2-  O406  1  0.34496625  0.91653917  0.47139156  1
  O2-  O407  1  0.33882399  0.92340812  0.81075903  1
  O2-  O408  1  0.59633711  0.13576246  0.15853866  1
  O2-  O409  1  0.57978185  0.16197347  0.47803124  1
  O2-  O410  1  0.58218282  0.17073744  0.82319573  1
  O2-  O411  1  0.59270894  0.41162592  0.14964629  1
  O2-  O412  1  0.60562626  0.41934604  0.47516399  1
  O2-  O413  1  0.58247709  0.40887644  0.82942164  1
  O2-  O414  1  0.58508250  0.69451176  0.13894703  1
  O2-  O415  1  0.57486938  0.66310895  0.47722809  1
  O2-  O416  1  0.57056096  0.67288757  0.80784520  1
  O2-  O417  1  0.55266920  0.93085438  0.15216178  1
  O2-  O418  1  0.57816573  0.91379646  0.47606788  1
  O2-  O419  1  0.56110640  0.91786473  0.80125097  1
  O2-  O420  1  0.80148956  0.15675093  0.12732999  1
  O2-  O421  1  0.83214870  0.16220748  0.47494339  1
  O2-  O422  1  0.81375219  0.14049849  0.80138041  1
  O2-  O423  1  0.82891254  0.41688898  0.13801620  1
  O2-  O424  1  0.84078882  0.40671543  0.47699986  1
  O2-  O425  1  0.81310675  0.35826055  0.80229806  1
  O2-  O426  1  0.82132177  0.65712655  0.14341307  1
  O2-  O427  1  0.83869553  0.66805737  0.47048787  1
  O2-  O428  1  0.86165313  0.64821581  0.88038356  1
  O2-  O429  1  0.86684004  0.92610573  0.14405656  1
  O2-  O430  1  0.82891744  0.91006710  0.48367961  1
  O2-  O431  1  0.84151581  0.91406907  0.80243842  1
  O2-  O432  1  0.18277806  0.05935517  0.19372960  1
  O2-  O433  1  0.16378074  0.07346881  0.50696687  1
  O2-  O434  1  0.19136278  0.09347804  0.84418936  1
  O2-  O435  1  0.17331107  0.34262594  0.18660328  1
  O2-  O436  1  0.15162388  0.36455844  0.51602463  1
  O2-  O437  1  0.18376715  0.33429782  0.86904942  1
  O2-  O438  1  0.14928520  0.57522020  0.18260302  1
  O2-  O439  1  0.17564556  0.57792230  0.52644068  1
  O2-  O440  1  0.18775330  0.59003506  0.86087204  1
  O2-  O441  1  0.15273746  0.81618505  0.19255485  1
  O2-  O442  1  0.16057239  0.80684081  0.51452215  1
  O2-  O443  1  0.17096651  0.84200174  0.84857559  1
  O2-  O444  1  0.43569624  0.08367004  0.19676158  1
  O2-  O445  1  0.41665407  0.07171724  0.51437190  1
  O2-  O446  1  0.41838272  0.08636332  0.85534278  1
  O2-  O447  1  0.41725815  0.32622054  0.18656652  1
  O2-  O448  1  0.37363099  0.30633469  0.50077979  1
  O2-  O449  1  0.40915910  0.33034974  0.84585671  1
  O2-  O450  1  0.42429474  0.58680032  0.17374033  1
  O2-  O451  1  0.41073549  0.57550678  0.53114981  1
  O2-  O452  1  0.40942926  0.58703335  0.84332961  1
  O2-  O453  1  0.39304218  0.81892292  0.18696499  1
  O2-  O454  1  0.41395099  0.83535621  0.51649615  1
  O2-  O455  1  0.41901308  0.84151949  0.85363605  1
  O2-  O456  1  0.63998127  0.08863242  0.17835434  1
  O2-  O457  1  0.66510131  0.07872194  0.51596268  1
  O2-  O458  1  0.65069735  0.06901911  0.85049335  1
  O2-  O459  1  0.68184075  0.34149134  0.19041033  1
  O2-  O460  1  0.67615351  0.32521456  0.52159755  1
  O2-  O461  1  0.66421811  0.33020756  0.87145185  1
  O2-  O462  1  0.63597507  0.57196321  0.19576922  1
  O2-  O463  1  0.67221355  0.58823263  0.50632562  1
  O2-  O464  1  0.64551334  0.58585172  0.86061019  1
  O2-  O465  1  0.64516888  0.84835002  0.19207608  1
  O2-  O466  1  0.66085183  0.83043874  0.51947623  1
  O2-  O467  1  0.66727920  0.83134163  0.84590662  1
  O2-  O468  1  0.90688123  0.09340261  0.11886368  1
  O2-  O469  1  0.91410904  0.07611008  0.51982124  1
  O2-  O470  1  0.93515637  0.08487338  0.85206363  1
  O2-  O471  1  0.90578653  0.32355029  0.16013395  1
  O2-  O472  1  0.92466948  0.32519881  0.51925621  1
  O2-  O473  1  0.92431666  0.32060860  0.85216701  1
  O2-  O474  1  0.91415672  0.57742652  0.18010652  1
  O2-  O475  1  0.90199254  0.56949741  0.51260554  1
  O2-  O476  1  0.94172626  0.55997355  0.83239833  1
  O2-  O477  1  0.91992308  0.81645999  0.19020087  1
  O2-  O478  1  0.91165590  0.82490206  0.52092980  1
  O2-  O479  1  0.91378135  0.82617374  0.85248414  1
  O2-  O480  1  0.16621343  0.07323978  0.30877321  1
  O2-  O481  1  0.16135412  0.07788039  0.63684277  1
  O2-  O482  1  0.16425026  0.07517817  0.98900084  1
  O2-  O483  1  0.17932845  0.33057347  0.31904286  1
  O2-  O484  1  0.18369620  0.35500712  0.64950308  1
  O2-  O485  1  0.16917079  0.31979187  0.93540345  1
  O2-  O486  1  0.16199189  0.55661375  0.31249576  1
  O2-  O487  1  0.18698029  0.57656691  0.64911234  1
  O2-  O488  1  0.17435282  0.58169214  1.00237929  1
  O2-  O489  1  0.22265517  0.92321355  0.30195497  1
  O2-  O490  1  0.16025725  0.84041608  0.69326258  1
  O2-  O491  1  0.17355320  0.83323496  0.97206211  1
  O2-  O492  1  0.42396718  0.08448249  0.30638970  1
  O2-  O493  1  0.40880526  0.07486436  0.63723222  1
  O2-  O494  1  0.41366564  0.07494479  0.97879543  1
  O2-  O495  1  0.41923726  0.32072180  0.31086937  1
  O2-  O496  1  0.41849008  0.31501479  0.61085480  1
  O2-  O497  1  0.40688365  0.30912716  0.96932847  1
  O2-  O498  1  0.41477767  0.59915901  0.29981449  1
  O2-  O499  1  0.39639306  0.56481769  0.64965919  1
  O2-  O500  1  0.40645717  0.57182798  0.96056141  1
  O2-  O501  1  0.40601673  0.83084585  0.31148853  1
  O2-  O502  1  0.40796030  0.84031424  0.63844624  1
  O2-  O503  1  0.43747229  0.86370909  0.97335627  1
  O2-  O504  1  0.64199214  0.07716132  0.30435209  1
  O2-  O505  1  0.66629715  0.08695929  0.63571467  1
  O2-  O506  1  0.65007325  0.04433856  0.97051524  1
  O2-  O507  1  0.67661389  0.34256521  0.30401209  1
  O2-  O508  1  0.66649465  0.33422149  0.64671170  1
  O2-  O509  1  0.66626007  0.35705552  0.99511393  1
  O2-  O510  1  0.65806013  0.57947702  0.31550664  1
  O2-  O511  1  0.69717896  0.58824967  0.63136688  1
  O2-  O512  1  0.65001519  0.59637576  0.97881199  1
  O2-  O513  1  0.66045512  0.83099220  0.31542960  1
  O2-  O514  1  0.65124426  0.83478574  0.64514145  1
  O2-  O515  1  0.66844920  0.85478817  0.97089219  1
  O2-  O516  1  0.96274489  0.07431267  0.35326210  1
  O2-  O517  1  0.91505421  0.08500346  0.66557621  1
  O2-  O518  1  0.91608855  0.08102819  0.97681030  1
  O2-  O519  1  0.93589590  0.34004581  0.33847952  1
  O2-  O520  1  0.92343741  0.33236937  0.64447931  1
  O2-  O521  1  0.90253229  0.31850717  0.97798264  1
  O2-  O522  1  0.91073114  0.57340948  0.30562187  1
  O2-  O523  1  0.90094630  0.57555963  0.64201301  1
  O2-  O524  1  0.93026074  0.57563254  0.95232580  1
  O2-  O525  1  0.91671144  0.82139038  0.31187003  1
  O2-  O526  1  0.92305101  0.83769690  0.65140508  1
  O2-  O527  1  0.92264858  0.83574859  0.97707636  1
  O2-  O528  1  0.09015761  0.16977169  -0.00516584  1
  O2-  O529  1  0.12321915  0.19485016  0.38502760  1
  O2-  O530  1  0.09900989  0.18318286  0.68119469  1
  O2-  O531  1  0.07664209  0.40327475  0.02503317  1
  O2-  O532  1  0.10814548  0.41124017  0.37164237  1
  O2-  O533  1  0.09023704  0.41864504  0.69774878  1
  O2-  O534  1  0.08630584  0.66816655  0.00783340  1
  O2-  O535  1  0.04126728  0.56907208  0.36837133  1
  O2-  O536  1  0.11750252  0.67155100  0.69420338  1
  O2-  O537  1  0.08503823  0.91656188  0.02068399  1
  O2-  O538  1  0.08162136  0.91188339  0.35692835  1
  O2-  O539  1  0.07479669  0.92169083  0.67853063  1
  O2-  O540  1  0.32146724  0.15079890  0.02550445  1
  O2-  O541  1  0.33476217  0.15301719  0.34779439  1
  O2-  O542  1  0.32513997  0.16030816  0.67315993  1
  O2-  O543  1  0.32451724  0.40191089  0.00702026  1
  O2-  O544  1  0.35102441  0.41940406  0.36252061  1
  O2-  O545  1  0.33683020  0.42303178  0.70330819  1
  O2-  O546  1  0.25015894  0.63713990  0.03037915  1
  O2-  O547  1  0.32747863  0.67089047  0.35718171  1
  O2-  O548  1  0.34993078  0.69327323  0.69194276  1
  O2-  O549  1  0.33601912  0.90326092  0.01440533  1
  O2-  O550  1  0.34947005  0.92736049  0.35906481  1
  O2-  O551  1  0.32829933  0.91763549  0.68708755  1
  O2-  O552  1  0.57523311  0.12629682  0.03915722  1
  O2-  O553  1  0.60295721  0.19528464  0.35309194  1
  O2-  O554  1  0.54858080  0.19199871  0.70880286  1
  O2-  O555  1  0.57438858  0.44501963  0.03024587  1
  O2-  O556  1  0.58575798  0.41137843  0.35463340  1
  O2-  O557  1  0.58822330  0.42414561  0.65587260  1
  O2-  O558  1  0.57307610  0.68897960  0.00976043  1
  O2-  O559  1  0.57163888  0.66199677  0.35220285  1
  O2-  O560  1  0.54752809  0.67573647  0.69442585  1
  O2-  O561  1  0.60573256  0.95830796  -0.00059656  1
  O2-  O562  1  0.57274985  0.91379732  0.35169515  1
  O2-  O563  1  0.57517745  0.92379101  0.68366726  1
  O2-  O564  1  0.81723819  0.14919208  0.00606678  1
  O2-  O565  1  0.81368677  0.17117602  0.35479677  1
  O2-  O566  1  0.82978701  0.16970996  0.68173987  1
  O2-  O567  1  0.83472930  0.42404457  0.00992786  1
  O2-  O568  1  0.83348583  0.41601957  0.35419305  1
  O2-  O569  1  0.83223842  0.40966448  0.68331092  1
  O2-  O570  1  0.81746900  0.67176696  0.02068751  1
  O2-  O571  1  0.83016187  0.65780279  0.34776200  1
  O2-  O572  1  0.84348012  0.67486263  0.69482923  1
  O2-  O573  1  0.83468196  0.91402866  0.01518003  1
  O2-  O574  1  0.82623866  0.89489986  0.36063411  1
  O2-  O575  1  0.82521183  0.90279690  0.68188419  1
