# generated using pymatgen
data_H2O
_symmetry_space_group_name_H-M   'P 1'
_cell_length_a   17.96418651
_cell_length_b   17.96297295
_cell_length_c   21.99592434
_cell_angle_alpha   90.00139342
_cell_angle_beta   89.96634410
_cell_angle_gamma   119.93028427
_symmetry_Int_Tables_number   1
_chemical_formula_structural   H2O
_chemical_formula_sum   'H384 O192'
_cell_volume   6151.24731496
_cell_formula_units_Z   192
loop_
 _symmetry_equiv_pos_site_id
 _symmetry_equiv_pos_as_xyz
  1  'x, y, z'
loop_
 _atom_type_symbol
 _atom_type_oxidation_number
  H+  1.0
  O2-  -2.0
loop_
 _atom_site_type_symbol
 _atom_site_label
 _atom_site_symmetry_multiplicity
 _atom_site_fract_x
 _atom_site_fract_y
 _atom_site_fract_z
 _atom_site_occupancy
  H+  H0  1  0.25338713  0.13324004  0.16259359  1
  H+  H1  1  0.67321973  0.33517299  1.07310962  1
  H+  H2  1  0.71368730  0.10506525  0.48411988  1
  H+  H3  1  0.12930928  0.86326539  0.17492720  1
  H+  H4  1  -0.03206957  0.86818492  0.65689712  1
  H+  H5  1  0.63528907  0.52723790  0.14138980  1
  H+  H6  1  0.84296235  0.21842948  0.48556430  1
  H+  H7  1  0.88193067  0.01776292  0.69749486  1
  H+  H8  1  0.40551907  0.04148616  0.67712796  1
  H+  H9  1  0.86302336  0.46814342  0.16535511  1
  H+  H10  1  0.94155704  0.07737123  0.25072744  1
  H+  H11  1  0.34515627  0.63206752  0.15978115  1
  H+  H12  1  0.60775491  0.88443707  0.48524087  1
  H+  H13  1  0.88319992  0.60239384  0.17371686  1
  H+  H14  1  0.86346837  0.98028911  0.46771681  1
  H+  H15  1  0.10331168  0.48847934  0.82732764  1
  H+  H16  1  0.16559191  0.07115645  0.23848724  1
  H+  H17  1  0.88102527  0.31703247  0.56322374  1
  H+  H18  1  0.62382894  0.85363022  0.82981863  1
  H+  H19  1  0.12980604  0.28481013  0.14766621  1
  H+  H20  1  0.62438690  0.65008810  0.67208805  1
  H+  H21  1  0.10276824  0.19475029  0.84267692  1
  H+  H22  1  0.60150335  0.17904235  0.75818976  1
  H+  H23  1  0.13916158  0.75623053  0.48220568  1
  H+  H24  1  0.71908549  0.85331069  0.31897074  1
  H+  H25  1  0.23360943  0.36994525  0.51244412  1
  H+  H26  1  0.59018778  0.62263530  1.00612059  1
  H+  H27  1  0.97466987  0.86810599  0.50346076  1
  H+  H28  1  0.90928869  0.04939740  1.04575231  1
  H+  H29  1  0.34916339  0.36668835  0.83767932  1
  H+  H30  1  0.51391594  0.13901531  0.48451865  1
  H+  H31  1  0.80963138  0.93598553  0.03490172  1
  H+  H32  1  0.09231749  0.42356349  0.43904473  1
  H+  H33  1  -0.02010349  0.36242367  0.83936362  1
  H+  H34  1  0.57729703  0.90937747  0.05906009  1
  H+  H35  1  0.14403619  0.00546676  0.18377830  1
  H+  H36  1  0.63929231  0.53628931  0.67109327  1
  H+  H37  1  0.13479217  0.02139938  0.33376500  1
  H+  H38  1  0.50017594  0.33477453  0.49144343  1
  H+  H39  1  0.88652259  0.51739732  1.00611084  1
  H+  H40  1  0.85778371  0.38593771  0.67140756  1
  H+  H41  1  0.86697008  0.22269420  0.83364346  1
  H+  H42  1  0.72607934  0.10969889  0.84276847  1
  H+  H43  1  0.61113172  -0.02716242  0.32736309  1
  H+  H44  1  0.26610255  0.88741126  0.33554405  1
  H+  H45  1  0.66451888  0.08249202  0.90035982  1
  H+  H46  1  0.88798995  0.77682117  0.50201059  1
  H+  H47  1  0.91134594  0.74261819  0.82150083  1
  H+  H48  1  0.38694273  0.62185618  0.32900109  1
  H+  H49  1  0.98765759  0.84452384  0.18770891  1
  H+  H50  1  0.10847482  0.69332349  0.73902770  1
  H+  H51  1  0.72287743  0.54707111  0.87044906  1
  H+  H52  1  0.38718077  0.86810146  0.49695934  1
  H+  H53  1  0.11109142  0.88485826  0.33937526  1
  H+  H54  1  0.88327242  0.87940472  0.18139368  1
  H+  H55  1  0.12927678  0.52722769  0.65993579  1
  H+  H56  1  0.63930780  0.86705071  0.66224691  1
  H+  H57  1  0.74856053  0.72139855  0.77424474  1
  H+  H58  1  1.09953957  0.18164730  0.43376419  1
  H+  H59  1  0.59308936  0.37275950  0.82187859  1
  H+  H60  1  0.84780181  0.34739631  0.50682689  1
  H+  H61  1  0.48548683  0.32524055  -0.01267935  1
  H+  H62  1  0.64953534  0.60766462  0.51438830  1
  H+  H63  1  0.86616786  0.96421113  0.32843327  1
  H+  H64  1  0.53539181  0.15873818  0.66720679  1
  H+  H65  1  0.89047440  0.28183307  -0.00851891  1
  H+  H66  1  0.86663205  0.22169526  0.15644630  1
  H+  H67  1  0.33874267  0.71699343  0.00384327  1
  H+  H68  1  0.52396842  0.89417587  -0.00344720  1
  H+  H69  1  0.89745545  0.62185838  0.65803072  1
  H+  H70  1  0.20207856  0.15632575  1.01425854  1
  H+  H71  1  0.33314477  0.22837651  0.16472798  1
  H+  H72  1  0.60212802  0.38348138  0.15896529  1
  H+  H73  1  0.13127855  0.52551073  0.33222711  1
  H+  H74  1  0.47135030  0.62576880  0.17497315  1
  H+  H75  1  0.35714195  0.49368828  0.15939246  1
  H+  H76  1  0.02217796  0.75189220  0.61672098  1
  H+  H77  1  0.86555526  0.84437499  1.00597544  1
  H+  H78  1  0.97509916  0.08921091  0.83095866  1
  H+  H79  1  0.28166972  0.64217262  0.49544723  1
  H+  H80  1  0.62232062  0.14409439  0.81929231  1
  H+  H81  1  0.10069863  0.62700668  0.01047068  1
  H+  H82  1  0.58370413  0.66661905  0.40306132  1
  H+  H83  1  0.26291008  0.37473472  0.67660861  1
  H+  H84  1  0.40108264  0.58332555  0.92192554  1
  H+  H85  1  0.07424500  0.91261626  0.73444486  1
  H+  H86  1  0.67015490  0.83663478  0.56272067  1
  H+  H87  1  0.13092810  0.87501793  0.49922733  1
  H+  H88  1  0.22621587  0.10930269  0.33121404  1
  H+  H89  1  0.92444812  0.34077675  0.93218091  1
  H+  H90  1  0.36701948  0.48949974  0.34751203  1
  H+  H91  1  0.53412536  0.63522868  0.49861402  1
  H+  H92  1  0.34852472  0.71851997  0.66612794  1
  H+  H93  1  0.61440687  0.84350448  0.98328679  1
  H+  H94  1  0.51624530  0.88813274  0.82020803  1
  H+  H95  1  0.12084056  0.23789623  0.49507718  1
  H+  H96  1  0.89037270  0.10945679  0.16426058  1
  H+  H97  1  0.72536543  0.11314496  0.66504929  1
  H+  H98  1  0.63444184  0.51195128  0.00765608  1
  H+  H99  1  0.88395304  0.11299097  0.46513360  1
  H+  H100  1  0.97547222  0.35569025  0.17303759  1
  H+  H101  1  0.12805952  0.48296519  0.49728146  1
  H+  H102  1  0.86599687  0.48376874  0.48983795  1
  H+  H103  1  0.61373792  0.89123953  0.14387300  1
  H+  H104  1  0.52000054  0.12751342  0.03090590  1
  H+  H105  1  0.26225707  0.89619761  0.66074981  1
  H+  H106  1  0.36106276  0.13346746  0.32726254  1
  H+  H107  1  0.60991484  0.40269090  0.67756967  1
  H+  H108  1  0.77931195  0.14027878  -0.00000796  1
  H+  H109  1  0.29013284  0.39576934  0.01192661  1
  H+  H110  1  0.87676961  0.39240326  1.00435758  1
  H+  H111  1  0.14275084  0.58426733  0.90019284  1
  H+  H112  1  0.36795606  0.73303846  0.48990558  1
  H+  H113  1  0.94517582  1.04198456  0.03540829  1
  H+  H114  1  0.89243753  0.36141795  0.83837336  1
  H+  H115  1  0.58605355  0.37086053  0.32974022  1
  H+  H116  1  0.63153198  0.60765822  0.33692357  1
  H+  H117  1  0.39641133  0.62283844  0.50630684  1
  H+  H118  1  0.13123687  0.12191466  0.50815787  1
  H+  H119  1  0.21963417  0.37107226  0.16005689  1
  H+  H120  1  0.72783684  0.35231357  0.15604417  1
  H+  H121  1  0.39339448  0.89808949  -0.01462317  1
  H+  H122  1  0.17480189  0.28125931  0.01856428  1
  H+  H123  1  0.37575170  0.35527448  0.67007942  1
  H+  H124  1  0.88229174  0.85171947  0.32953934  1
  H+  H125  1  0.62241301  0.72257598  0.49656163  1
  H+  H126  1  0.78426609  0.38604925  0.01720211  1
  H+  H127  1  0.02583216  0.14743321  0.13218858  1
  H+  H128  1  0.63672366  0.26263221  0.14754375  1
  H+  H129  1  0.62928262  0.38920339  0.50794948  1
  H+  H130  1  0.12820605  0.27484702  0.66176210  1
  H+  H131  1  0.98924681  0.03615358  0.28277795  1
  H+  H132  1  0.45963486  0.61442672  -0.01735776  1
  H+  H133  1  0.88336351  0.36099127  0.32922372  1
  H+  H134  1  0.14478502  0.37149603  0.50779288  1
  H+  H135  1  0.97522961  0.11716891  0.47062252  1
  H+  H136  1  0.25633104  0.63512084  0.82348255  1
  H+  H137  1  0.35872492  0.84042582  0.64830876  1
  H+  H138  1  0.86630572  0.14482964  0.33130744  1
  H+  H139  1  0.25991211  0.13375585  0.52826786  1
  H+  H140  1  0.98376019  0.61609710  0.66518304  1
  H+  H141  1  0.63149940  0.85458552  0.31891335  1
  H+  H142  1  0.49636876  0.62646996  0.80711527  1
  H+  H143  1  1.02341447  0.39274858  0.34419206  1
  H+  H144  1  0.47655730  0.62085614  0.33116740  1
  H+  H145  1  0.85678294  0.46725808  0.33970863  1
  H+  H146  1  0.00404615  0.89000144  0.85458257  1
  H+  H147  1  0.61016467  0.72409440  0.34130959  1
  H+  H148  1  0.27098343  0.89556290  0.49118782  1
  H+  H149  1  0.73829745  0.69176610  0.80091471  1
  H+  H150  1  0.72609803  0.86529822  0.50143326  1
  H+  H151  1  0.58955564  0.71068975  0.99635667  1
  H+  H152  1  1.02147945  0.13723805  0.69611210  1
  H+  H153  1  0.83565966  0.66667132  0.43178462  1
  H+  H154  1  0.24615248  0.19975294  0.07576456  1
  H+  H155  1  0.35904433  0.73180967  0.33717984  1
  H+  H156  1  0.14749598  0.35462310  0.01331417  1
  H+  H157  1  0.60820583  0.26303479  0.30453504  1
  H+  H158  1  0.40133671  0.89168049  0.17006997  1
  H+  H159  1  0.14413315  0.29176248  0.33655097  1
  H+  H160  1  0.34131698  0.62521481  0.66547048  1
  H+  H161  1  0.36341371  0.59828033  0.83008760  1
  H+  H162  1  0.12219400  0.51431986  0.99360756  1
  H+  H163  1  0.62220751  0.24815392  0.66257082  1
  H+  H164  1  0.85112797  0.62738254  0.34031657  1
  H+  H165  1  0.85667493  0.88302834  0.67740675  1
  H+  H166  1  0.10118100  0.88166914  0.99281135  1
  H+  H167  1  0.46480835  0.35108932  0.83814060  1
  H+  H168  1  0.34938491  0.88367334  0.82070123  1
  H+  H169  1  0.37267467  0.76958428  0.83238961  1
  H+  H170  1  0.21990385  0.87033149  0.84557186  1
  H+  H171  1  0.22314002  0.61341784  0.66271215  1
  H+  H172  1  0.86317283  0.71995973  0.00942300  1
  H+  H173  1  0.12853555  0.76726487  1.00156413  1
  H+  H174  1  0.63965214  0.77537100  0.14202957  1
  H+  H175  1  0.78373590  0.63879792  0.67846122  1
  H+  H176  1  0.77479830  0.87856568  0.82562281  1
  H+  H177  1  0.37244040  0.27130098  0.32592893  1
  H+  H178  1  0.87853347  0.64679070  0.48914172  1
  H+  H179  1  0.37260502  0.02398426  0.31113191  1
  H+  H180  1  0.74442031  0.62223352  0.51450943  1
  H+  H181  1  0.58640771  0.23261203  0.47199274  1
  H+  H182  1  0.11386325  0.61969301  0.84276833  1
  H+  H183  1  0.34943916  0.11963698  0.83242187  1
  H+  H184  1  0.10525824  0.74252038  0.83088698  1
  H+  H185  1  0.36782789  0.48939097  0.00580769  1
  H+  H186  1  0.35917484  0.39618272  0.34836771  1
  H+  H187  1  0.13369028  0.02726027  0.66594758  1
  H+  H188  1  0.36974489  0.39591737  0.50328003  1
  H+  H189  1  0.72568797  0.11687245  0.15258995  1
  H+  H190  1  0.96467455  0.60742192  0.32702063  1
  H+  H191  1  0.96596980  0.36241611  0.65629495  1
  H+  H192  1  0.12851915  0.77205171  0.32360049  1
  H+  H193  1  0.10954489  0.17490518  0.08986826  1
  H+  H194  1  0.39364908  0.53284530  0.51307155  1
  H+  H195  1  0.36335145  0.23079486  0.68027835  1
  H+  H196  1  0.07791136  0.66023044  0.07394600  1
  H+  H197  1  0.10488715  0.62875513  0.16293009  1
  H+  H198  1  0.10769643  0.38935760  0.66788670  1
  H+  H199  1  0.87791805  0.99863352  0.83106558  1
  H+  H200  1  0.86922676  0.72849467  0.66810368  1
  H+  H201  1  0.86340056  0.23261675  0.32910769  1
  H+  H202  1  0.34637470  0.63277699  -0.00639748  1
  H+  H203  1  0.87870021  0.27279337  0.66381792  1
  H+  H204  1  0.89735137  0.02290327  0.16884892  1
  H+  H205  1  0.86655023  0.71918067  0.16765946  1
  H+  H206  1  0.93100720  0.49246247  0.80646687  1
  H+  H207  1  0.99563873  0.61750445  0.50015982  1
  H+  H208  1  0.60747831  0.12391477  0.12879973  1
  H+  H209  1  0.03045848  0.38539515  0.00817055  1
  H+  H210  1  0.64070443  0.01643211  0.99577469  1
  H+  H211  1  0.58640708  0.71660233  0.81225891  1
  H+  H212  1  0.76668049  0.42458066  0.49736517  1
  H+  H213  1  0.40424685  0.18715122  0.98827514  1
  H+  H214  1  0.22758898  0.80625748  0.69235451  1
  H+  H215  1  0.72721309  0.10917937  0.30767151  1
  H+  H216  1  0.47613289  0.86612247  0.49635042  1
  H+  H217  1  0.37555168  0.12916170  0.15421115  1
  H+  H218  1  0.62833998  0.26888377  0.82924674  1
  H+  H219  1  0.38753001  0.11908406  0.66886229  1
  H+  H220  1  0.98319197  0.13649312  0.96721886  1
  H+  H221  1  0.27091252  0.89054637  0.15938745  1
  H+  H222  1  0.09966158  0.75521033  0.65297135  1
  H+  H223  1  0.26888713  0.08800956  -0.01837031  1
  H+  H224  1  0.52623523  0.89806784  0.15455084  1
  H+  H225  1  0.32190178  0.16266174  0.58440198  1
  H+  H226  1  0.22853935  0.38239411  0.34256766  1
  H+  H227  1  0.86245209  0.13937819  0.68961469  1
  H+  H228  1  0.22239362  0.11621303  0.66604898  1
  H+  H229  1  0.16667391  0.02553572  0.97769003  1
  H+  H230  1  0.86176061  0.13040544  0.82655587  1
  H+  H231  1  0.10428125  0.63413578  0.33298125  1
  H+  H232  1  0.11033972  0.13982796  0.67976741  1
  H+  H233  1  0.08261837  0.92468787  0.43258711  1
  H+  H234  1  0.39496093  0.41026345  0.17764675  1
  H+  H235  1  0.62204776  0.97673959  0.67221357  1
  H+  H236  1  0.63403264  0.15051966  0.32639390  1
  H+  H237  1  0.77419623  0.63669090  0.14956791  1
  H+  H238  1  0.88514255  0.35215283  0.17493715  1
  H+  H239  1  0.66370190  0.58950304  0.08544786  1
  H+  H240  1  0.08631282  0.87494810  0.67183422  1
  H+  H241  1  0.88481565  0.61299648  0.00682925  1
  H+  H242  1  0.01124449  0.67904445  0.80886925  1
  H+  H243  1  0.14921256  0.62296203  0.50958954  1
  H+  H244  1  0.60763869  0.97484974  0.82794710  1
  H+  H245  1  0.10912392  0.38734192  0.15637881  1
  H+  H246  1  0.38505993  0.86893287  0.32372828  1
  H+  H247  1  0.02006735  0.88102271  0.34363196  1
  H+  H248  1  0.63795054  0.10277855  1.00582664  1
  H+  H249  1  0.72647414  0.38303080  0.66131000  1
  H+  H250  1  0.63917702  0.11495609  0.65895929  1
  H+  H251  1  0.36891296  1.01798462  0.83945738  1
  H+  H252  1  0.11534201  0.39679409  0.34574927  1
  H+  H253  1  0.50753492  0.38297249  0.34455991  1
  H+  H254  1  0.05077200  0.25151033  0.89701222  1
  H+  H255  1  0.21105210  0.60437259  0.17439806  1
  H+  H256  1  0.13889101  0.65621304  0.67984890  1
  H+  H257  1  0.72634438  0.85802566  0.16632362  1
  H+  H258  1  0.60588084  0.97340519  0.47844887  1
  H+  H259  1  0.64294961  0.26708075  1.02214655  1
  H+  H260  1  0.40436686  0.34401940  0.27326872  1
  H+  H261  1  0.37646279  0.27532889  0.52741800  1
  H+  H262  1  0.69677862  0.83286068  -0.01548703  1
  H+  H263  1  0.96104829  0.86024250  0.99333653  1
  H+  H264  1  0.60489794  0.64061610  0.14476309  1
  H+  H265  1  0.46939345  0.45907233  0.22518386  1
  H+  H266  1  0.61377883  0.37978837  0.01763128  1
  H+  H267  1  1.04127942  0.14785101  0.33851143  1
  H+  H268  1  0.86689962  0.47916722  0.66900638  1
  H+  H269  1  0.10848297  0.98486790  0.49328328  1
  H+  H270  1  0.90957168  0.07848796  0.75400670  1
  H+  H271  1  0.32400065  0.16208629  0.73575578  1
  H+  H272  1  0.11268673  0.72178540  0.16296407  1
  H+  H273  1  0.81955205  0.49931835  0.85068940  1
  H+  H274  1  0.36624184  0.50955176  0.83486619  1
  H+  H275  1  0.37522013  0.26003196  0.83965122  1
  H+  H276  1  0.07069648  0.91921480  -0.05968904  1
  H+  H277  1  0.72724483  0.86187827  0.66437651  1
  H+  H278  1  0.35139132  0.98869403  0.15229106  1
  H+  H279  1  0.38065631  0.11142249  0.52344988  1
  H+  H280  1  0.86129861  0.89099745  0.48478815  1
  H+  H281  1  0.94066591  0.59600262  0.56114056  1
  H+  H282  1  0.20668277  0.60575036  0.98856556  1
  H+  H283  1  0.62733073  0.10948204  0.48336989  1
  H+  H284  1  0.59746862  0.46193426  0.83377980  1
  H+  H285  1  0.82474935  0.40863302  0.39807837  1
  H+  H286  1  0.47367831  0.86648281  0.32273741  1
  H+  H287  1  0.26610325  0.88531222  1.00987205  1
  H+  H288  1  0.52280466  0.40254165  0.16841490  1
  H+  H289  1  0.60176529  0.17949498  0.38444661  1
  H+  H290  1  0.40270595  0.07901675  0.89857911  1
  H+  H291  1  0.34529059  0.16650284  0.39174483  1
  H+  H292  1  0.42552123  0.29304325  0.92737736  1
  H+  H293  1  0.92415382  0.81805635  0.24599897  1
  H+  H294  1  0.38031242  0.02185648  0.99909754  1
  H+  H295  1  0.58082867  0.91475953  0.38840761  1
  H+  H296  1  0.87370672  0.86384051  0.83577156  1
  H+  H297  1  0.16205055  0.82711338  0.94198136  1
  H+  H298  1  0.59267910  0.91616232  0.73048050  1
  H+  H299  1  0.14817796  0.08339878  0.57037259  1
  H+  H300  1  0.85361902  0.59843030  0.84684531  1
  H+  H301  1  0.97382393  0.60568208  0.17463982  1
  H+  H302  1  0.62335225  0.74504251  0.66791631  1
  H+  H303  1  0.82714707  0.17395260  0.73939884  1
  H+  H304  1  0.08403426  0.41945687  0.06995564  1
  H+  H305  1  0.82814408  0.90938199  0.38971830  1
  H+  H306  1  0.68335750  0.48413811  0.53412258  1
  H+  H307  1  0.39920698  0.08602560  0.25237899  1
  H+  H308  1  0.64502186  0.81227553  0.88596948  1
  H+  H309  1  0.33283793  0.67308141  0.39769320  1
  H+  H310  1  0.85135753  0.89966781  0.12104897  1
  H+  H311  1  0.40784494  0.84007502  0.88664652  1
  H+  H312  1  0.09558093  0.98215488  0.84765315  1
  H+  H313  1  0.82254131  0.16916287  0.42126679  1
  H+  H314  1  0.46175918  0.12303267  0.15000692  1
  H+  H315  1  0.65813394  0.56226650  0.90962078  1
  H+  H316  1  0.91112223  0.83475248  0.59569894  1
  H+  H317  1  0.16524569  0.83100499  0.26486136  1
  H+  H318  1  0.90558010  0.57390949  0.26850993  1
  H+  H319  1  0.74000501  0.85866318  0.07536659  1
  H+  H320  1  0.55321166  0.35666572  0.42896050  1
  H+  H321  1  0.08133048  0.67271631  0.39004936  1
  H+  H322  1  0.16219501  0.33361911  0.60112467  1
  H+  H323  1  0.20176385  0.45762784  0.90713424  1
  H+  H324  1  0.98253124  0.61414335  1.01032120  1
  H+  H325  1  0.47128706  0.36632166  0.67036195  1
  H+  H326  1  0.57209046  0.67037126  0.72939716  1
  H+  H327  1  0.08920944  0.15519039  0.77716013  1
  H+  H328  1  0.24772990  0.49140303  0.91164826  1
  H+  H329  1  0.42122958  0.34394680  0.57728904  1
  H+  H330  1  0.91684555  0.33307234  0.26910299  1
  H+  H331  1  0.31493717  0.39307379  0.73874779  1
  H+  H332  1  0.66525682  0.08056152  0.24974362  1
  H+  H333  1  0.92272248  0.09667664  0.58027892  1
  H+  H334  1  0.21755660  0.79124879  0.20895556  1
  H+  H335  1  0.76137099  0.62856879  0.34524217  1
  H+  H336  1  0.22050677  0.61651701  0.32948438  1
  H+  H337  1  0.91428938  0.05137537  0.57753955  1
  H+  H338  1  0.14286210  0.30726635  0.92142623  1
  H+  H339  1  0.72619822  0.60260106  1.00640347  1
  H+  H340  1  0.84602266  0.41552593  0.10360450  1
  H+  H341  1  0.40009096  0.82071880  0.59079375  1
  H+  H342  1  0.63065338  0.51838055  0.33928471  1
  H+  H343  1  0.42357978  0.07902888  0.56943528  1
  H+  H344  1  0.57417214  0.42454485  0.73784829  1
  H+  H345  1  0.34099047  0.42817530  0.44407110  1
  H+  H346  1  0.56737016  0.40502700  0.06772296  1
  H+  H347  1  0.88120981  0.76125461  0.33485107  1
  H+  H348  1  0.13978881  0.82763991  0.55776071  1
  H+  H349  1  0.36127885  0.98165368  0.49204399  1
  H+  H350  1  0.23395478  0.10448136  0.88265845  1
  H+  H351  1  0.18891945  0.71947198  0.44593494  1
  H+  H352  1  0.89326058  0.82069220  0.89741744  1
  H+  H353  1  0.67964144  0.59458981  0.61149037  1
  H+  H354  1  0.11026226  0.40289726  0.83225424  1
  H+  H355  1  0.25818215  0.36197482  0.83774384  1
  H+  H356  1  0.63691054  0.02669100  0.15189478  1
  H+  H357  1  0.67320411  0.38124046  0.60255820  1
  H+  H358  1  0.64916051  0.32842007  0.88777879  1
  H+  H359  1  0.12816917  0.14800886  0.34201829  1
  H+  H360  1  0.47106046  0.95379014  0.94251459  1
  H+  H361  1  0.34252201  0.43677565  0.09815127  1
  H+  H362  1  0.32957214  0.92529079  0.39249546  1
  H+  H363  1  0.17187214  0.59193738  0.57120088  1
  H+  H364  1  0.10095770  0.47342257  0.16306829  1
  H+  H365  1  0.15501954  0.57978854  0.23654345  1
  H+  H366  1  0.93115046  0.11439790  0.90528175  1
  H+  H367  1  0.30688151  0.90704943  0.76594166  1
  H+  H368  1  0.31617713  0.65963322  0.76388001  1
  H+  H369  1  0.13218986  0.87309776  0.85823379  1
  H+  H370  1  0.30607705  0.64594826  0.09884752  1
  H+  H371  1  0.41478746  0.59538316  0.23637548  1
  H+  H372  1  0.87632972  0.16115398  -0.01323335  1
  H+  H373  1  0.84362136  0.16993901  0.09327431  1
  H+  H374  1  0.85517238  0.43190241  0.76314483  1
  H+  H375  1  0.84215344  0.66556432  0.07175072  1
  H+  H376  1  0.63973732  0.32796487  0.24955410  1
  H+  H377  1  0.09919624  0.89271877  0.11732546  1
  H+  H378  1  0.42678913  0.85623970  0.22857856  1
  H+  H379  1  0.32834477  0.92031768  0.06883190  1
  H+  H380  1  0.88837095  0.68419469  0.76236703  1
  H+  H381  1  0.56019465  0.66370754  0.09316372  1
  H+  H382  1  0.07915181  0.42115552  0.72654355  1
  H+  H383  1  0.82919738  0.90440095  0.74386830  1
  O2-  O384  1  0.06987687  0.19306197  0.10635495  1
  O2-  O385  1  0.09236641  0.17708260  0.47901104  1
  O2-  O386  1  0.07906924  0.13930311  0.82106474  1
  O2-  O387  1  0.07288612  0.41510606  0.14401615  1
  O2-  O388  1  0.09970376  0.42254742  0.48378494  1
  O2-  O389  1  0.07942581  0.42801177  0.81171122  1
  O2-  O390  1  0.07630034  0.66092674  0.14608142  1
  O2-  O391  1  0.13214059  0.70146799  0.46288255  1
  O2-  O392  1  0.06947518  0.68536826  0.81018173  1
  O2-  O393  1  0.09558977  0.89126228  0.16151085  1
  O2-  O394  1  0.08088532  0.92402371  0.47836639  1
  O2-  O395  1  0.07058338  0.92247305  0.86074446  1
  O2-  O396  1  0.30883773  0.17594687  0.14065204  1
  O2-  O397  1  0.32286743  0.16260886  0.53995850  1
  O2-  O398  1  0.31830855  0.15295795  0.81555588  1
  O2-  O399  1  0.33483241  0.43360306  0.14437913  1
  O2-  O400  1  0.33980713  0.42708975  0.48958379  1
  O2-  O401  1  0.31693249  0.39604041  0.82290412  1
  O2-  O402  1  0.30473068  0.64963862  0.14338476  1
  O2-  O403  1  0.33923639  0.67178275  0.47559740  1
  O2-  O404  1  0.31678031  0.66110731  0.80962336  1
  O2-  O405  1  0.32930996  0.92767282  0.14002950  1
  O2-  O406  1  0.32976776  0.92264106  0.47398700  1
  O2-  O407  1  0.31732809  0.91469220  0.81036840  1
  O2-  O408  1  0.57225284  0.15151384  0.11320082  1
  O2-  O409  1  0.57160595  0.17279722  0.46574907  1
  O2-  O410  1  0.59573714  0.17662890  0.80313530  1
  O2-  O411  1  0.57621185  0.41764649  0.14474941  1
  O2-  O412  1  0.54616999  0.32936587  0.46998290  1
  O2-  O413  1  0.56219886  0.40557502  0.81169578  1
  O2-  O414  1  0.57253901  0.67173970  0.13795628  1
  O2-  O415  1  0.59442470  0.66127867  0.48321942  1
  O2-  O416  1  0.55596870  0.65975258  0.79094428  1
  O2-  O417  1  0.58415484  0.92307334  0.13207405  1
  O2-  O418  1  0.57499203  0.90986886  0.46679370  1
  O2-  O419  1  0.57854259  0.91499340  0.81158068  1
  O2-  O420  1  0.83636480  0.16230629  0.13816631  1
  O2-  O421  1  0.82173835  0.16047199  0.46582713  1
  O2-  O422  1  0.83126753  0.16276806  0.81800648  1
  O2-  O423  1  0.83483858  0.40819653  0.14821432  1
  O2-  O424  1  0.81865693  0.42580304  0.47988234  1
  O2-  O425  1  0.87419179  0.44136594  0.80703950  1
  O2-  O426  1  0.83786217  0.66211213  0.14643912  1
  O2-  O427  1  0.84359947  0.67322453  0.47755622  1
  O2-  O428  1  0.91592054  0.69414110  0.80298765  1
  O2-  O429  1  0.85435477  0.91094720  0.16475245  1
  O2-  O430  1  0.82759827  0.91499735  0.46598580  1
  O2-  O431  1  0.83547262  0.90783204  0.81283280  1
  O2-  O432  1  0.16520158  0.06647031  0.19340420  1
  O2-  O433  1  0.15479696  0.08484174  0.52528491  1
  O2-  O434  1  0.22901420  0.10109098  0.83737705  1
  O2-  O435  1  0.15798482  0.34000979  0.17074704  1
  O2-  O436  1  0.17162664  0.33715313  0.52456501  1
  O2-  O437  1  0.10958519  0.29133020  0.88238205  1
  O2-  O438  1  0.15024442  0.57669489  0.19116598  1
  O2-  O439  1  0.17783734  0.59270851  0.52582215  1
  O2-  O440  1  0.14453157  0.58896185  0.85454533  1
  O2-  O441  1  0.18158644  0.81419627  0.19465868  1
  O2-  O442  1  0.16009121  0.84282538  0.51522285  1
  O2-  O443  1  0.16118627  0.83847375  0.86439594  1
  O2-  O444  1  0.40442947  0.09722392  0.16873913  1
  O2-  O445  1  0.41468680  0.08131395  0.52517346  1
  O2-  O446  1  0.39469394  0.07819542  0.85417184  1
  O2-  O447  1  0.43934699  0.40382705  0.20428748  1
  O2-  O448  1  0.41651430  0.33797950  0.53180610  1
  O2-  O449  1  0.40542245  0.31900263  0.85716823  1
  O2-  O450  1  0.41151067  0.59477002  0.19074736  1
  O2-  O451  1  0.42906669  0.59570767  0.52254743  1
  O2-  O452  1  0.39746744  0.57191365  0.84507908  1
  O2-  O453  1  0.43780064  0.86832018  0.18436065  1
  O2-  O454  1  0.41532278  0.83629258  0.51236484  1
  O2-  O455  1  0.40277494  0.83248864  0.84192315  1
  O2-  O456  1  0.66318794  0.08917538  0.16304335  1
  O2-  O457  1  0.65101814  0.07212846  0.49349308  1
  O2-  O458  1  0.66439237  0.07995149  0.85539296  1
  O2-  O459  1  0.66369758  0.32580169  0.15146497  1
  O2-  O460  1  0.68229728  0.42840418  0.53314804  1
  O2-  O461  1  0.64970171  0.33042645  0.84366037  1
  O2-  O462  1  0.66562330  0.58985849  0.13075680  1
  O2-  O463  1  0.68703585  0.58845852  0.53444559  1
  O2-  O464  1  0.66942818  0.55150284  0.86801939  1
  O2-  O465  1  0.67944766  0.83939517  0.13650386  1
  O2-  O466  1  0.66620230  0.83275714  0.51761077  1
  O2-  O467  1  0.64869308  0.81651230  0.84103367  1
  O2-  O468  1  0.92740416  0.08553697  0.17781740  1
  O2-  O469  1  0.91566292  0.08178846  0.45578859  1
  O2-  O470  1  0.91135443  0.06665468  0.83785674  1
  O2-  O471  1  0.91475622  0.32098027  0.18915839  1
  O2-  O472  1  0.87103030  0.31001958  0.51900361  1
  O2-  O473  1  0.91971950  0.32938869  0.85567003  1
  O2-  O474  1  0.91273192  0.57166864  0.18925140  1
  O2-  O475  1  0.93779790  0.59655385  0.51592946  1
  O2-  O476  1  0.81666988  0.54634787  0.87133713  1
  O2-  O477  1  0.92627078  0.81887108  0.19987773  1
  O2-  O478  1  0.91432544  0.83665164  0.51887578  1
  O2-  O479  1  0.90834876  0.83180867  0.85398359  1
  O2-  O480  1  0.16492699  0.08161085  0.31771803  1
  O2-  O481  1  0.16238373  0.08686636  0.65001284  1
  O2-  O482  1  0.21455527  0.08253069  0.96503487  1
  O2-  O483  1  0.16881537  0.35328712  0.32672411  1
  O2-  O484  1  0.15780469  0.33521245  0.64675093  1
  O2-  O485  1  0.18114274  0.33044466  0.99441431  1
  O2-  O486  1  0.15946975  0.58624300  0.31522498  1
  O2-  O487  1  0.16137533  0.58949602  0.64790879  1
  O2-  O488  1  0.14438764  0.57436077  0.97700960  1
  O2-  O489  1  0.16034452  0.83383434  0.31111183  1
  O2-  O490  1  0.08197657  0.79143848  0.62779498  1
  O2-  O491  1  0.15979113  0.82818198  0.98746615  1
  O2-  O492  1  0.39797730  0.08453442  0.29730217  1
  O2-  O493  1  0.42072383  0.09194802  0.65229832  1
  O2-  O494  1  0.41960049  0.08263488  0.98372109  1
  O2-  O495  1  0.39951590  0.33416815  0.31782110  1
  O2-  O496  1  0.41136800  0.32856941  0.65498529  1
  O2-  O497  1  0.43773419  0.27455521  0.96721514  1
  O2-  O498  1  0.41658067  0.59077794  0.31387508  1
  O2-  O499  1  0.36499927  0.56519889  0.61766452  1
  O2-  O500  1  0.39949682  0.58866482  0.96734732  1
  O2-  O501  1  0.41232641  0.83600461  0.30838053  1
  O2-  O502  1  0.38865076  0.81021016  0.63515579  1
  O2-  O503  1  0.43857513  0.89563183  0.95893974  1
  O2-  O504  1  0.66591917  0.07630361  0.29451620  1
  O2-  O505  1  0.66518443  0.07884667  0.65107831  1
  O2-  O506  1  0.66911164  0.07865334  0.98391286  1
  O2-  O507  1  0.59685145  0.30516831  0.28174378  1
  O2-  O508  1  0.66708760  0.35863565  0.64514748  1
  O2-  O509  1  0.67489975  0.33027945  1.02779805  1
  O2-  O510  1  0.66413117  0.57856078  0.32464193  1
  O2-  O511  1  0.67676005  0.59752208  0.65703787  1
  O2-  O512  1  0.66252109  0.57646843  1.00429012  1
  O2-  O513  1  0.65812681  0.81999147  0.30633927  1
  O2-  O514  1  0.66795986  0.83225342  0.64637796  1
  O2-  O515  1  0.63856081  0.80758564  0.96685965  1
  O2-  O516  1  0.95373885  0.06168407  0.29231012  1
  O2-  O517  1  0.91334003  0.08065682  0.70897794  1
  O2-  O518  1  0.95336604  0.15633961  0.94046367  1
  O2-  O519  1  0.91601645  0.33136981  0.31441765  1
  O2-  O520  1  0.90360555  0.33222614  0.64643616  1
  O2-  O521  1  0.92470613  0.34322949  0.97786401  1
  O2-  O522  1  0.90335653  0.57597920  0.31375478  1
  O2-  O523  1  0.93154515  0.59517955  0.64089884  1
  O2-  O524  1  0.91829235  0.58191265  0.99516341  1
  O2-  O525  1  0.91620847  0.82236149  0.31953878  1
  O2-  O526  1  0.90908487  0.83031028  0.64145331  1
  O2-  O527  1  0.89822161  0.82043819  0.98630583  1
  O2-  O528  1  0.20220272  0.19499153  0.04662736  1
  O2-  O529  1  0.09946336  0.18043241  0.35623163  1
  O2-  O530  1  0.08560146  0.17303368  0.69864375  1
  O2-  O531  1  0.09020424  0.41717423  0.02416124  1
  O2-  O532  1  0.08340774  0.42795398  0.35913453  1
  O2-  O533  1  0.07720272  0.42094528  0.68161210  1
  O2-  O534  1  0.07320809  0.65981007  0.02747717  1
  O2-  O535  1  0.07242289  0.66502671  0.34558832  1
  O2-  O536  1  0.13000872  0.70460818  0.69583622  1
  O2-  O537  1  0.07341661  0.91730538  -0.01430370  1
  O2-  O538  1  0.08165203  0.91543804  0.35673015  1
  O2-  O539  1  0.07494476  0.91902625  0.69036434  1
  O2-  O540  1  0.37233208  0.12425788  0.00689653  1
  O2-  O541  1  0.33306186  0.16567809  0.34856241  1
  O2-  O542  1  0.33035749  0.16669954  0.69038821  1
  O2-  O543  1  0.34952846  0.43406671  0.02679941  1
  O2-  O544  1  0.33600255  0.43120709  0.36666225  1
  O2-  O545  1  0.32082672  0.39433454  0.69412967  1
  O2-  O546  1  0.30989032  0.65566774  0.01219162  1
  O2-  O547  1  0.32862643  0.67097826  0.35216433  1
  O2-  O548  1  0.31874955  0.65963646  0.68659342  1
  O2-  O549  1  0.32776911  0.91983952  0.02227879  1
  O2-  O550  1  0.32814139  0.92145538  0.34733607  1
  O2-  O551  1  0.27810102  0.86565742  0.68986133  1
  O2-  O552  1  0.58035387  0.15224508  0.04617735  1
  O2-  O553  1  0.62869187  0.19814730  0.34414528  1
  O2-  O554  1  0.59703463  0.18805970  0.67765038  1
  O2-  O555  1  0.57750885  0.40704343  0.02277259  1
  O2-  O556  1  0.56755826  0.40310478  0.35787915  1
  O2-  O557  1  0.57771059  0.43146556  0.69213046  1
  O2-  O558  1  0.55773493  0.65222618  0.01603173  1
  O2-  O559  1  0.57776398  0.66361741  0.35783933  1
  O2-  O560  1  0.58976190  0.67918470  0.68158707  1
  O2-  O561  1  0.58119309  0.90837175  0.01297540  1
  O2-  O562  1  0.57847959  0.91265178  0.34283580  1
  O2-  O563  1  0.59778214  0.91548965  0.68575856  1
  O2-  O564  1  0.84055662  0.17692115  0.01254135  1
  O2-  O565  1  0.82897976  0.16841790  0.33972044  1
  O2-  O566  1  0.83286048  0.17351932  0.69430606  1
  O2-  O567  1  0.84760481  0.42263942  0.02379084  1
  O2-  O568  1  0.83267814  0.40706337  0.35366657  1
  O2-  O569  1  0.83336112  0.42203438  0.68808069  1
  O2-  O570  1  0.83763362  0.65975069  0.02592905  1
  O2-  O571  1  0.82489077  0.66050712  0.35780307  1
  O2-  O572  1  0.84758253  0.66923402  0.68503497  1
  O2-  O573  1  0.78351636  0.87403689  0.04092497  1
  O2-  O574  1  0.83010220  0.90506304  0.34407241  1
  O2-  O575  1  0.82667347  0.91053211  0.69667663  1
