# generated using pymatgen
data_H2O
_symmetry_space_group_name_H-M   'P 1'
_cell_length_a   17.97992214
_cell_length_b   17.97693050
_cell_length_c   21.99755435
_cell_angle_alpha   89.99804943
_cell_angle_beta   90.00763010
_cell_angle_gamma   119.98773322
_symmetry_Int_Tables_number   1
_chemical_formula_structural   H2O
_chemical_formula_sum   'H384 O192'
_cell_volume   6158.31702562
_cell_formula_units_Z   192
loop_
 _symmetry_equiv_pos_site_id
 _symmetry_equiv_pos_as_xyz
  1  'x, y, z'
loop_
 _atom_type_symbol
 _atom_type_oxidation_number
  H+  1.0
  O2-  -2.0
loop_
 _atom_site_type_symbol
 _atom_site_label
 _atom_site_symmetry_multiplicity
 _atom_site_fract_x
 _atom_site_fract_y
 _atom_site_fract_z
 _atom_site_occupancy
  H+  H0  1  0.36224788  0.21489992  0.81268659  1
  H+  H1  1  0.36421317  0.90944372  0.67548306  1
  H+  H2  1  0.63247274  0.35184554  0.51045514  1
  H+  H3  1  0.63890639  0.62729028  0.16487888  1
  H+  H4  1  0.66096911  0.04650397  0.33049408  1
  H+  H5  1  0.63570663  0.49915000  1.00241030  1
  H+  H6  1  0.27940277  0.64046669  0.49675148  1
  H+  H7  1  0.09626151  0.97115389  0.00108322  1
  H+  H8  1  0.26837124  0.14088422  0.16004195  1
  H+  H9  1  0.36417270  0.38653038  0.16643263  1
  H+  H10  1  0.55485277  0.93559610  0.35395967  1
  H+  H11  1  0.14938078  0.38449126  0.82531832  1
  H+  H12  1  0.63884216  0.04927876  0.99532632  1
  H+  H13  1  0.80337102  0.72895617  0.10909363  1
  H+  H14  1  0.46549238  0.87144514  0.97805385  1
  H+  H15  1  0.32246957  0.90960421  0.06358890  1
  H+  H16  1  0.36682545  0.22092238  0.34234699  1
  H+  H17  1  0.77796460  0.14143943  0.49262260  1
  H+  H18  1  0.28567039  0.39230103  0.67858980  1
  H+  H19  1  0.88715234  0.78444410  0.16854659  1
  H+  H20  1  0.10051583  0.71910959  0.67437851  1
  H+  H21  1  0.85995721  0.99543826  0.81784064  1
  H+  H22  1  0.77187508  0.60773522  0.01305220  1
  H+  H23  1  0.60562823  0.58817895  0.51677877  1
  H+  H24  1  0.36117489  0.97675802  0.15355136  1
  H+  H25  1  0.63816652  0.21485385  0.09553258  1
  H+  H26  1  0.63152347  0.34858147  0.82904031  1
  H+  H27  1  0.63695515  0.59565581  0.65441406  1
  H+  H28  1  0.03224299  0.62306285  0.48909279  1
  H+  H29  1  0.39669775  0.02261677  0.84401779  1
  H+  H30  1  0.60727402  0.88794123  0.33963020  1
  H+  H31  1  0.08523339  0.17591660  0.42749582  1
  H+  H32  1  0.36630786  0.38142718  0.67203971  1
  H+  H33  1  0.36778029  1.01790671  -0.00588923  1
  H+  H34  1  0.72941730  0.86035527  0.50379776  1
  H+  H35  1  0.58882998  0.49162031  0.14104772  1
  H+  H36  1  0.37158477  0.61618179  0.84758662  1
  H+  H37  1  0.34711152  0.12667901  0.00520226  1
  H+  H38  1  0.62339550  0.13925751  0.83190405  1
  H+  H39  1  0.63435096  0.78670583  0.83827709  1
  H+  H40  1  0.11786393  0.12455753  0.82303680  1
  H+  H41  1  1.00175965  0.37423963  0.34230723  1
  H+  H42  1  0.23464280  0.09756774  0.82883209  1
  H+  H43  1  0.87884439  0.90948243  0.01419384  1
  H+  H44  1  0.04007704  0.13008526  0.66499041  1
  H+  H45  1  0.85873848  0.46908310  0.81945841  1
  H+  H46  1  0.72543095  0.35269859  0.82276054  1
  H+  H47  1  0.12933945  0.61030628  0.66504769  1
  H+  H48  1  0.59393627  0.26403108  0.18214812  1
  H+  H49  1  0.38239698  0.52350657  0.31840380  1
  H+  H50  1  0.13746018  0.77302892  0.17185504  1
  H+  H51  1  0.05540065  0.36745461  0.82246277  1
  H+  H52  1  0.88735303  0.50880725  0.49444325  1
  H+  H53  1  0.96598148  0.72691123  0.43910454  1
  H+  H54  1  0.40940189  0.50905863  0.82128135  1
  H+  H55  1  0.44289820  0.83718545  0.31538317  1
  H+  H56  1  0.64307670  1.02887674  0.50978975  1
  H+  H57  1  0.87419125  0.49133323  0.00881468  1
  H+  H58  1  0.40665679  0.36337413  -0.00894433  1
  H+  H59  1  0.89447868  0.88043913  0.65796893  1
  H+  H60  1  0.60967648  0.13763639  0.34639882  1
  H+  H61  1  0.53320068  0.58644878  0.79163283  1
  H+  H62  1  0.63175858  0.24774267  0.82720778  1
  H+  H63  1  0.11074628  0.24049912  0.16396649  1
  H+  H64  1  0.25013253  0.35301583  0.99227624  1
  H+  H65  1  0.98865754  0.36353220  0.66393566  1
  H+  H66  1  0.22831720  0.84713400  0.84399245  1
  H+  H67  1  0.80644645  0.39946674  0.17803096  1
  H+  H68  1  0.76831289  0.66179501  0.52344699  1
  H+  H69  1  0.77555597  0.13254441  1.02597317  1
  H+  H70  1  0.90729365  0.60785035  0.49410829  1
  H+  H71  1  0.38571062  0.61317027  0.32317608  1
  H+  H72  1  0.86944748  0.89922335  0.16136655  1
  H+  H73  1  1.02132432  0.64735401  0.15082541  1
  H+  H74  1  0.85920089  0.37521888  0.49307450  1
  H+  H75  1  0.64231142  0.77765034  0.99048388  1
  H+  H76  1  0.11499518  0.14499005  0.33611506  1
  H+  H77  1  0.37933847  0.11090876  0.16358729  1
  H+  H78  1  0.77978121  0.61088968  0.65717378  1
  H+  H79  1  0.38451069  0.34899289  0.50812485  1
  H+  H80  1  0.86475644  0.99140579  0.66647778  1
  H+  H81  1  0.23109614  0.36362624  0.50760759  1
  H+  H82  1  -0.02189082  0.11417739  0.50085332  1
  H+  H83  1  0.37471915  0.86537548  0.98544665  1
  H+  H84  1  0.38849510  0.78477471  0.66223724  1
  H+  H85  1  0.87172762  0.46870015  0.66118634  1
  H+  H86  1  0.12081166  0.42424767  -0.00611035  1
  H+  H87  1  0.63580632  0.11427210  0.50969621  1
  H+  H88  1  0.13291754  0.38984331  0.99142237  1
  H+  H89  1  0.36396754  0.64174094  0.15463426  1
  H+  H90  1  0.02275148  0.90439388  0.48969978  1
  H+  H91  1  0.98331653  0.11355379  0.83688730  1
  H+  H92  1  0.35893209  0.73229775  -0.00147941  1
  H+  H93  1  0.34462305  0.71361460  0.33501347  1
  H+  H94  1  0.87420521  0.59084164  1.00838785  1
  H+  H95  1  0.89179732  0.69019954  0.71948160  1
  H+  H96  1  0.76736545  0.66983994  0.35121019  1
  H+  H97  1  0.89304039  0.65244019  0.16193668  1
  H+  H98  1  0.88857629  1.11297596  0.50283943  1
  H+  H99  1  0.83161153  0.65763837  0.07299133  1
  H+  H100  1  0.41133580  0.58187570  0.56315271  1
  H+  H101  1  0.11732933  0.23587660  0.33094768  1
  H+  H102  1  0.11561585  0.98145239  0.33603166  1
  H+  H103  1  0.16400513  0.26372336  0.99269304  1
  H+  H104  1  0.98034297  0.12500650  0.99508549  1
  H+  H105  1  0.21934374  0.85523634  0.66979942  1
  H+  H106  1  0.63308141  0.26351209  0.51010992  1
  H+  H107  1  0.11240403  0.95725994  0.82112176  1
  H+  H108  1  0.37780584  0.86203870  0.16800610  1
  H+  H109  1  0.22112421  0.86381048  0.32963097  1
  H+  H110  1  0.65030519  0.60148145  0.68748972  1
  H+  H111  1  0.63431712  0.79354200  0.65800040  1
  H+  H112  1  0.73004457  0.87441465  0.16593166  1
  H+  H113  1  0.38567214  0.61200392  0.50231903  1
  H+  H114  1  0.58988812  0.16112676  0.76683471  1
  H+  H115  1  0.66197391  0.14958031  0.99470848  1
  H+  H116  1  0.01141549  0.62877910  0.67017743  1
  H+  H117  1  0.72455507  0.34273052  0.65712396  1
  H+  H118  1  0.59613295  0.89661621  0.83534322  1
  H+  H119  1  0.27381143  0.88056933  0.49632665  1
  H+  H120  1  0.63522183  0.65860516  0.79686000  1
  H+  H121  1  0.76989494  0.90323568  0.66662822  1
  H+  H122  1  0.89260166  0.03783313  0.32154831  1
  H+  H123  1  0.89276871  1.03555494  -0.00707624  1
  H+  H124  1  0.25455135  0.38340499  0.33040475  1
  H+  H125  1  0.51863701  0.62883124  0.33719553  1
  H+  H126  1  0.89433328  0.88558572  0.32070068  1
  H+  H127  1  0.93718256  0.34588795  0.86528887  1
  H+  H128  1  0.69837172  0.60330131  0.84419087  1
  H+  H129  1  0.66139217  0.54446409  0.30681976  1
  H+  H130  1  0.27127157  0.88773343  0.15913822  1
  H+  H131  1  0.47768526  0.34553674  0.83310371  1
  H+  H132  1  0.38737888  0.27356213  0.17746926  1
  H+  H133  1  0.61361967  0.45259352  0.83116566  1
  H+  H134  1  0.83711655  0.16069854  0.73105245  1
  H+  H135  1  0.14790846  0.76505804  0.50898049  1
  H+  H136  1  0.36709597  0.88987046  0.49363132  1
  H+  H137  1  0.22643304  0.11502582  0.99147529  1
  H+  H138  1  0.37390534  0.01776908  0.51639873  1
  H+  H139  1  0.32819235  0.67091182  0.09768598  1
  H+  H140  1  0.26273048  0.63088529  0.83157357  1
  H+  H141  1  0.92159830  0.84010336  0.56313528  1
  H+  H142  1  0.78171735  0.15013254  0.33699075  1
  H+  H143  1  0.52525708  0.36075371  -0.00225173  1
  H+  H144  1  0.12258320  0.01463640  0.49017990  1
  H+  H145  1  0.35177002  0.88531364  0.33931853  1
  H+  H146  1  -0.06346207  0.32270961  0.22694052  1
  H+  H147  1  0.11959365  0.39057004  0.50028117  1
  H+  H148  1  0.26002830  0.87897295  0.00515616  1
  H+  H149  1  0.88363397  0.65183915  0.30112946  1
  H+  H150  1  0.85219472  0.76009989  0.35011348  1
  H+  H151  1  0.26577104  0.61931163  0.34083856  1
  H+  H152  1  0.37018259  0.47575495  0.49492477  1
  H+  H153  1  0.60281368  0.55920438  0.86748421  1
  H+  H154  1  0.01960506  0.15216165  0.15989650  1
  H+  H155  1  0.14788097  0.61592863  0.50966451  1
  H+  H156  1  0.80588695  0.73601115  0.82549543  1
  H+  H157  1  0.38453912  0.01914517  0.33903166  1
  H+  H158  1  0.13912956  0.36324545  0.31648123  1
  H+  H159  1  0.67510722  0.08917149  0.59819263  1
  H+  H160  1  0.38589026  0.11536082  0.33807105  1
  H+  H161  1  0.87435644  0.75454920  0.68037271  1
  H+  H162  1  0.12535200  0.85901043  -0.00925182  1
  H+  H163  1  0.61380080  0.73772256  0.14984360  1
  H+  H164  1  0.10506787  0.71239104  0.82905592  1
  H+  H165  1  0.61013581  0.89347636  0.65744305  1
  H+  H166  1  0.37433222  0.14340151  0.71924522  1
  H+  H167  1  0.60763031  0.89641968  0.15169435  1
  H+  H168  1  0.85070332  0.13237485  0.12154546  1
  H+  H169  1  0.62051052  0.88910856  0.50194515  1
  H+  H170  1  0.15781764  0.27135520  0.83325150  1
  H+  H171  1  0.16190290  0.33524746  0.24335576  1
  H+  H172  1  0.22738154  0.11385034  0.32575222  1
  H+  H173  1  0.87397641  0.26087015  1.01359405  1
  H+  H174  1  0.63899156  0.77068172  0.50580654  1
  H+  H175  1  0.99588667  0.59209508  0.31437345  1
  H+  H176  1  0.61152802  0.34862529  0.34782266  1
  H+  H177  1  0.48197893  0.11367604  0.84241251  1
  H+  H178  1  0.96623567  0.59471176  0.84130961  1
  H+  H179  1  0.86992446  0.22295702  0.67348601  1
  H+  H180  1  0.50207015  0.40176423  0.14951579  1
  H+  H181  1  0.39212026  0.77592232  0.50600213  1
  H+  H182  1  0.86218903  0.25603859  0.83991163  1
  H+  H183  1  0.87923185  0.73615197  -0.00316960  1
  H+  H184  1  0.60085091  0.22313179  0.35067266  1
  H+  H185  1  0.34927654  0.12242138  0.49647571  1
  H+  H186  1  0.11396815  0.89030187  0.16099481  1
  H+  H187  1  0.38310714  0.52376142  0.65708405  1
  H+  H188  1  0.33879341  0.98391691  0.68047152  1
  H+  H189  1  0.59070080  0.44706165  0.50322908  1
  H+  H190  1  0.14777705  0.52771158  0.51563198  1
  H+  H191  1  0.76965448  0.37233479  0.01664448  1
  H+  H192  1  0.41353567  0.32307299  -0.07337318  1
  H+  H193  1  0.13570739  0.51427013  0.84312667  1
  H+  H194  1  0.77624799  0.90097323  0.33775811  1
  H+  H195  1  0.37761633  0.77149407  0.16784379  1
  H+  H196  1  0.13332851  0.50897643  0.32875313  1
  H+  H197  1  0.11541250  0.23120286  0.48980984  1
  H+  H198  1  0.46099931  0.62098489  0.65626444  1
  H+  H199  1  0.72859212  0.62866251  0.16060901  1
  H+  H200  1  0.48166450  0.86526218  0.50907448  1
  H+  H201  1  0.59577528  0.66258841  0.66202907  1
  H+  H202  1  0.89893564  0.11816119  0.65598531  1
  H+  H203  1  0.91116706  0.78571671  0.50191073  1
  H+  H204  1  0.84705151  0.55522562  0.63252675  1
  H+  H205  1  0.70721948  0.26404385  0.14734198  1
  H+  H206  1  0.84920503  0.79967963  0.97483898  1
  H+  H207  1  0.46682203  0.63499633  0.85612276  1
  H+  H208  1  0.54972595  0.78070887  0.27568778  1
  H+  H209  1  0.84189809  0.41202770  0.73198985  1
  H+  H210  1  0.35339464  0.21368126  0.49310340  1
  H+  H211  1  0.35613050  0.64472729  0.67289832  1
  H+  H212  1  0.70242083  0.35102326  0.33322401  1
  H+  H213  1  0.13119036  0.13388302  0.66989846  1
  H+  H214  1  0.86026716  0.46216417  0.33312186  1
  H+  H215  1  1.01130863  0.87887067  1.00581858  1
  H+  H216  1  0.51513830  0.88821471  0.15494135  1
  H+  H217  1  0.35250426  0.21871882  0.00238816  1
  H+  H218  1  0.10220499  0.63716621  0.00193818  1
  H+  H219  1  0.12271971  0.59699349  0.84091264  1
  H+  H220  1  0.60767937  0.90059033  0.99968325  1
  H+  H221  1  0.36162843  0.64500965  1.00640177  1
  H+  H222  1  0.48265031  0.11341657  0.34117231  1
  H+  H223  1  0.86425752  0.88744550  0.48803176  1
  H+  H224  1  0.09102832  0.61839658  0.14289744  1
  H+  H225  1  0.73284333  0.10918945  0.65923262  1
  H+  H226  1  0.41029198  0.53281804  1.00576677  1
  H+  H227  1  0.21801755  0.09760606  0.71543851  1
  H+  H228  1  0.13137929  0.85480090  0.66163533  1
  H+  H229  1  0.98263497  0.87635899  0.65970062  1
  H+  H230  1  0.13012492  0.11980461  0.17471739  1
  H+  H231  1  0.58794786  0.44982473  0.36654860  1
  H+  H232  1  0.38385594  0.25208983  0.66021292  1
  H+  H233  1  0.96454533  0.83476514  0.83307607  1
  H+  H234  1  0.47734998  0.62082738  0.16566710  1
  H+  H235  1  0.87671565  0.35829939  0.31895962  1
  H+  H236  1  0.60998317  0.21307763  0.67862370  1
  H+  H237  1  0.63760914  0.03249696  0.84768139  1
  H+  H238  1  0.91898862  0.84674200  0.26342141  1
  H+  H239  1  0.08025280  0.51630679  0.05031032  1
  H+  H240  1  0.65629124  0.47211506  0.68057903  1
  H+  H241  1  0.13065459  0.03037565  0.17313402  1
  H+  H242  1  0.13095573  0.85962388  0.32750925  1
  H+  H243  1  0.61296613  -0.01193765  0.66001896  1
  H+  H244  1  0.61405036  1.02898443  0.17949367  1
  H+  H245  1  0.84129093  0.61067958  0.29985176  1
  H+  H246  1  0.92314964  0.08812409  0.89671241  1
  H+  H247  1  0.98319718  0.12549501  0.31917557  1
  H+  H248  1  0.86016066  0.37437703  1.01566734  1
  H+  H249  1  0.91850409  0.24837354  0.18065344  1
  H+  H250  1  0.11999105  0.76725872  0.99167617  1
  H+  H251  1  0.88506511  0.27409216  0.32214744  1
  H+  H252  1  0.38597687  0.35029282  0.33469747  1
  H+  H253  1  0.86413908  0.13399122  1.01757851  1
  H+  H254  1  0.10128880  0.13008742  0.02346570  1
  H+  H255  1  0.27140436  0.64978878  0.67706999  1
  H+  H256  1  0.11991899  0.47842733  0.67407336  1
  H+  H257  1  0.11926660  0.72136542  0.33705021  1
  H+  H258  1  0.60222159  0.75548297  0.31924673  1
  H+  H259  1  0.51229170  0.12889400  0.50575335  1
  H+  H260  1  0.76691695  0.62145845  0.51259565  1
  H+  H261  1  0.87000687  0.14691567  0.33563639  1
  H+  H262  1  0.14765080  0.27391891  0.66008709  1
  H+  H263  1  0.33036375  0.91609128  0.40338076  1
  H+  H264  1  0.40727468  0.37055068  0.82892705  1
  H+  H265  1  0.21765236  0.61904536  -0.00428663  1
  H+  H266  1  0.12084950  0.97207454  0.67850604  1
  H+  H267  1  0.36401841  0.47479359  0.15977989  1
  H+  H268  1  0.61737145  0.12908072  0.68015632  1
  H+  H269  1  0.13534318  0.12037550  0.49431776  1
  H+  H270  1  0.36819777  0.12964653  0.82080148  1
  H+  H271  1  0.10027152  0.41701734  0.73198553  1
  H+  H272  1  0.41564634  0.83862670  0.59926396  1
  H+  H273  1  0.63082448  0.32474342  1.00734380  1
  H+  H274  1  0.12629554  0.63458167  0.33690297  1
  H+  H275  1  0.61263867  0.63936539  0.33236200  1
  H+  H276  1  0.46861317  0.33871219  0.51012715  1
  H+  H277  1  0.88008229  0.37680699  0.67143565  1
  H+  H278  1  0.98058997  0.36287613  0.51332096  1
  H+  H279  1  0.40470865  0.08222832  0.93800586  1
  H+  H280  1  0.52097629  0.63851214  0.49197674  1
  H+  H281  1  1.02433624  0.89503012  0.33540969  1
  H+  H282  1  0.41879629  0.59043164  0.22563816  1
  H+  H283  1  0.22847613  0.59855816  0.17614669  1
  H+  H284  1  0.61954214  0.37373396  0.67729572  1
  H+  H285  1  0.77184061  0.13095559  0.82682533  1
  H+  H286  1  0.52995373  0.63874609  0.00167311  1
  H+  H287  1  0.47655204  0.35072478  0.34434917  1
  H+  H288  1  0.46900242  0.45899751  0.05735857  1
  H+  H289  1  0.20004370  0.32771536  0.89129982  1
  H+  H290  1  0.39045639  0.86000481  0.88332383  1
  H+  H291  1  0.32449349  0.16786540  0.09950849  1
  H+  H292  1  0.59476332  0.30026479  0.24623229  1
  H+  H293  1  0.17420566  0.82299882  0.56856948  1
  H+  H294  1  0.67908813  0.09970868  0.90440265  1
  H+  H295  1  0.92629296  0.33176086  0.60397326  1
  H+  H296  1  0.07292867  0.66619828  0.06173281  1
  H+  H297  1  0.91511873  0.60853981  0.21599763  1
  H+  H298  1  0.86310029  0.98640799  0.15981665  1
  H+  H299  1  0.86822453  0.69557090  0.42702447  1
  H+  H300  1  0.82188240  0.38214177  0.11094207  1
  H+  H301  1  0.67517432  0.60401348  0.25057180  1
  H+  H302  1  0.51084466  0.89027540  0.65933066  1
  H+  H303  1  0.39056318  0.30289263  0.60026307  1
  H+  H304  1  0.66242015  0.83876454  0.22083516  1
  H+  H305  1  0.40120888  0.46282408  0.75726274  1
  H+  H306  1  0.41225784  0.58269093  0.94385718  1
  H+  H307  1  0.38087804  0.07512041  0.57539558  1
  H+  H308  1  0.76180273  0.90435287  0.81595572  1
  H+  H309  1  0.16653283  0.08877390  0.26693339  1
  H+  H310  1  0.84871712  0.37398048  0.81945889  1
  H+  H311  1  0.25064418  0.07508394  0.65651366  1
  H+  H312  1  0.82334230  0.93744782  0.74708038  1
  H+  H313  1  0.56921425  0.40063213  0.06059761  1
  H+  H314  1  0.96632578  0.52278340  0.26274717  1
  H+  H315  1  0.14387863  0.36148833  0.66069810  1
  H+  H316  1  0.59281122  0.40598754  0.76510288  1
  H+  H317  1  0.91498116  0.80036932  0.89494888  1
  H+  H318  1  0.63469503  0.12712916  0.17830626  1
  H+  H319  1  0.67028121  0.84426176  0.59513450  1
  H+  H320  1  0.17695568  0.06393873  0.88885124  1
  H+  H321  1  0.87235704  0.29946303  0.94920969  1
  H+  H322  1  0.46873255  0.11576575  0.16795182  1
  H+  H323  1  0.08058075  0.93046722  0.42694558  1
  H+  H324  1  0.16885850  0.58802485  0.60692223  1
  H+  H325  1  0.03105009  0.44720921  0.10041157  1
  H+  H326  1  0.16298385  0.83024176  0.23240063  1
  H+  H327  1  0.11264778  0.86899420  0.82219232  1
  H+  H328  1  0.15895772  0.49982602  0.18433645  1
  H+  H329  1  0.72511608  0.56069942  0.59857192  1
  H+  H330  1  0.07008687  0.65493396  0.76912448  1
  H+  H331  1  0.55894717  0.51938173  0.56763910  1
  H+  H332  1  0.32630261  0.66605618  0.77445763  1
  H+  H333  1  0.82635676  0.40608408  0.39436832  1
  H+  H334  1  0.16890443  0.56350858  0.26676775  1
  H+  H335  1  0.07791104  0.90239356  0.73118332  1
  H+  H336  1  0.61547074  0.63027831  0.00532409  1
  H+  H337  1  0.86502799  0.13658476  0.82690438  1
  H+  H338  1  0.04866060  0.33245806  0.37549010  1
  H+  H339  1  0.09431473  0.65943241  0.43125041  1
  H+  H340  1  0.22452646  0.11284084  0.49695353  1
  H+  H341  1  0.37659895  0.42920246  0.07806828  1
  H+  H342  1  0.09081649  0.15732387  0.76460845  1
  H+  H343  1  0.92358075  0.08551888  0.59499239  1
  H+  H344  1  0.66240451  0.09590495  0.26953796  1
  H+  H345  1  0.51517220  0.91030227  0.82816923  1
  H+  H346  1  0.56761505  0.15503200  0.44375631  1
  H+  H347  1  0.83858764  0.17183060  0.43335807  1
  H+  H348  1  0.17213772  0.33301410  0.56696744  1
  H+  H349  1  -0.02989332  0.59504864  0.00274841  1
  H+  H350  1  0.59721412  0.92413661  0.44331541  1
  H+  H351  1  0.72757438  0.86902185  0.99331855  1
  H+  H352  1  0.89269282  0.27152845  0.51044834  1
  H+  H353  1  0.33326909  0.66667892  0.43415379  1
  H+  H354  1  0.16239204  0.13336206  0.95223013  1
  H+  H355  1  0.77695475  0.68595150  0.76464015  1
  H+  H356  1  0.90343189  0.55523248  0.89797814  1
  H+  H357  1  0.76922341  0.37400300  0.49241871  1
  H+  H358  1  0.57320298  0.92610322  0.05752834  1
  H+  H359  1  0.28863532  0.45388805  0.38115510  1
  H+  H360  1  0.56507435  0.38764017  0.44038831  1
  H+  H361  1  0.91119724  0.09588783  0.22672520  1
  H+  H362  1  0.83317781  0.92589075  0.39777767  1
  H+  H363  1  0.83792253  0.93006054  0.07018674  1
  H+  H364  1  0.86408595  0.97651358  0.49020580  1
  H+  H365  1  0.67032057  0.84322084  0.89810218  1
  H+  H366  1  0.42195245  0.32921731  0.23805419  1
  H+  H367  1  0.33053760  0.15678371  0.40042123  1
  H+  H368  1  0.57052007  0.68213273  0.72542655  1
  H+  H369  1  0.38912936  0.82157998  0.25569957  1
  H+  H370  1  0.34194103  0.41199378  0.43807772  1
  H+  H371  1  0.66935449  0.56018369  0.94560756  1
  H+  H372  1  0.08284429  0.91938364  0.10191304  1
  H+  H373  1  0.58479610  0.67340367  0.09301747  1
  H+  H374  1  0.08106048  0.17837393  0.07529052  1
  H+  H375  1  0.58342255  0.66401167  0.43439547  1
  H+  H376  1  0.34537094  0.91330870  0.77821516  1
  H+  H377  1  0.15388662  0.57835432  0.93949678  1
  H+  H378  1  0.97977189  0.87142610  0.17163203  1
  H+  H379  1  0.05430565  0.34804452  0.18085251  1
  H+  H380  1  0.66346458  0.31786809  0.59940965  1
  H+  H381  1  0.16310980  0.82333348  0.89936540  1
  H+  H382  1  0.08298577  0.42157686  0.44529597  1
  H+  H383  1  0.91370650  0.55385255  0.58658473  1
  O2-  O384  1  0.08071742  0.17860635  0.14766303  1
  O2-  O385  1  0.08442976  0.17132816  0.47317280  1
  O2-  O386  1  0.08823721  0.15612333  0.80994247  1
  O2-  O387  1  0.11890273  0.38386994  0.17168029  1
  O2-  O388  1  0.08795635  0.42199935  0.49021993  1
  O2-  O389  1  0.11300370  0.41103171  0.81041039  1
  O2-  O390  1  0.08229698  0.66801199  0.13784693  1
  O2-  O391  1  0.09359081  0.65806510  0.47672294  1
  O2-  O392  1  0.07097752  0.65176371  0.81437339  1
  O2-  O393  1  0.08395671  0.92153011  0.14704955  1
  O2-  O394  1  0.08232779  0.93797827  0.47254684  1
  O2-  O395  1  0.07982317  0.89650191  0.80678880  1
  O2-  O396  1  0.32841399  0.16876691  0.14477402  1
  O2-  O397  1  0.32098469  0.15282639  0.47671743  1
  O2-  O398  1  0.33547667  0.15388623  0.79949428  1
  O2-  O399  1  0.34016856  0.41667313  0.14231961  1
  O2-  O400  1  0.34050296  0.41344455  0.48288517  1
  O2-  O401  1  0.43661731  0.48403145  0.79508788  1
  O2-  O402  1  0.32965255  0.66975713  0.14312581  1
  O2-  O403  1  0.33911655  0.67038149  0.47935293  1
  O2-  O404  1  0.32402288  0.65937161  0.81914334  1
  O2-  O405  1  0.33012384  0.91380882  0.14154324  1
  O2-  O406  1  0.33415146  0.91719238  0.47870454  1
  O2-  O407  1  0.34580870  0.91160641  0.82402034  1
  O2-  O408  1  0.64767564  0.21533592  0.14100381  1
  O2-  O409  1  0.57181790  0.15617558  0.48912052  1
  O2-  O410  1  0.59131581  0.16762893  0.81425920  1
  O2-  O411  1  0.54188120  0.44343510  0.11849504  1
  O2-  O412  1  0.56914685  0.38746549  0.48892252  1
  O2-  O413  1  0.58468021  0.39525334  0.81114948  1
  O2-  O414  1  0.58274442  0.67572269  0.13841333  1
  O2-  O415  1  0.58289112  0.66602341  0.47962768  1
  O2-  O416  1  0.57625342  0.64971386  0.79448769  1
  O2-  O417  1  0.57399781  0.92328035  0.13785834  1
  O2-  O418  1  0.59135513  0.92135780  0.48830855  1
  O2-  O419  1  0.57745922  0.93658916  0.82117608  1
  O2-  O420  1  0.85570366  0.13274719  0.16716189  1
  O2-  O421  1  0.83910721  0.16965194  0.47891419  1
  O2-  O422  1  0.83208459  0.16271801  0.80942712  1
  O2-  O423  1  0.80786532  0.35645116  0.15209011  1
  O2-  O424  1  0.82905597  0.40388545  0.47522801  1
  O2-  O425  1  0.82838902  0.41010013  0.79795455  1
  O2-  O426  1  0.82245678  0.69296360  0.12916314  1
  O2-  O427  1  0.91053967  0.69954812  0.45966906  1
  O2-  O428  1  0.75272593  0.69179292  0.80373612  1
  O2-  O429  1  0.83607601  0.92599160  0.14465634  1
  O2-  O430  1  0.83236905  0.91654368  0.47359952  1
  O2-  O431  1  0.82085896  0.93793373  0.79681894  1
  O2-  O432  1  0.16094562  0.09003050  0.18949459  1
  O2-  O433  1  0.16088346  0.08448647  0.50885598  1
  O2-  O434  1  0.17354176  0.06554769  0.84405324  1
  O2-  O435  1  0.15700852  0.33303486  0.19209221  1
  O2-  O436  1  0.17006110  0.33470184  0.52129973  1
  O2-  O437  1  0.19191756  0.33175016  0.84690279  1
  O2-  O438  1  0.17243908  0.55851047  0.19572839  1
  O2-  O439  1  0.17951422  0.58900199  0.52904188  1
  O2-  O440  1  0.15636657  0.57255755  0.85984644  1
  O2-  O441  1  0.16432170  0.83316928  0.18704892  1
  O2-  O442  1  0.17956235  0.82504293  0.52372678  1
  O2-  O443  1  0.16642966  0.81933637  0.85397544  1
  O2-  O444  1  0.40756835  0.07699929  0.17451502  1
  O2-  O445  1  0.40002474  0.07794493  0.53174367  1
  O2-  O446  1  0.42059708  0.08416450  0.85459563  1
  O2-  O447  1  0.41445004  0.33320275  0.19374478  1
  O2-  O448  1  0.40570042  0.31028336  0.52176325  1
  O2-  O449  1  0.41653983  0.32429022  0.84468542  1
  O2-  O450  1  0.41672164  0.59098532  0.18046152  1
  O2-  O451  1  0.41598353  0.58150131  0.51762914  1
  O2-  O452  1  0.40782910  0.59150339  0.86582025  1
  O2-  O453  1  0.40701159  0.83118222  0.18571355  1
  O2-  O454  1  0.42054935  0.83579085  0.52266954  1
  O2-  O455  1  0.39623128  0.86913438  0.83799807  1
  O2-  O456  1  0.62552804  0.07842137  0.20532515  1
  O2-  O457  1  0.67331334  0.09046406  0.52278958  1
  O2-  O458  1  0.67624837  0.09526205  0.85867248  1
  O2-  O459  1  0.56436685  0.28700709  0.20715737  1
  O2-  O460  1  0.66750445  0.32456927  0.52389296  1
  O2-  O461  1  0.66633599  0.31885245  0.84052991  1
  O2-  O462  1  0.66849919  0.59585216  0.17896117  1
  O2-  O463  1  0.60969877  0.54408951  0.54180577  1
  O2-  O464  1  0.65299402  0.55171167  0.86726850  1
  O2-  O465  1  0.66738960  0.84357379  0.17621948  1
  O2-  O466  1  0.66988714  0.83154129  0.52109750  1
  O2-  O467  1  0.66816593  0.84615828  0.85225632  1
  O2-  O468  1  0.90871194  0.09302334  0.18046268  1
  O2-  O469  1  0.91825315  0.08151684  0.51725014  1
  O2-  O470  1  0.92203570  0.08606818  0.85101599  1
  O2-  O471  1  0.95513628  0.31074311  0.18761234  1
  O2-  O472  1  0.91984753  0.33088422  0.52821191  1
  O2-  O473  1  0.87521450  0.31241511  0.85975996  1
  O2-  O474  1  0.92185648  0.61985774  0.17216162  1
  O2-  O475  1  0.92440608  0.56776384  0.51232102  1
  O2-  O476  1  0.90474419  0.55750129  0.85337356  1
  O2-  O477  1  0.91880586  0.84448148  0.18625681  1
  O2-  O478  1  0.92316309  0.84265245  0.51781618  1
  O2-  O479  1  0.90645719  0.80574209  0.85133172  1
  O2-  O480  1  0.16630042  0.08632196  0.31258404  1
  O2-  O481  1  0.19829019  0.07777439  0.67406348  1
  O2-  O482  1  0.16552874  0.08633608  0.97202313  1
  O2-  O483  1  0.16843341  0.33238511  0.30362486  1
  O2-  O484  1  0.17661153  0.33416757  0.64505590  1
  O2-  O485  1  0.21324168  0.30387054  0.96683008  1
  O2-  O486  1  0.16642105  0.56794436  0.31332486  1
  O2-  O487  1  0.16483575  0.58447861  0.65239920  1
  O2-  O488  1  0.15586333  0.58855724  0.98419818  1
  O2-  O489  1  0.16172472  0.82935988  0.31328997  1
  O2-  O490  1  0.16097863  0.82174817  0.65154615  1
  O2-  O491  1  0.15429713  0.82759106  0.97607583  1
  O2-  O492  1  0.41844794  0.08249024  0.32641778  1
  O2-  O493  1  0.33586068  0.06987534  0.64642650  1
  O2-  O494  1  0.39386564  0.07924990  0.98218115  1
  O2-  O495  1  0.41610926  0.32044068  0.32189666  1
  O2-  O496  1  0.37786658  0.30005437  0.64436016  1
  O2-  O497  1  0.41781103  0.31965444  0.97158649  1
  O2-  O498  1  0.41765776  0.58525407  0.30633012  1
  O2-  O499  1  0.40213217  0.58283108  0.64062238  1
  O2-  O500  1  0.42307815  0.58970963  0.98865427  1
  O2-  O501  1  0.38413836  0.81693237  0.30256429  1
  O2-  O502  1  0.42067167  0.84469031  0.64487187  1
  O2-  O503  1  0.40501088  0.83881063  0.96366443  1
  O2-  O504  1  0.67869656  0.10439730  0.31518376  1
  O2-  O505  1  0.67239939  0.08157762  0.64384495  1
  O2-  O506  1  0.68224165  0.10792740  0.98190212  1
  O2-  O507  1  0.63941624  0.31597654  0.32880570  1
  O2-  O508  1  0.66392311  0.31543155  0.64533823  1
  O2-  O509  1  0.67079114  0.30368454  0.99491745  1
  O2-  O510  1  0.67482403  0.60279613  0.29730864  1
  O2-  O511  1  0.75364564  0.55495504  0.63493090  1
  O2-  O512  1  0.66747912  0.56168716  0.99072741  1
  O2-  O513  1  0.60475201  0.80662655  0.29702152  1
  O2-  O514  1  0.66887704  0.85299972  0.64057492  1
  O2-  O515  1  0.66919056  0.83813832  0.97550000  1
  O2-  O516  1  0.92219723  0.09652556  0.30370635  1
  O2-  O517  1  0.92659150  0.08528489  0.64066381  1
  O2-  O518  1  0.92195854  0.09474892  0.97583447  1
  O2-  O519  1  0.91422781  0.33455669  0.30587746  1
  O2-  O520  1  0.92660622  0.33277639  0.65004512  1
  O2-  O521  1  0.89396190  0.31557922  0.99091069  1
  O2-  O522  1  0.94456933  0.54953660  0.29066035  1
  O2-  O523  1  0.89988599  0.54921112  0.63168285  1
  O2-  O524  1  0.90561462  0.55815488  0.99146745  1
  O2-  O525  1  0.92205839  0.85183575  0.30896002  1
  O2-  O526  1  0.92106624  0.84673523  0.64420806  1
  O2-  O527  1  0.90137382  0.79652011  0.98014427  1
  O2-  O528  1  0.08097667  0.17120978  0.02922392  1
  O2-  O529  1  0.08412319  0.17546629  0.34936027  1
  O2-  O530  1  0.09843586  0.16180890  0.68318497  1
  O2-  O531  1  0.04158893  0.50258892  0.08533943  1
  O2-  O532  1  0.05707667  0.38917879  0.36563286  1
  O2-  O533  1  0.09122941  0.41654064  0.68711860  1
  O2-  O534  1  0.06592162  0.66264160  0.01606092  1
  O2-  O535  1  0.09240657  0.66091598  0.35228156  1
  O2-  O536  1  0.06872965  0.65767257  0.68911416  1
  O2-  O537  1  0.07153843  0.91363089  0.01966471  1
  O2-  O538  1  0.08411562  0.92106638  0.35225194  1
  O2-  O539  1  0.07908193  0.90941589  0.68562442  1
  O2-  O540  1  0.31689652  0.15950693  0.01935096  1
  O2-  O541  1  0.33547103  0.15771780  0.35479532  1
  O2-  O542  1  0.39539383  0.15290446  0.67678402  1
  O2-  O543  1  0.41351962  0.44533814  0.03864768  1
  O2-  O544  1  0.31145974  0.42574912  0.35542671  1
  O2-  O545  1  0.34838915  0.42312574  0.68696303  1
  O2-  O546  1  0.32946194  0.67442503  0.01811269  1
  O2-  O547  1  0.32727814  0.65705946  0.35411865  1
  O2-  O548  1  0.33322139  0.68074775  0.68945646  1
  O2-  O549  1  0.32132149  0.90960876  0.01802615  1
  O2-  O550  1  0.32919017  0.92087187  0.35737459  1
  O2-  O551  1  0.32841873  0.92728194  0.69815106  1
  O2-  O552  1  0.63126922  0.21670445  0.02051345  1
  O2-  O553  1  0.57254344  0.15926491  0.36394924  1
  O2-  O554  1  0.58735921  0.15660401  0.69924756  1
  O2-  O555  1  0.58256563  0.38984118  0.01814699  1
  O2-  O556  1  0.55993085  0.38875868  0.37511703  1
  O2-  O557  1  0.60769871  0.41767283  0.69512152  1
  O2-  O558  1  0.59201810  0.66858716  0.01482606  1
  O2-  O559  1  0.57963544  0.66457237  0.35149270  1
  O2-  O560  1  0.56881059  0.69300056  0.68043296  1
  O2-  O561  1  0.57588391  0.92966209  0.01211595  1
  O2-  O562  1  0.60747004  0.93529400  0.36406082  1
  O2-  O563  1  0.57750666  0.92340132  0.67145477  1
  O2-  O564  1  0.83359628  0.15437795  0.04464974  1
  O2-  O565  1  0.84159660  0.17717562  0.35423106  1
  O2-  O566  1  0.83899487  0.16126933  0.68549176  1
  O2-  O567  1  0.83190768  0.40909682  0.02961335  1
  O2-  O568  1  0.82095117  0.40360074  0.34921408  1
  O2-  O569  1  0.84603881  0.40797060  0.68409759  1
  O2-  O570  1  0.83375300  0.63939463  0.02634194  1
  O2-  O571  1  0.81220714  0.71321398  0.37776635  1
  O2-  O572  1  0.84556951  0.69687322  0.70206651  1
  O2-  O573  1  0.83944223  0.93020158  0.02404707  1
  O2-  O574  1  0.83544211  0.93256353  0.35204128  1
  O2-  O575  1  0.82900272  0.93170438  0.68541922  1
