# generated using pymatgen
data_H2O
_symmetry_space_group_name_H-M   'P 1'
_cell_length_a   17.99497761
_cell_length_b   17.99323436
_cell_length_c   22.00315020
_cell_angle_alpha   89.99470636
_cell_angle_beta   90.01087371
_cell_angle_gamma   119.99827272
_symmetry_Int_Tables_number   1
_chemical_formula_structural   H2O
_chemical_formula_sum   'H384 O192'
_cell_volume   6169.97768347
_cell_formula_units_Z   192
loop_
 _symmetry_equiv_pos_site_id
 _symmetry_equiv_pos_as_xyz
  1  'x, y, z'
loop_
 _atom_type_symbol
 _atom_type_oxidation_number
  H+  1.0
  O2-  -2.0
loop_
 _atom_site_type_symbol
 _atom_site_label
 _atom_site_symmetry_multiplicity
 _atom_site_fract_x
 _atom_site_fract_y
 _atom_site_fract_z
 _atom_site_occupancy
  H+  H0  1  0.89058662  0.27862765  0.18022910  1
  H+  H1  1  0.13110612  0.34490290  1.00122160  1
  H+  H2  1  0.83974616  0.18078210  0.44249229  1
  H+  H3  1  0.36449644  0.23478236  0.50332978  1
  H+  H4  1  -0.08506873  0.08682752  0.27583707  1
  H+  H5  1  0.63145980  0.48669879  0.66700277  1
  H+  H6  1  0.11824315  0.89161040  0.81917778  1
  H+  H7  1  0.88925094  0.14954704  0.80403755  1
  H+  H8  1  0.86295156  0.97552569  0.67783228  1
  H+  H9  1  0.02095111  0.13155807  0.67418677  1
  H+  H10  1  0.88434137  0.37304542  0.32879816  1
  H+  H11  1  0.32428841  0.91036133  0.75967107  1
  H+  H12  1  0.62038162  0.76200193  0.32588540  1
  H+  H13  1  0.49111601  0.64972791  0.64996747  1
  H+  H14  1  0.11744413  0.13919948  0.50088269  1
  H+  H15  1  0.26637284  0.38203373  0.34161140  1
  H+  H16  1  0.11759022  0.76140045  0.32098480  1
  H+  H17  1  0.24979333  0.36252745  0.67767656  1
  H+  H18  1  0.76469582  0.63896393  1.02110159  1
  H+  H19  1  0.10494963  0.63328609  0.82411835  1
  H+  H20  1  0.63286575  0.51527639  0.50044717  1
  H+  H21  1  0.63988957  0.62527016  0.17857678  1
  H+  H22  1  0.95970611  0.55174969  0.35086369  1
  H+  H23  1  0.85237949  0.87697341  0.01836250  1
  H+  H24  1  0.55651111  0.17431130  0.82322141  1
  H+  H25  1  0.38436533  0.80010498  1.00492319  1
  H+  H26  1  0.22988202  0.86679969  0.17816575  1
  H+  H27  1  0.61762242  0.49876464  1.00786066  1
  H+  H28  1  0.13851972  0.61043685  0.66042293  1
  H+  H29  1  0.36445964  0.34159224  0.67037699  1
  H+  H30  1  0.61446043  0.89333630  0.16376570  1
  H+  H31  1  0.86468724  0.72088239  0.66406964  1
  H+  H32  1  0.87671637  0.61049302  0.50593427  1
  H+  H33  1  0.36021605  0.11994188  0.66331556  1
  H+  H34  1  0.72334093  0.37226419  1.00356556  1
  H+  H35  1  0.38487699  0.36686316  1.00427576  1
  H+  H36  1  0.71781748  0.68140606  0.31252225  1
  H+  H37  1  0.77007836  0.63529693  0.49938971  1
  H+  H38  1  0.38369419  0.58184062  1.00095732  1
  H+  H39  1  0.62499781  0.13373540  0.65362166  1
  H+  H40  1  0.87589805  0.23598226  0.01134471  1
  H+  H41  1  0.21200569  0.57687681  0.99446600  1
  H+  H42  1  0.86968012  0.24155544  0.50083609  1
  H+  H43  1  0.97867435  0.37022986  0.17655639  1
  H+  H44  1  0.48453386  0.86428478  0.50199866  1
  H+  H45  1  0.60196252  0.72241191  0.82869953  1
  H+  H46  1  0.22505391  0.61967955  0.50120547  1
  H+  H47  1  0.32778639  0.90584832  0.55479931  1
  H+  H48  1  0.02883766  0.14200309  0.50143816  1
  H+  H49  1  0.17343919  0.08556737  0.93482569  1
  H+  H50  1  0.21831511  0.09646397  0.65553905  1
  H+  H51  1  0.46071313  0.60498352  0.32943286  1
  H+  H52  1  0.88644111  0.26510278  0.69010856  1
  H+  H53  1  0.78285096  0.64645531  0.84706602  1
  H+  H54  1  -0.00955706  0.11879815  -0.02261424  1
  H+  H55  1  0.63674685  0.86041471  0.83632339  1
  H+  H56  1  0.86686484  0.89756100  0.16809695  1
  H+  H57  1  0.11563044  -0.01770415  0.35385968  1
  H+  H58  1  0.16866301  0.34486071  0.22049926  1
  H+  H59  1  0.10663145  0.72389819  0.82145452  1
  H+  H60  1  0.33691766  0.16711726  0.10376565  1
  H+  H61  1  0.22198287  0.34857652  0.99990480  1
  H+  H62  1  0.86931131  0.63465165  0.66291145  1
  H+  H63  1  0.13849223  0.36660394  0.50678359  1
  H+  H64  1  0.88961995  0.03223051  0.17727504  1
  H+  H65  1  0.13975423  0.52357214  0.32049202  1
  H+  H66  1  0.90087466  0.65534965  0.34078875  1
  H+  H67  1  0.61378017  0.39347968  0.82681176  1
  H+  H68  1  0.36961790  0.90571345  0.01028206  1
  H+  H69  1  0.35650275  0.64218463  0.33949500  1
  H+  H70  1  0.58402617  0.16620177  0.43525937  1
  H+  H71  1  0.13787175  1.02781577  0.83653088  1
  H+  H72  1  0.38396908  0.01991223  0.17858577  1
  H+  H73  1  0.39879088  0.27788090  1.00339075  1
  H+  H74  1  0.27960758  0.96201045  0.70611831  1
  H+  H75  1  0.22222975  0.86267205  0.65437946  1
  H+  H76  1  0.61778980  0.14264583  0.49588602  1
  H+  H77  1  0.37948732  0.34532041  0.83870332  1
  H+  H78  1  0.59836445  0.62061393  0.34040103  1
  H+  H79  1  0.69384934  0.11724239  0.98397662  1
  H+  H80  1  0.11469490  -0.02341127  0.14955201  1
  H+  H81  1  0.63938685  0.26194131  0.17953683  1
  H+  H82  1  0.21219509  0.85766446  0.50181635  1
  H+  H83  1  0.83547365  0.41879636  0.07176782  1
  H+  H84  1  0.09767035  0.71552434  0.48638784  1
  H+  H85  1  0.86118583  0.63894919  0.16846979  1
  H+  H86  1  0.88908460  0.87068929  0.50860082  1
  H+  H87  1  0.72984904  0.11583958  0.18098625  1
  H+  H88  1  0.36442890  -0.01621070  0.51025364  1
  H+  H89  1  0.38415085  0.36652256  0.32712938  1
  H+  H90  1  0.86253362  0.47714324  0.17447781  1
  H+  H91  1  0.37473124  0.25049695  0.34836737  1
  H+  H92  1  0.39706351  0.89046394  0.67579130  1
  H+  H93  1  0.72091008  0.85339553  0.84281762  1
  H+  H94  1  0.95225781  0.59646939  0.98797589  1
  H+  H95  1  0.47588452  0.86328356  0.17657115  1
  H+  H96  1  0.53627229  0.90815216  0.67125251  1
  H+  H97  1  0.85921585  0.47378613  0.81911361  1
  H+  H98  1  0.39653911  0.86405769  0.50545374  1
  H+  H99  1  0.77806666  0.17628759  0.74608144  1
  H+  H100  1  0.86596999  0.38999116  0.16976577  1
  H+  H101  1  0.11326955  0.35473355  0.32224511  1
  H+  H102  1  0.54213387  0.39945941  0.65728096  1
  H+  H103  1  0.12073973  0.25741813  0.82850295  1
  H+  H104  1  0.49394437  0.61675890  0.48884644  1
  H+  H105  1  0.76816248  0.38765823  0.49160432  1
  H+  H106  1  0.34225304  -0.04549749  0.82644527  1
  H+  H107  1  0.36190848  0.72978030  0.48825123  1
  H+  H108  1  0.16584300  0.12661456  0.34565021  1
  H+  H109  1  0.11396695  0.12978894  0.00725301  1
  H+  H110  1  0.28945657  0.14802054  0.35489157  1
  H+  H111  1  -0.00273452  0.88141062  0.33042196  1
  H+  H112  1  0.57876808  0.70532869  0.48825574  1
  H+  H113  1  0.02401310  0.38323678  0.67117135  1
  H+  H114  1  0.36692251  0.37701674  0.15793225  1
  H+  H115  1  -0.02692870  0.86051156  0.65982369  1
  H+  H116  1  0.63187480  0.28792314  0.00501359  1
  H+  H117  1  0.48964018  0.37745067  0.00194279  1
  H+  H118  1  0.11542505  0.22004120  0.00378100  1
  H+  H119  1  0.62397470  0.34650049  0.32554810  1
  H+  H120  1  0.68061346  0.14444225  0.80003764  1
  H+  H121  1  0.02072187  0.39241828  0.34250750  1
  H+  H122  1  0.76773288  0.37952871  0.66772236  1
  H+  H123  1  0.10448000  0.88439243  0.49505656  1
  H+  H124  1  0.11711911  0.35430224  0.82739901  1
  H+  H125  1  0.11297734  0.47541319  0.66860541  1
  H+  H126  1  0.86474151  0.88717558  0.82932270  1
  H+  H127  1  0.38772118  0.37054099  0.50935199  1
  H+  H128  1  0.07294543  0.26741051  0.28665043  1
  H+  H129  1  0.46837678  0.59676517  0.84023601  1
  H+  H130  1  0.86804359  0.14304080  0.17202122  1
  H+  H131  1  0.64382965  0.88506795  0.66174654  1
  H+  H132  1  0.89148137  0.77755915  0.17483770  1
  H+  H133  1  0.60590160  0.88344025  0.34415932  1
  H+  H134  1  0.47915473  0.59616648  0.99937833  1
  H+  H135  1  0.88895337  0.51499801  0.65458635  1
  H+  H136  1  0.60396899  0.48427785  0.16406947  1
  H+  H137  1  0.39149028  0.62728679  0.17553732  1
  H+  H138  1  0.89563687  0.12721439  0.51413796  1
  H+  H139  1  0.61237934  0.13651680  0.17146446  1
  H+  H140  1  0.11567257  0.40096671  0.15794941  1
  H+  H141  1  0.22526516  0.61555261  0.32058935  1
  H+  H142  1  0.62064676  -0.00965152  0.49521057  1
  H+  H143  1  0.52233796  0.37482004  0.33720405  1
  H+  H144  1  0.89696739  0.78679827  0.85135172  1
  H+  H145  1  -0.02294201  0.12328840  0.17290418  1
  H+  H146  1  0.12427781  0.52064326  0.83523168  1
  H+  H147  1  0.39549593  0.12105486  0.50653059  1
  H+  H148  1  0.61423643  0.38182298  0.49237726  1
  H+  H149  1  0.63884034  0.36019207  0.65856413  1
  H+  H150  1  0.88375557  0.86111119  0.66219464  1
  H+  H151  1  0.67999531  0.80710835  0.52121801  1
  H+  H152  1  0.52878060  0.65282201  0.17055902  1
  H+  H153  1  0.63781303  0.27305031  0.50392471  1
  H+  H154  1  0.47218626  0.35519524  0.82861576  1
  H+  H155  1  0.01921982  0.38497019  0.82268503  1
  H+  H156  1  0.76163715  0.89016841  0.35351463  1
  H+  H157  1  0.36090473  0.21287431  0.81577467  1
  H+  H158  1  0.46768242  0.09235664  0.33493766  1
  H+  H159  1  0.16860411  0.08084167  0.56409391  1
  H+  H160  1  0.61575163  0.40691235  0.00969584  1
  H+  H161  1  0.13278141  0.35989041  0.65917920  1
  H+  H162  1  0.22142372  0.85284052  0.82470059  1
  H+  H163  1  0.47149721  0.11032801  0.18154389  1
  H+  H164  1  0.89652592  0.03793719  0.51288720  1
  H+  H165  1  0.35873907  0.13032310  0.16436422  1
  H+  H166  1  -0.01528319  0.87619389  0.84242128  1
  H+  H167  1  0.47885455  0.36579523  0.17711913  1
  H+  H168  1  0.13953626  0.02473578  0.50393433  1
  H+  H169  1  0.36757237  0.46080131  0.00646308  1
  H+  H170  1  0.96476907  0.60604671  0.49903193  1
  H+  H171  1  0.39467378  0.77709972  0.85157643  1
  H+  H172  1  0.82405523  0.47213888  0.34346449  1
  H+  H173  1  0.34648489  0.45993208  0.83550208  1
  H+  H174  1  0.72772210  0.12364245  0.50533593  1
  H+  H175  1  0.61104252  0.74571712  0.67386378  1
  H+  H176  1  0.26982420  0.38408869  0.49418397  1
  H+  H177  1  0.43688944  0.32400597  0.69187162  1
  H+  H178  1  0.72679884  0.62090650  0.17534162  1
  H+  H179  1  0.88716666  0.38175129  0.49968007  1
  H+  H180  1  0.91669772  0.34242325  0.27143293  1
  H+  H181  1  0.89583214  0.28633413  0.83326089  1
  H+  H182  1  0.08577564  0.65760608  0.03155428  1
  H+  H183  1  0.38129747  0.01798630  0.66114411  1
  H+  H184  1  0.11159922  0.15237467  0.14849353  1
  H+  H185  1  0.86027069  0.38541630  0.01105550  1
  H+  H186  1  0.39292163  0.80122771  0.67095514  1
  H+  H187  1  0.62654357  -0.00321028  0.65984989  1
  H+  H188  1  0.60425217  0.21101030  0.34146436  1
  H+  H189  1  0.88666984  0.11556491  0.33522306  1
  H+  H190  1  0.01763215  0.88931966  0.50063566  1
  H+  H191  1  0.62895859  0.85808503  -0.00367424  1
  H+  H192  1  0.71546001  0.34923455  0.32914385  1
  H+  H193  1  0.60282925  0.92527655  0.75589580  1
  H+  H194  1  0.36831669  0.52192939  0.32711246  1
  H+  H195  1  0.11861333  0.13793079  0.82622187  1
  H+  H196  1  0.97412072  0.10606950  0.82858574  1
  H+  H197  1  0.85195968  0.63518976  0.01003134  1
  H+  H198  1  0.64076743  0.78368183  0.17419977  1
  H+  H199  1  0.80679492  0.64523658  0.33128482  1
  H+  H200  1  0.36033677  0.73361155  0.33740097  1
  H+  H201  1  0.85594070  0.48189646  0.48960076  1
  H+  H202  1  0.62646340  0.90451311  0.49917051  1
  H+  H203  1  0.27911199  0.65106792  0.67195244  1
  H+  H204  1  0.97798455  0.61954247  0.18881219  1
  H+  H205  1  0.60932345  0.12512950  0.34324634  1
  H+  H206  1  0.39248417  0.27116954  0.17851242  1
  H+  H207  1  0.73481664  0.35962219  0.18140525  1
  H+  H208  1  0.88471773  0.36905835  0.83700543  1
  H+  H209  1  0.11948114  0.56912780  -0.00067697  1
  H+  H210  1  0.90896221  0.77969292  0.31932250  1
  H+  H211  1  0.35376366  -0.03423386  0.34585417  1
  H+  H212  1  0.60891931  -0.03306261  0.82036096  1
  H+  H213  1  0.90825007  0.12668258  -0.01746033  1
  H+  H214  1  0.02295657  0.88616246  0.00243330  1
  H+  H215  1  1.02664243  0.62918399  0.66627751  1
  H+  H216  1  0.34162709  0.44454320  0.69103759  1
  H+  H217  1  0.09611761  0.75016220  0.99542498  1
  H+  H218  1  0.97122791  0.35795871  0.99383374  1
  H+  H219  1  0.51189511  0.16134909  0.83360660  1
  H+  H220  1  0.11017600  0.21921424  0.66963397  1
  H+  H221  1  0.85868724  0.23339197  0.34675544  1
  H+  H222  1  0.08567599  0.91307714  0.06011279  1
  H+  H223  1  0.13271830  0.62238005  0.17767573  1
  H+  H224  1  0.10709768  0.87465600  0.66549037  1
  H+  H225  1  0.33879992  0.07692758  0.85332257  1
  H+  H226  1  0.87025087  0.64587357  0.83819659  1
  H+  H227  1  0.13711824  0.27563131  0.50862068  1
  H+  H228  1  0.61305016  0.12536757  0.00411674  1
  H+  H229  1  0.79239109  0.91529094  0.50695980  1
  H+  H230  1  0.38363036  0.86347134  0.33150904  1
  H+  H231  1  0.10376520  0.45018456  0.00291240  1
  H+  H232  1  0.36864702  0.61218827  0.49384408  1
  H+  H233  1  0.88361728  0.11270384  0.67202738  1
  H+  H234  1  0.75988299  0.86850460  1.01815676  1
  H+  H235  1  0.60112294  0.71681099  0.01214314  1
  H+  H236  1  0.37261556  0.14697991  1.01203346  1
  H+  H237  1  0.22828303  0.11870666  0.16106234  1
  H+  H238  1  0.13091358  0.74591364  -0.02095374  1
  H+  H239  1  0.71639124  0.07750505  0.86605586  1
  H+  H240  1  0.36383958  0.88523832  0.16539369  1
  H+  H241  1  0.08259526  0.66354160  0.72731078  1
  H+  H242  1  0.72502072  0.11799823  0.64310918  1
  H+  H243  1  0.73754242  0.60714602  0.65582046  1
  H+  H244  1  0.85362583  0.37401767  0.67266679  1
  H+  H245  1  0.34816362  0.20300883  0.66261101  1
  H+  H246  1  0.21243426  0.35431410  0.83886273  1
  H+  H247  1  0.73021242  0.87515199  0.66668067  1
  H+  H248  1  0.13924006  0.28899789  0.16033890  1
  H+  H249  1  0.34417925  0.67183978  -0.00141012  1
  H+  H250  1  0.28106001  0.14301792  0.00736509  1
  H+  H251  1  0.85103821  0.97810595  0.34921624  1
  H+  H252  1  1.03234474  0.40004092  0.49112793  1
  H+  H253  1  0.21270449  0.84417696  0.32727713  1
  H+  H254  1  0.27617796  0.14172024  0.49824582  1
  H+  H255  1  0.80651970  0.13657784  0.02014935  1
  H+  H256  1  0.13115901  0.10164718  0.65706095  1
  H+  H257  1  0.25304250  0.91421983  0.98008380  1
  H+  H258  1  0.47547208  0.86769937  0.33245992  1
  H+  H259  1  0.37557595  0.85459333  0.84652142  1
  H+  H260  1  0.39834870  0.56543407  0.64421478  1
  H+  H261  1  0.68123629  0.60334264  0.26823676  1
  H+  H262  1  0.49534808  0.13597391  0.00104990  1
  H+  H263  1  0.86486354  0.51271308  0.98844396  1
  H+  H264  1  0.22691328  0.11508031  0.83494770  1
  H+  H265  1  0.97563187  0.61018278  0.82898502  1
  H+  H266  1  0.28354995  0.38772524  0.15312900  1
  H+  H267  1  0.11995501  0.89060944  0.15959414  1
  H+  H268  1  0.11465295  0.74753078  0.16978589  1
  H+  H269  1  0.98285145  0.86446026  0.16882454  1
  H+  H270  1  0.37312133  0.66723594  0.66178582  1
  H+  H271  1  0.85924913  0.72392473  0.50139492  1
  H+  H272  1  0.62392146  0.59893518  0.50518664  1
  H+  H273  1  0.12277905  0.48611424  0.49170397  1
  H+  H274  1  0.37823769  0.64235494  0.82546629  1
  H+  H275  1  0.08792250  0.16246935  0.76341499  1
  H+  H276  1  0.61580089  0.63507495  0.01671051  1
  H+  H277  1  0.52579518  0.38345112  0.49263931  1
  H+  H278  1  0.82917218  0.91868009  0.10940104  1
  H+  H279  1  0.69683768  0.62441592  0.95724298  1
  H+  H280  1  0.26631825  0.64169061  0.15837110  1
  H+  H281  1  0.60564064  0.98081208  0.00934555  1
  H+  H282  1  0.63725670  0.02171149  0.33078528  1
  H+  H283  1  0.37719798  0.99655439  0.02111750  1
  H+  H284  1  0.35450504  0.47600516  0.49148992  1
  H+  H285  1  0.14180376  0.02394754  0.99297394  1
  H+  H286  1  0.72095084  0.36821231  0.84391189  1
  H+  H287  1  0.13396930  0.22964356  0.34770724  1
  H+  H288  1  0.36082449  0.68583134  0.76787015  1
  H+  H289  1  0.91748685  0.08938782  0.88710613  1
  H+  H290  1  0.62313894  0.51617924  0.83737823  1
  H+  H291  1  0.66660565  0.21998834  0.04840213  1
  H+  H292  1  0.82118478  0.41949695  0.40320720  1
  H+  H293  1  0.68189094  0.85830653  0.58102609  1
  H+  H294  1  0.07905716  0.41145472  0.76200357  1
  H+  H295  1  0.91332067  0.83575886  0.56803711  1
  H+  H296  1  0.41590658  0.59878278  0.23726550  1
  H+  H297  1  0.58559036  0.92153822  0.40402827  1
  H+  H298  1  0.57075615  0.67686561  0.72814369  1
  H+  H299  1  0.83629609  0.66870209  0.10565329  1
  H+  H300  1  0.52066700  0.89277046  0.00948059  1
  H+  H301  1  0.04658268  0.70123123  0.11845573  1
  H+  H302  1  0.41275086  0.33036133  0.26868951  1
  H+  H303  1  0.16472622  0.91457249  0.97392758  1
  H+  H304  1  0.40992138  0.84151352  0.93542932  1
  H+  H305  1  0.83192027  0.91239278  0.73573351  1
  H+  H306  1  0.05178309  0.58991459  0.08306202  1
  H+  H307  1  0.32485546  0.14593031  0.75990969  1
  H+  H308  1  0.14799327  0.57064853  0.89718471  1
  H+  H309  1  0.13204313  0.61209210  0.50030771  1
  H+  H310  1  0.41549373  0.83252166  0.23544989  1
  H+  H311  1  0.60398102  0.63497554  0.82535483  1
  H+  H312  1  0.08517733  0.91968158  0.76153625  1
  H+  H313  1  0.48399061  0.11876756  0.50394057  1
  H+  H314  1  0.58806505  0.42230687  0.76397055  1
  H+  H315  1  0.15178667  0.09054319  0.20891917  1
  H+  H316  1  0.66245258  0.17665581  0.73559481  1
  H+  H317  1  0.42372659  0.08042365  0.60176090  1
  H+  H318  1  0.41294119  0.56483209  0.90127800  1
  H+  H319  1  0.65671277  0.82584177  0.93741371  1
  H+  H320  1  0.06367827  0.65722701  0.42603589  1
  H+  H321  1  0.62735507  0.55982396  0.90012187  1
  H+  H322  1  0.66612838  0.09012011  0.56605544  1
  H+  H323  1  0.91229257  0.57538819  0.88700600  1
  H+  H324  1  0.16680759  0.58310549  0.59961507  1
  H+  H325  1  0.33805904  0.40125622  0.06869361  1
  H+  H326  1  0.57413723  0.43132059  0.10261112  1
  H+  H327  1  0.58474286  0.17032920  0.11191153  1
  H+  H328  1  0.82370610  0.40706525  0.76430265  1
  H+  H329  1  0.83767911  0.93290485  0.44180871  1
  H+  H330  1  0.07543990  0.17542557  0.09202196  1
  H+  H331  1  0.58275582  0.40008117  0.39530809  1
  H+  H332  1  0.32368226  0.67163828  0.42794490  1
  H+  H333  1  0.93262116  0.38184199  0.56043053  1
  H+  H334  1  0.91144877  0.33398664  0.93426824  1
  H+  H335  1  0.58193846  0.92291408  0.10538234  1
  H+  H336  1  0.91841147  0.84062925  0.93859176  1
  H+  H337  1  0.56331917  0.64545631  0.39897159  1
  H+  H338  1  0.08726227  0.42041146  0.39854058  1
  H+  H339  1  0.32555948  0.41486319  0.40071255  1
  H+  H340  1  0.10874976  0.48669221  0.15882084  1
  H+  H341  1  0.66845199  0.32322450  0.24551841  1
  H+  H342  1  0.42335029  0.09023264  0.94823699  1
  H+  H343  1  0.93052255  0.58891000  0.25081599  1
  H+  H344  1  0.07167998  0.40458094  0.06729180  1
  H+  H345  1  0.84375487  0.17725092  0.11296586  1
  H+  H346  1  0.65584266  0.82794167  0.26978186  1
  H+  H347  1  0.64186297  0.08000712  0.90146311  1
  H+  H348  1  0.15307428  0.82293466  0.55909492  1
  H+  H349  1  0.77170405  0.14270516  0.34757550  1
  H+  H350  1  0.16452812  0.58600398  0.23256642  1
  H+  H351  1  0.41802394  0.34197844  0.56925653  1
  H+  H352  1  0.35721472  0.72916723  0.15656172  1
  H+  H353  1  0.67109638  0.57431879  0.59923425  1
  H+  H354  1  0.93800597  0.84621716  0.26045301  1
  H+  H355  1  0.40824862  0.06725879  0.27654928  1
  H+  H356  1  0.66527132  0.34989204  0.90429418  1
  H+  H357  1  0.88623285  0.77520520  -0.00413326  1
  H+  H358  1  0.06921094  0.91841202  0.40981026  1
  H+  H359  1  0.40912217  0.59657231  0.55439127  1
  H+  H360  1  0.19870452  0.08642185  0.29173909  1
  H+  H361  1  0.16550039  0.33193296  0.59967015  1
  H+  H362  1  0.33429227  0.91894241  0.10706938  1
  H+  H363  1  0.63863386  0.26895684  0.65513151  1
  H+  H364  1  0.85632966  0.97110905  0.82457273  1
  H+  H365  1  0.32147198  0.64403124  0.06858630  1
  H+  H366  1  0.91278580  0.09051967  0.60792131  1
  H+  H367  1  0.53688668  0.13461841  0.67239495  1
  H+  H368  1  0.34820458  0.18987591  0.41768426  1
  H+  H369  1  0.58233051  0.67113646  0.10872300  1
  H+  H370  1  0.91720213  0.57284266  0.59415022  1
  H+  H371  1  0.10867340  0.17539297  0.41029443  1
  H+  H372  1  0.66729319  0.08223710  0.27136202  1
  H+  H373  1  0.13691299  0.76717684  0.65241606  1
  H+  H374  1  0.31954670  0.90234514  0.40342055  1
  H+  H375  1  0.89742673  0.28101453  0.62047563  1
  H+  H376  1  0.66754737  0.33266064  0.56397113  1
  H+  H377  1  0.31052249  0.39265795  0.77974594  1
  H+  H378  1  0.10842010  0.96460893  0.66494171  1
  H+  H379  1  0.72935303  0.87387950  0.17955769  1
  H+  H380  1  0.17469320  0.85096179  0.88544660  1
  H+  H381  1  0.29366212  0.00060159  0.90196688  1
  H+  H382  1  0.16644871  0.83466478  0.23825813  1
  H+  H383  1  0.63972603  0.02609892  0.17791053  1
  O2-  O384  1  0.07994593  0.18244488  0.13790551  1
  O2-  O385  1  0.08955404  0.17219686  0.48629990  1
  O2-  O386  1  0.08673162  0.16639776  0.80886035  1
  O2-  O387  1  0.07863660  0.42516251  0.14507791  1
  O2-  O388  1  0.09254174  0.42422996  0.47725154  1
  O2-  O389  1  0.07949242  0.40768944  0.80745496  1
  O2-  O390  1  0.07307650  0.68696653  0.15174759  1
  O2-  O391  1  0.06882961  0.65469356  0.47261191  1
  O2-  O392  1  0.07631983  0.66397740  0.80529900  1
  O2-  O393  1  0.08585569  0.91444408  0.13980599  1
  O2-  O394  1  0.07822869  0.92042274  0.48416070  1
  O2-  O395  1  0.08968965  0.92504565  0.80680315  1
  O2-  O396  1  0.33070358  0.16315353  0.14910722  1
  O2-  O397  1  0.33817476  0.17610989  0.48465830  1
  O2-  O398  1  0.32460303  0.15012830  0.80495358  1
  O2-  O399  1  0.34080945  0.40647779  0.13554478  1
  O2-  O400  1  0.33010326  0.41481054  0.47791233  1
  O2-  O401  1  0.30935262  0.39704316  0.82465539  1
  O2-  O402  1  0.32514650  0.66935741  0.14016029  1
  O2-  O403  1  0.32492339  0.66833194  0.47368299  1
  O2-  O404  1  0.36937098  0.68961757  0.81235320  1
  O2-  O405  1  0.33320648  0.91646723  0.15256989  1
  O2-  O406  1  0.32977158  0.91886503  0.51150998  1
  O2-  O407  1  0.32344233  0.89919000  0.80534527  1
  O2-  O408  1  0.58348985  0.16938488  0.15865930  1
  O2-  O409  1  0.58561463  0.17226910  0.48068467  1
  O2-  O410  1  0.70828100  0.18380754  0.76510585  1
  O2-  O411  1  0.57068426  0.42523536  0.14752171  1
  O2-  O412  1  0.58406940  0.41123420  0.47467818  1
  O2-  O413  1  0.58109453  0.42087231  0.80880644  1
  O2-  O414  1  0.58928731  0.67924059  0.15378881  1
  O2-  O415  1  0.55739021  0.64562621  0.47736873  1
  O2-  O416  1  0.57112079  0.66285572  0.81127447  1
  O2-  O417  1  0.58255349  0.92332748  0.15084341  1
  O2-  O418  1  0.59273557  0.92865603  0.48097373  1
  O2-  O419  1  0.59860458  0.91379301  0.80053316  1
  O2-  O420  1  0.83741191  0.17447412  0.15795764  1
  O2-  O421  1  0.84226827  0.18087944  0.48810229  1
  O2-  O422  1  0.89163668  0.20312342  0.78672842  1
  O2-  O423  1  0.83219185  0.41820324  0.15656909  1
  O2-  O424  1  0.82785278  0.41985698  0.47365152  1
  O2-  O425  1  0.82762705  0.41075278  0.80958607  1
  O2-  O426  1  0.83552083  0.67189296  0.15173876  1
  O2-  O427  1  0.83161524  0.66319376  0.48809134  1
  O2-  O428  1  0.84516341  0.68351704  0.84460418  1
  O2-  O429  1  0.83588519  0.92752497  0.15535466  1
  O2-  O430  1  0.84980015  0.93879995  0.48755703  1
  O2-  O431  1  0.82830794  0.90977760  0.81169069  1
  O2-  O432  1  0.16318912  0.08928396  0.16589013  1
  O2-  O433  1  0.17289692  0.08602516  0.51850249  1
  O2-  O434  1  0.16756320  0.08788162  0.85301104  1
  O2-  O435  1  0.17278039  0.34957939  0.17572389  1
  O2-  O436  1  0.16856223  0.33677705  0.52350187  1
  O2-  O437  1  0.14655650  0.32060887  0.84373604  1
  O2-  O438  1  0.16155278  0.58934968  0.18554331  1
  O2-  O439  1  0.16479530  0.58539742  0.51745909  1
  O2-  O440  1  0.14519879  0.57800438  0.85290070  1
  O2-  O441  1  0.16832729  0.83960575  0.19102800  1
  O2-  O442  1  0.15088333  0.82456379  0.51330618  1
  O2-  O443  1  0.16211927  0.83099774  0.84244282  1
  O2-  O444  1  0.41016342  0.08035512  0.19404916  1
  O2-  O445  1  0.42313768  0.08804715  0.51982823  1
  O2-  O446  1  0.34821452  0.03764843  0.87998492  1
  O2-  O447  1  0.41864020  0.33017298  0.19542001  1
  O2-  O448  1  0.41782324  0.33983287  0.52456419  1
  O2-  O449  1  0.41086802  0.31363081  0.83766090  1
  O2-  O450  1  0.42980851  0.60875763  0.19334287  1
  O2-  O451  1  0.39793517  0.58027026  0.51025198  1
  O2-  O452  1  0.40810905  0.56249497  0.85610470  1
  O2-  O453  1  0.41449951  0.83147847  0.18985579  1
  O2-  O454  1  0.42230545  0.82760478  0.51095203  1
  O2-  O455  1  0.40458588  0.83122551  0.87216509  1
  O2-  O456  1  0.66854167  0.08622883  0.19444047  1
  O2-  O457  1  0.66628203  0.09224744  0.51706177  1
  O2-  O458  1  0.66165169  0.07519970  0.85976221  1
  O2-  O459  1  0.67329574  0.32404763  0.19704405  1
  O2-  O460  1  0.66859961  0.33472087  0.51822707  1
  O2-  O461  1  0.66223025  0.34827210  0.85940913  1
  O2-  O462  1  0.66823208  0.59268906  0.19358254  1
  O2-  O463  1  0.65974107  0.57447678  0.51795779  1
  O2-  O464  1  0.64767961  0.57409038  0.85820908  1
  O2-  O465  1  0.66731883  0.84341922  0.19154534  1
  O2-  O466  1  0.68861777  0.86258987  0.53384574  1
  O2-  O467  1  0.66055371  0.82655845  0.85736705  1
  O2-  O468  1  0.91920472  0.09322984  0.19219008  1
  O2-  O469  1  0.92569271  0.09774496  0.53109020  1
  O2-  O470  1  0.91326759  0.08273100  0.84082942  1
  O2-  O471  1  0.91885319  0.34035335  0.19360051  1
  O2-  O472  1  0.92327935  0.35914813  0.51918287  1
  O2-  O473  1  0.91899902  0.34278169  0.85367657  1
  O2-  O474  1  0.91960497  0.58326418  0.20649281  1
  O2-  O475  1  0.90512016  0.57472475  0.51613159  1
  O2-  O476  1  0.91346619  0.57756193  0.84205131  1
  O2-  O477  1  0.92527584  0.83879495  0.18889654  1
  O2-  O478  1  0.91566971  0.83630642  0.52233581  1
  O2-  O479  1  0.92633685  0.85020217  0.86061877  1
  O2-  O480  1  0.19518325  0.09028885  0.33553307  1
  O2-  O481  1  0.15797624  0.06946729  0.63961671  1
  O2-  O482  1  0.17635360  0.08561353  0.98010876  1
  O2-  O483  1  0.12843755  0.31376841  0.30061229  1
  O2-  O484  1  0.16208801  0.32752507  0.64544838  1
  O2-  O485  1  0.16240787  0.31690986  0.98481307  1
  O2-  O486  1  0.16777928  0.58088799  0.30130000  1
  O2-  O487  1  0.16789269  0.57894617  0.64477571  1
  O2-  O488  1  0.15357942  0.54922402  0.97614228  1
  O2-  O489  1  0.15762015  0.82073141  0.30525997  1
  O2-  O490  1  0.16247513  0.82635746  0.63520656  1
  O2-  O491  1  0.21264898  0.91613811  0.94998062  1
  O2-  O492  1  0.40686332  0.06096599  0.32133989  1
  O2-  O493  1  0.42136999  0.08059801  0.64682733  1
  O2-  O494  1  0.43336800  0.10181564  0.99248296  1
  O2-  O495  1  0.41161358  0.33237073  0.31504190  1
  O2-  O496  1  0.40267862  0.31916338  0.65593532  1
  O2-  O497  1  0.42566900  0.33935369  0.98909619  1
  O2-  O498  1  0.40036097  0.58334445  0.31540174  1
  O2-  O499  1  0.43107577  0.62267568  0.62722837  1
  O2-  O500  1  0.41883533  0.55974236  0.98219682  1
  O2-  O501  1  0.41650007  0.83685032  0.31430212  1
  O2-  O502  1  0.42869015  0.86305907  0.66095156  1
  O2-  O503  1  0.41854984  0.85416329  0.98377087  1
  O2-  O504  1  0.66757980  0.08306676  0.31697416  1
  O2-  O505  1  0.66551787  0.08688373  0.63002863  1
  O2-  O506  1  0.63198449  0.08523623  0.97816075  1
  O2-  O507  1  0.65764162  0.31693804  0.30981826  1
  O2-  O508  1  0.66852793  0.33078665  0.64072306  1
  O2-  O509  1  0.66318898  0.34786870  0.98888779  1
  O2-  O510  1  0.69216160  0.61919087  0.31292910  1
  O2-  O511  1  0.67463173  0.57199789  0.64402145  1
  O2-  O512  1  0.67391117  0.59868018  0.99670177  1
  O2-  O513  1  0.65091599  0.82370577  0.31519728  1
  O2-  O514  1  0.67126084  0.84933729  0.64849232  1
  O2-  O515  1  0.65452197  0.82317415  0.98286332  1
  O2-  O516  1  0.91308365  0.08221244  0.32067172  1
  O2-  O517  1  0.91364721  0.08534887  0.65357099  1
  O2-  O518  1  0.93333562  0.09948223  0.95787341  1
  O2-  O519  1  0.91590250  0.34329449  0.31704123  1
  O2-  O520  1  0.91149855  0.31269413  0.65864644  1
  O2-  O521  1  0.90974822  0.33167111  0.97971510  1
  O2-  O522  1  0.96779771  0.60504564  0.33281379  1
  O2-  O523  1  0.92350961  0.57496354  0.63939040  1
  O2-  O524  1  0.89456037  0.57182672  0.97082271  1
  O2-  O525  1  0.93628400  0.84348284  0.30694371  1
  O2-  O526  1  0.91306925  0.83188860  0.64380990  1
  O2-  O527  1  0.91842266  0.83694799  0.98405025  1
  O2-  O528  1  0.08080006  0.15828769  0.01906247  1
  O2-  O529  1  0.12846249  0.17808500  0.36744651  1
  O2-  O530  1  0.08299019  0.15951297  0.68579112  1
  O2-  O531  1  0.06881370  0.39244791  0.02274264  1
  O2-  O532  1  0.08271460  0.41636819  0.35311404  1
  O2-  O533  1  0.08497996  0.41449874  0.68442674  1
  O2-  O534  1  0.05195979  0.59561865  0.03877005  1
  O2-  O535  1  0.05576448  0.66603530  0.35509109  1
  O2-  O536  1  0.08702732  0.66231907  0.68190975  1
  O2-  O537  1  0.08516764  0.91848453  0.01507542  1
  O2-  O538  1  0.07112552  0.92318617  0.36410504  1
  O2-  O539  1  0.07847360  0.90566557  0.68275887  1
  O2-  O540  1  0.34017699  0.17592499  0.02542899  1
  O2-  O541  1  0.35003734  0.19070102  0.37019575  1
  O2-  O542  1  0.32154451  0.14317059  0.67726816  1
  O2-  O543  1  0.33695445  0.39915395  0.02101081  1
  O2-  O544  1  0.32612699  0.41447702  0.35483026  1
  O2-  O545  1  0.30781432  0.38335545  0.69932566  1
  O2-  O546  1  0.31483380  0.62213509  0.02507171  1
  O2-  O547  1  0.32604319  0.67315266  0.35286637  1
  O2-  O548  1  0.33952647  0.68749407  0.68527739  1
  O2-  O549  1  0.33935937  0.93410400  0.02933216  1
  O2-  O550  1  0.32135685  0.90266036  0.35916560  1
  O2-  O551  1  0.30808515  0.93220512  0.68984436  1
  O2-  O552  1  0.60506135  0.18613303  0.04014433  1
  O2-  O553  1  0.57623446  0.15252971  0.35933439  1
  O2-  O554  1  0.60018214  0.16878413  0.67603742  1
  O2-  O555  1  0.58213969  0.43536729  0.02097812  1
  O2-  O556  1  0.58185928  0.39422463  0.35024039  1
  O2-  O557  1  0.59377638  0.42105922  0.68203429  1
  O2-  O558  1  0.57481098  0.65764654  0.02925264  1
  O2-  O559  1  0.56328163  0.64633151  0.35366205  1
  O2-  O560  1  0.57148517  0.68394588  0.68334931  1
  O2-  O561  1  0.58097491  0.92139366  0.02519479  1
  O2-  O562  1  0.58043166  0.91858915  0.35845606  1
  O2-  O563  1  0.59960510  0.93656770  0.67918212  1
  O2-  O564  1  0.86223702  0.18160183  0.03405147  1
  O2-  O565  1  0.83102334  0.17506297  0.36479829  1
  O2-  O566  1  0.83703654  0.17624025  0.73168204  1
  O2-  O567  1  0.83076012  0.41621061  0.02680685  1
  O2-  O568  1  0.81884408  0.41788804  0.35639772  1
  O2-  O569  1  0.82810885  0.40928387  0.68448693  1
  O2-  O570  1  0.83079056  0.66962209  0.03109732  1
  O2-  O571  1  0.86899911  0.68563254  0.33287174  1
  O2-  O572  1  0.83489100  0.66008881  0.67726461  1
  O2-  O573  1  0.81635458  0.89674573  0.03882721  1
  O2-  O574  1  0.81985017  0.92183071  0.37079711  1
  O2-  O575  1  0.83201191  0.91407589  0.68986825  1
