# generated using pymatgen
data_H2O
_symmetry_space_group_name_H-M   'P 1'
_cell_length_a   18.00121320
_cell_length_b   17.99229763
_cell_length_c   22.00900105
_cell_angle_alpha   90.02192174
_cell_angle_beta   89.96542479
_cell_angle_gamma   119.98624150
_symmetry_Int_Tables_number   1
_chemical_formula_structural   H2O
_chemical_formula_sum   'H384 O192'
_cell_volume   6174.18272075
_cell_formula_units_Z   192
loop_
 _symmetry_equiv_pos_site_id
 _symmetry_equiv_pos_as_xyz
  1  'x, y, z'
loop_
 _atom_type_symbol
 _atom_type_oxidation_number
  H+  1.0
  O2-  -2.0
loop_
 _atom_site_type_symbol
 _atom_site_label
 _atom_site_symmetry_multiplicity
 _atom_site_fract_x
 _atom_site_fract_y
 _atom_site_fract_z
 _atom_site_occupancy
  H+  H0  1  0.59396991  0.22451313  0.48985543  1
  H+  H1  1  0.56656976  0.69223786  0.18127302  1
  H+  H2  1  0.60913719  0.22010902  0.83031983  1
  H+  H3  1  0.11638959  -0.02564120  1.00580681  1
  H+  H4  1  0.37249590  0.21949556  0.19145581  1
  H+  H5  1  0.78673370  0.62391553  0.99938755  1
  H+  H6  1  0.88965908  0.36186705  0.49019068  1
  H+  H7  1  0.35119519  -0.02651023  0.82552352  1
  H+  H8  1  0.15492103  0.11678321  0.64965234  1
  H+  H9  1  0.88744964  0.14149312  0.31852212  1
  H+  H10  1  0.38119949  0.36201363  0.00220619  1
  H+  H11  1  0.38138077  0.09975784  0.17958421  1
  H+  H12  1  0.36058061  0.23706648  0.02563709  1
  H+  H13  1  0.57345599  0.18144660  0.04363992  1
  H+  H14  1  0.11659054  0.75931678  0.67846034  1
  H+  H15  1  0.02727155  0.38532280  0.49061810  1
  H+  H16  1  0.48995947  0.35353651  0.19696986  1
  H+  H17  1  0.54987265  0.41634160  0.31249463  1
  H+  H18  1  0.22487581  0.61556675  0.32530887  1
  H+  H19  1  0.47102307  0.60582735  0.33579079  1
  H+  H20  1  0.48305219  0.11869846  0.68892711  1
  H+  H21  1  0.27385451  0.38695660  0.48773541  1
  H+  H22  1  0.65566128  0.62813197  0.65889704  1
  H+  H23  1  0.60712452  0.47315007  0.01074921  1
  H+  H24  1  0.36049316  0.71752089  0.33636805  1
  H+  H25  1  0.33833875  0.91118424  0.06151013  1
  H+  H26  1  0.39157738  0.52366708  0.66094955  1
  H+  H27  1  0.14592556  0.52636039  0.64078021  1
  H+  H28  1  0.77819191  0.88578411  0.01134871  1
  H+  H29  1  0.08902389  0.91338005  0.06700037  1
  H+  H30  1  0.09083931  0.45450018  0.78449417  1
  H+  H31  1  0.86823745  0.39553963  0.32823614  1
  H+  H32  1  0.89375520  0.02287146  0.99999964  1
  H+  H33  1  0.14259693  0.10078809  0.16820480  1
  H+  H34  1  0.11769891  0.22314670  1.00197212  1
  H+  H35  1  0.33148884  0.18207718  0.73336127  1
  H+  H36  1  0.35811006  0.77822516  0.96801042  1
  H+  H37  1  0.74828473  0.40249117  0.32345555  1
  H+  H38  1  0.28518230  0.17867478  0.32435720  1
  H+  H39  1  0.21506633  0.85843901  0.84229653  1
  H+  H40  1  0.78488304  0.39849772  0.48372111  1
  H+  H41  1  0.72314576  0.35422196  0.84122163  1
  H+  H42  1  1.03539686  0.13251998  0.49556828  1
  H+  H43  1  0.63491220  0.16119110  1.00404910  1
  H+  H44  1  0.52097039  0.65669441  0.82285223  1
  H+  H45  1  0.13321903  0.35912091  0.99600128  1
  H+  H46  1  0.13557192  0.52193012  0.50431036  1
  H+  H47  1  0.60088649  0.86093724  0.67377040  1
  H+  H48  1  0.36921628  0.97635517  0.68901180  1
  H+  H49  1  0.37602224  0.75699625  0.17528285  1
  H+  H50  1  0.52709126  0.63320525  0.00897373  1
  H+  H51  1  0.13956715  0.23731623  0.66893460  1
  H+  H52  1  0.46343264  0.84812442  0.16788248  1
  H+  H53  1  0.25852296  0.62386720  0.17138884  1
  H+  H54  1  0.28206723  0.65634192  0.83722081  1
  H+  H55  1  0.51820748  0.38793875  0.48162639  1
  H+  H56  1  0.89081556  0.85795372  0.64729160  1
  H+  H57  1  0.78365945  0.12420788  0.19408042  1
  H+  H58  1  0.78101801  0.91070046  0.15967072  1
  H+  H59  1  0.10230186  0.61368336  0.68198058  1
  H+  H60  1  0.79789154  0.39900637  0.15961767  1
  H+  H61  1  0.50450911  0.14961577  0.13687659  1
  H+  H62  1  0.63885749  0.00066037  0.98092109  1
  H+  H63  1  0.61549830  0.10510490  0.14316655  1
  H+  H64  1  0.60821464  0.13207029  0.66957226  1
  H+  H65  1  0.15217211  0.37165713  0.84017360  1
  H+  H66  1  0.15507676  0.62449443  1.02449236  1
  H+  H67  1  0.22165706  0.85315907  0.49398653  1
  H+  H68  1  0.52445973  0.63057879  0.49191314  1
  H+  H69  1  0.98366526  0.61206669  0.50382557  1
  H+  H70  1  0.37379997  0.39308109  0.83481794  1
  H+  H71  1  0.63283108  0.59563851  0.83924761  1
  H+  H72  1  0.58607832  0.97759173  0.14775068  1
  H+  H73  1  0.27019912  0.88127208  0.00286093  1
  H+  H74  1  0.63714848  0.77088778  1.00010471  1
  H+  H75  1  0.91260041  0.33338818  0.59203239  1
  H+  H76  1  0.91474228  0.12442989  0.17667337  1
  H+  H77  1  0.60969808  0.38653801  1.00881080  1
  H+  H78  1  0.85419761  0.46872959  0.82210983  1
  H+  H79  1  0.15784233  0.82866496  0.90247414  1
  H+  H80  1  0.05043515  0.15004763  0.66302258  1
  H+  H81  1  0.16289972  0.07159845  0.92709988  1
  H+  H82  1  0.85556985  0.38065440  0.82443917  1
  H+  H83  1  0.12505163  0.26344475  0.17011291  1
  H+  H84  1  0.35970060  0.47287898  1.00793445  1
  H+  H85  1  0.02798153  0.64957659  0.33928410  1
  H+  H86  1  0.35992183  0.62936565  0.67619859  1
  H+  H87  1  0.63542984  0.88297841  0.16688137  1
  H+  H88  1  0.26979117  0.39246805  0.33471568  1
  H+  H89  1  0.38336843  0.77545115  0.51058716  1
  H+  H90  1  0.11591639  0.72106995  0.49182153  1
  H+  H91  1  0.61437491  0.46943110  0.48683238  1
  H+  H92  1  0.77252485  0.38464894  0.66470501  1
  H+  H93  1  0.64979318  0.37272558  0.16288367  1
  H+  H94  1  0.35443078  0.88030917  0.49680257  1
  H+  H95  1  0.48214220  0.37050276  0.64549427  1
  H+  H96  1  0.89820925  0.28195676  0.30631656  1
  H+  H97  1  1.02831024  0.89215626  0.66926080  1
  H+  H98  1  0.13799385  0.36481476  0.32566423  1
  H+  H99  1  0.58279315  0.61440205  0.17370935  1
  H+  H100  1  0.32964077  0.66937846  0.77201704  1
  H+  H101  1  0.13564456  0.52864881  0.32531996  1
  H+  H102  1  0.14614180  0.63260139  0.86242179  1
  H+  H103  1  0.11485561  0.64687260  0.33855900  1
  H+  H104  1  0.15516895  0.90302941  0.64790266  1
  H+  H105  1  0.98371077  0.11050271  0.99137251  1
  H+  H106  1  0.66459890  0.05295303  0.60895517  1
  H+  H107  1  0.27828311  0.63594925  0.49056419  1
  H+  H108  1  0.94850477  0.08321504  0.71435695  1
  H+  H109  1  0.59141243  0.23949855  0.13478875  1
  H+  H110  1  0.35508209  0.14075599  0.82525659  1
  H+  H111  1  0.37615126  0.71720989  0.03685784  1
  H+  H112  1  0.37516625  0.39084640  0.67385754  1
  H+  H113  1  0.84526698  0.87254687  0.34016358  1
  H+  H114  1  0.13672422  0.86153130  0.99749199  1
  H+  H115  1  0.88918077  0.26999744  1.00092656  1
  H+  H116  1  0.89477539  0.87770727  0.00192029  1
  H+  H117  1  0.59596751  0.90850195  0.76376163  1
  H+  H118  1  0.72429830  0.59704501  0.49425092  1
  H+  H119  1  0.14622491  0.27873875  0.83668251  1
  H+  H120  1  0.87961348  0.52072134  0.65593128  1
  H+  H121  1  0.64434247  0.61285700  0.99875336  1
  H+  H122  1  0.86449711  0.62941001  0.48415098  1
  H+  H123  1  0.96378725  0.34899356  0.84736775  1
  H+  H124  1  0.35930726  0.87432811  0.14774796  1
  H+  H125  1  0.69628446  0.60909508  0.19467672  1
  H+  H126  1  0.87692478  0.62550609  -0.00050717  1
  H+  H127  1  0.11596579  0.98389008  0.67286943  1
  H+  H128  1  0.61468219  0.37143765  0.84454761  1
  H+  H129  1  0.37391200  0.87119464  0.83378419  1
  H+  H130  1  0.98608064  0.10436680  0.32991236  1
  H+  H131  1  0.23045803  0.08658337  0.97788985  1
  H+  H132  1  0.46876044  0.11121195  0.84237443  1
  H+  H133  1  0.72242830  0.10979860  0.83001382  1
  H+  H134  1  0.69254005  0.09196112  0.33943902  1
  H+  H135  1  0.89585312  0.53638129  0.31597107  1
  H+  H136  1  0.50625550  0.87644070  -0.00390199  1
  H+  H137  1  0.66058890  0.54018114  0.64110709  1
  H+  H138  1  0.63697189  0.59833092  0.49797173  1
  H+  H139  1  0.26752214  0.38488522  0.00521698  1
  H+  H140  1  0.64807548  0.28700286  0.99048072  1
  H+  H141  1  0.07705105  0.90664706  0.33708468  1
  H+  H142  1  1.02825808  0.39248850  0.33829458  1
  H+  H143  1  0.23787224  0.61784868  0.64807171  1
  H+  H144  1  0.80151848  0.15712347  0.67441636  1
  H+  H145  1  0.16329758  0.33069436  0.26665189  1
  H+  H146  1  0.38077028  0.60968959  0.33530778  1
  H+  H147  1  0.38045993  0.27520247  0.49475695  1
  H+  H148  1  0.42373526  0.09053330  0.74596180  1
  H+  H149  1  0.71247710  0.85077642  0.65091040  1
  H+  H150  1  0.12526833  0.81452601  0.14350597  1
  H+  H151  1  0.90648553  0.24940626  0.15541361  1
  H+  H152  1  0.44500464  0.57852596  0.17331649  1
  H+  H153  1  0.38913100  0.61709802  0.84347407  1
  H+  H154  1  0.39430871  0.28096735  0.65624434  1
  H+  H155  1  0.35726963  0.58258599  0.17982178  1
  H+  H156  1  0.63867533  0.27935490  0.65913402  1
  H+  H157  1  0.85518037  0.96948571  0.66549975  1
  H+  H158  1  0.85672794  0.71467051  0.48288558  1
  H+  H159  1  0.36778718  0.87627303  0.98711309  1
  H+  H160  1  0.43404780  0.12195426  0.32849250  1
  H+  H161  1  0.84829914  0.12884373  0.44560594  1
  H+  H162  1  1.04320290  0.64320906  1.04401903  1
  H+  H163  1  0.12039561  0.13515118  0.00014220  1
  H+  H164  1  0.89917616  0.88177274  0.85718232  1
  H+  H165  1  0.91339782  0.52023476  0.00687472  1
  H+  H166  1  0.64856929  0.32646203  0.59627323  1
  H+  H167  1  0.08581677  0.66317409  0.43155249  1
  H+  H168  1  0.87424082  0.13584079  1.00982714  1
  H+  H169  1  0.86211635  0.73202817  0.82923314  1
  H+  H170  1  0.65434047  0.81006385  0.14848487  1
  H+  H171  1  0.36067671  0.14627427  0.47201977  1
  H+  H172  1  0.65885022  0.79154832  0.83813633  1
  H+  H173  1  0.12140752  -0.03757910  0.15881669  1
  H+  H174  1  0.86922374  0.38698993  0.01123017  1
  H+  H175  1  0.98146567  0.87721902  0.34974366  1
  H+  H176  1  0.69739048  0.08584886  0.23453533  1
  H+  H177  1  0.82204401  0.91059396  0.39803542  1
  H+  H178  1  0.28583145  0.39339536  0.83028151  1
  H+  H179  1  0.10652734  0.17877403  0.76191716  1
  H+  H180  1  0.01937712  0.63114926  0.83741046  1
  H+  H181  1  0.62617196  0.39943628  0.65477818  1
  H+  H182  1  0.11672111  0.14354461  0.82499050  1
  H+  H183  1  0.87193983  0.63536754  0.67251418  1
  H+  H184  1  0.12464385  0.39922602  0.65578605  1
  H+  H185  1  0.59296796  0.35073984  0.50589251  1
  H+  H186  1  0.90807834  0.63028354  0.16076402  1
  H+  H187  1  0.89107104  0.36971491  0.65247108  1
  H+  H188  1  0.88415560  0.49156441  0.15932602  1
  H+  H189  1  0.02217541  0.38632078  0.01093085  1
  H+  H190  1  0.17705901  0.08211242  0.55496739  1
  H+  H191  1  0.14168506  0.02123461  0.49448067  1
  H+  H192  1  0.90498763  0.12531334  0.67704372  1
  H+  H193  1  0.88789560  0.27330897  0.48039676  1
  H+  H194  1  0.47901138  0.61135205  0.65587888  1
  H+  H195  1  0.12995895  0.02012154  0.83580967  1
  H+  H196  1  0.15577557  0.59146251  0.23305600  1
  H+  H197  1  0.14149653  0.77660571  1.00722799  1
  H+  H198  1  0.05509098  0.40678210  0.10850126  1
  H+  H199  1  0.84483745  0.42900223  0.38991308  1
  H+  H200  1  0.63373796  0.76081910  0.50559377  1
  H+  H201  1  0.87910218  0.61317828  0.83520232  1
  H+  H202  1  0.35467631  0.22880074  0.83305269  1
  H+  H203  1  0.77464399  0.64139394  0.82559781  1
  H+  H204  1  0.11877304  0.52844616  0.17653266  1
  H+  H205  1  0.80333300  0.64928956  0.13612463  1
  H+  H206  1  0.11255513  0.34696914  0.17398197  1
  H+  H207  1  0.89731149  0.77370585  0.65557711  1
  H+  H208  1  0.12533672  0.13457744  0.49191385  1
  H+  H209  1  0.38180652  0.88646830  0.33556814  1
  H+  H210  1  0.87710756  0.99062004  0.15982072  1
  H+  H211  1  0.39552209  0.53074185  0.84029448  1
  H+  H212  1  0.73271112  0.12778123  0.47497226  1
  H+  H213  1  0.57898489  0.66026968  0.07072966  1
  H+  H214  1  0.86269153  0.67924325  0.07924560  1
  H+  H215  1  0.16513577  0.34066295  0.71953966  1
  H+  H216  1  0.87478550  0.84417903  0.49843616  1
  H+  H217  1  0.38674969  0.52166335  0.50203668  1
  H+  H218  1  0.13926226  0.26667789  0.50532729  1
  H+  H219  1  0.60395049  0.46832706  0.16288039  1
  H+  H220  1  0.85754843  0.96153614  0.49747252  1
  H+  H221  1  0.61228243  0.10133288  0.32999888  1
  H+  H222  1  0.36725469  0.63642191  0.49151587  1
  H+  H223  1  0.41376922  0.28360804  0.30825525  1
  H+  H224  1  0.64192099  0.89552152  0.82881030  1
  H+  H225  1  0.38450909  0.78333926  0.83528040  1
  H+  H226  1  0.65247538  0.41293182  0.32333624  1
  H+  H227  1  0.12894759  0.66245242  0.14158801  1
  H+  H228  1  0.21910825  0.11028789  0.83747766  1
  H+  H229  1  0.99465247  0.62889409  0.16362697  1
  H+  H230  1  0.84287467  0.61886896  0.33262053  1
  H+  H231  1  0.36286958  -0.03467602  0.14598789  1
  H+  H232  1  0.80951648  0.13903441  0.28500931  1
  H+  H233  1  0.59184420  0.94532622  0.67468789  1
  H+  H234  1  0.75517105  0.63028425  0.66198321  1
  H+  H235  1  0.46166725  0.84445924  0.67257992  1
  H+  H236  1  0.89103968  0.57340689  0.89517020  1
  H+  H237  1  0.28170807  0.63583545  0.02271298  1
  H+  H238  1  0.34382713  0.47200409  0.16319593  1
  H+  H239  1  0.63953444  0.51150144  0.84295124  1
  H+  H240  1  0.99373543  0.87897677  1.00248031  1
  H+  H241  1  0.03621214  0.13096286  0.15946766  1
  H+  H242  1  0.87662032  0.26153404  0.84460615  1
  H+  H243  1  0.27212978  0.14511769  0.48090429  1
  H+  H244  1  0.24051715  0.11395034  0.65400185  1
  H+  H245  1  0.14794103  0.11117266  0.32464651  1
  H+  H246  1  0.61072352  0.87013406  0.33787945  1
  H+  H247  1  -0.02024507  0.86953920  0.84486941  1
  H+  H248  1  0.11710969  0.38721225  0.49426714  1
  H+  H249  1  0.66514519  0.06990228  0.88886794  1
  H+  H250  1  0.24789011  0.37682946  0.67923418  1
  H+  H251  1  0.36792907  0.49890616  0.33788748  1
  H+  H252  1  0.24561481  0.37216290  0.15685520  1
  H+  H253  1  0.35518807  0.71645117  0.67849188  1
  H+  H254  1  0.10520945  0.88267048  0.82705332  1
  H+  H255  1  0.87467139  0.48485543  0.48882363  1
  H+  H256  1  0.11220444  0.47424718  0.01928174  1
  H+  H257  1  0.39334721  0.60739377  0.99865666  1
  H+  H258  1  0.39555743  0.07831253  0.42196543  1
  H+  H259  1  0.60486093  0.12963188  0.82484270  1
  H+  H260  1  0.67321845  0.33267961  0.90577878  1
  H+  H261  1  -0.02869695  0.59815939  0.66537957  1
  H+  H262  1  0.11523093  0.89169406  0.48039984  1
  H+  H263  1  0.63157156  0.97342989  0.48750470  1
  H+  H264  1  0.34899961  0.01802758  0.98374926  1
  H+  H265  1  0.61583895  0.71943819  0.66393145  1
  H+  H266  1  0.61326268  0.71177381  0.33417126  1
  H+  H267  1  0.88620670  0.24693047  0.67239903  1
  H+  H268  1  0.40666149  0.32743064  0.91165527  1
  H+  H269  1  0.78374432  0.13070718  0.01187395  1
  H+  H270  1  0.60846145  0.09214011  0.17630021  1
  H+  H271  1  0.12012481  0.79768913  0.31330285  1
  H+  H272  1  0.93538108  0.08234482  0.23458903  1
  H+  H273  1  0.84908028  0.12091080  0.82946682  1
  H+  H274  1  0.09379835  0.74411190  0.64855240  1
  H+  H275  1  0.76618477  0.87489269  0.49614199  1
  H+  H276  1  0.35350629  0.42292509  0.73771335  1
  H+  H277  1  0.36296092  0.38721442  0.48520046  1
  H+  H278  1  0.40660275  0.84466443  0.90094479  1
  H+  H279  1  0.35182202  0.96691522  0.47931195  1
  H+  H280  1  0.61600909  0.14795527  0.48113705  1
  H+  H281  1  0.27077650  0.16684848  0.05172327  1
  H+  H282  1  0.87689065  0.86308503  0.17790313  1
  H+  H283  1  0.74974413  0.88121726  0.84795062  1
  H+  H284  1  0.47290578  0.35546232  0.85687198  1
  H+  H285  1  0.62927682  -0.01538406  0.82186632  1
  H+  H286  1  0.47056170  0.36064670  0.00211655  1
  H+  H287  1  0.37628031  0.85248995  0.67155787  1
  H+  H288  1  0.17510977  0.59068931  0.57431964  1
  H+  H289  1  0.60096644  0.44679035  0.70455010  1
  H+  H290  1  0.84255042  0.67050176  0.73190400  1
  H+  H291  1  0.65542024  0.31511172  0.32948371  1
  H+  H292  1  0.09232002  0.16258506  0.09829115  1
  H+  H293  1  0.27927881  0.90155710  0.66756743  1
  H+  H294  1  0.56453290  0.38079224  0.78949304  1
  H+  H295  1  0.41613439  0.57978603  0.56232024  1
  H+  H296  1  0.94082777  0.35602749  0.25729195  1
  H+  H297  1  0.42259572  0.58265138  0.93651841  1
  H+  H298  1  0.10535078  0.72253927  0.83426366  1
  H+  H299  1  0.07777072  0.91426910  0.76663547  1
  H+  H300  1  0.46541977  0.10784146  0.47320330  1
  H+  H301  1  0.18865487  0.49340110  0.78192538  1
  H+  H302  1  0.89129641  0.05421503  0.90809144  1
  H+  H303  1  0.84757991  0.42428168  0.07052616  1
  H+  H304  1  0.91400951  0.81753149  0.55333019  1
  H+  H305  1  0.82119027  0.89622833  0.71391459  1
  H+  H306  1  0.71046053  0.57464939  0.33393069  1
  H+  H307  1  0.34126769  0.21161332  0.38448591  1
  H+  H308  1  0.89212442  0.01672601  0.32706904  1
  H+  H309  1  0.59602097  0.17128691  0.73254197  1
  H+  H310  1  0.32364807  0.64435256  0.11595301  1
  H+  H311  1  0.22910779  0.95926784  0.60248198  1
  H+  H312  1  0.23030989  0.10069857  0.17792077  1
  H+  H313  1  0.83895763  0.92153789  0.07079853  1
  H+  H314  1  0.37212996  0.14890385  0.68546027  1
  H+  H315  1  0.90007430  0.10407242  0.53560360  1
  H+  H316  1  0.56703691  0.91511935  0.09152937  1
  H+  H317  1  0.82830784  0.41085965  0.72582828  1
  H+  H318  1  0.84229794  0.16953399  0.76998717  1
  H+  H319  1  0.59238022  0.86901208  1.00404926  1
  H+  H320  1  0.34866614  0.17771297  0.12491187  1
  H+  H321  1  0.33091178  0.66268862  0.39835411  1
  H+  H322  1  0.66680545  0.82759035  0.26397327  1
  H+  H323  1  0.17244007  0.32906470  0.56275810  1
  H+  H324  1  0.54700211  0.73374282  0.77967685  1
  H+  H325  1  0.39191204  0.07943608  0.89247278  1
  H+  H326  1  0.67507557  0.33453761  0.21743849  1
  H+  H327  1  0.67002203  0.83232803  0.94163088  1
  H+  H328  1  0.47609923  0.84179640  0.32450297  1
  H+  H329  1  0.89265888  0.78408350  0.16912076  1
  H+  H330  1  0.65061570  0.81611395  0.59333642  1
  H+  H331  1  0.92719404  0.60097982  0.25990967  1
  H+  H332  1  0.88434215  0.81168627  0.27050530  1
  H+  H333  1  0.13343157  0.85175668  0.25343657  1
  H+  H334  1  0.58916176  0.90487265  0.43494401  1
  H+  H335  1  0.72031443  0.15584479  0.53849222  1
  H+  H336  1  0.32905707  0.41931749  0.39697377  1
  H+  H337  1  0.72410357  0.02177812  0.94869805  1
  H+  H338  1  0.42167795  0.05900460  0.22312039  1
  H+  H339  1  0.06903357  0.62790204  0.74547415  1
  H+  H340  1  0.16271214  0.55457101  0.86393801  1
  H+  H341  1  0.39962353  0.82370611  0.57352062  1
  H+  H342  1  0.58953993  0.66423643  0.72496937  1
  H+  H343  1  0.84779658  0.74672917  0.32760243  1
  H+  H344  1  0.16373399  0.83514116  0.55209633  1
  H+  H345  1  0.91147141  0.32694701  0.94094999  1
  H+  H346  1  0.93847271  0.06398819  0.57834032  1
  H+  H347  1  0.57424567  0.40909550  0.10335686  1
  H+  H348  1  0.31848948  0.90921308  0.76755386  1
  H+  H349  1  0.70312603  0.24015948  0.35979106  1
  H+  H350  1  0.41587761  0.81937499  0.26457963  1
  H+  H351  1  0.58384950  0.66120416  0.43294813  1
  H+  H352  1  0.83115936  0.16940852  0.38836278  1
  H+  H353  1  0.17963072  0.60324635  0.95889586  1
  H+  H354  1  0.16616325  0.33441792  0.93480801  1
  H+  H355  1  0.73493687  0.37823306  0.99720399  1
  H+  H356  1  0.72405820  0.85459291  0.32450730  1
  H+  H357  1  0.31233974  0.40507891  0.09726421  1
  H+  H358  1  0.63367519  0.55335743  0.24578725  1
  H+  H359  1  0.11587698  0.22457190  0.34003897  1
  H+  H360  1  0.13428724  0.61474060  0.50049079  1
  H+  H361  1  0.38161880  0.01942604  0.34174340  1
  H+  H362  1  0.92183481  0.58309533  0.56262961  1
  H+  H363  1  0.61761827  0.20740468  0.39786922  1
  H+  H364  1  0.34284301  0.90681538  0.39409545  1
  H+  H365  1  0.09073340  0.16666219  0.39976300  1
  H+  H366  1  0.63734647  0.85342206  0.50597687  1
  H+  H367  1  0.98483690  0.58192357  0.95913169  1
  H+  H368  1  0.08788837  0.41973148  0.39780052  1
  H+  H369  1  0.66730789  0.57878971  0.93878740  1
  H+  H370  1  0.17512540  0.07961921  0.26637501  1
  H+  H371  1  0.60322652  0.61762768  0.34077923  1
  H+  H372  1  0.06963755  0.92316989  0.43161550  1
  H+  H373  1  0.56813607  0.01467512  0.59803553  1
  H+  H374  1  0.93656983  0.39547599  0.15942981  1
  H+  H375  1  0.36080225  0.11044822  0.99253341  1
  H+  H376  1  0.89401388  0.98781219  0.80728463  1
  H+  H377  1  0.41120045  0.33542262  0.55480247  1
  H+  H378  1  0.92845879  0.84703102  0.93924539  1
  H+  H379  1  0.59775530  0.95275791  0.34082499  1
  H+  H380  1  0.03488727  0.39901591  0.64764331  1
  H+  H381  1  0.53594023  0.26568201  0.54773698  1
  H+  H382  1  0.81180060  0.63942633  0.39671344  1
  H+  H383  1  0.85990853  0.17847200  0.10376316  1
  O2-  O384  1  0.09649157  0.16495478  0.14339468  1
  O2-  O385  1  0.09443412  0.16762002  0.48029824  1
  O2-  O386  1  0.09829036  0.18197712  0.80598043  1
  O2-  O387  1  0.05557015  0.41135328  0.15445251  1
  O2-  O388  1  0.08932141  0.42018889  0.47994356  1
  O2-  O389  1  0.13991294  0.46510052  0.80971750  1
  O2-  O390  1  0.09942143  0.69168397  0.12282983  1
  O2-  O391  1  0.08703964  0.65876079  0.47755639  1
  O2-  O392  1  0.08085723  0.65975474  0.82590419  1
  O2-  O393  1  0.09263211  0.90267117  0.14061995  1
  O2-  O394  1  0.09254881  0.93090846  0.47463895  1
  O2-  O395  1  0.07530673  0.91348749  0.81228350  1
  O2-  O396  1  0.34176821  0.16391029  0.16904207  1
  O2-  O397  1  0.33283206  0.18197630  0.46655237  1
  O2-  O398  1  0.32457336  0.17149068  0.81237680  1
  O2-  O399  1  0.30790046  0.40298187  0.14321037  1
  O2-  O400  1  0.33312575  0.41949178  0.47132828  1
  O2-  O401  1  0.34693036  0.42507320  0.81624851  1
  O2-  O402  1  0.32090421  0.64714253  0.16093081  1
  O2-  O403  1  0.33800475  0.66753141  0.47582619  1
  O2-  O404  1  0.33932025  0.68062068  0.81678366  1
  O2-  O405  1  0.33809393  0.90831765  0.12563018  1
  O2-  O406  1  0.32147855  0.90337826  0.47435980  1
  O2-  O407  1  0.32080252  0.91134997  0.81351883  1
  O2-  O408  1  0.54305578  0.19745878  0.11000006  1
  O2-  O409  1  0.58364150  0.17406008  0.46349399  1
  O2-  O410  1  0.57693238  0.16220860  0.81053968  1
  O2-  O411  1  0.58063261  0.40853646  0.14857195  1
  O2-  O412  1  0.57951439  0.40657540  0.47335837  1
  O2-  O413  1  0.58158308  0.40146579  0.83088795  1
  O2-  O414  1  0.55282283  0.64336167  0.15492383  1
  O2-  O415  1  0.58552750  0.66137423  0.47818007  1
  O2-  O416  1  0.57142438  0.70168454  0.79878264  1
  O2-  O417  1  0.57037217  0.91863647  0.13714668  1
  O2-  O418  1  0.60010828  0.91199449  0.47960617  1
  O2-  O419  1  0.60648564  0.92028094  0.81001357  1
  O2-  O420  1  0.87228388  0.18669701  0.14814168  1
  O2-  O421  1  0.82561627  0.16632209  0.43483310  1
  O2-  O422  1  0.82903625  0.16001771  0.81418554  1
  O2-  O423  1  0.85913274  0.43022276  0.14629803  1
  O2-  O424  1  0.84400576  0.42523207  0.46922751  1
  O2-  O425  1  0.82456091  0.40845848  0.80710646  1
  O2-  O426  1  0.86380545  0.68326472  0.12575506  1
  O2-  O427  1  0.82944391  0.65288679  0.46727231  1
  O2-  O428  1  0.83511599  0.67388318  0.81076614  1
  O2-  O429  1  0.83923522  0.93069994  0.14333339  1
  O2-  O430  1  0.82494882  0.90529049  0.47756397  1
  O2-  O431  1  0.86047456  0.96293384  0.84449998  1
  O2-  O432  1  0.16688263  0.06497773  0.18255009  1
  O2-  O433  1  0.17296089  0.08499664  0.51023043  1
  O2-  O434  1  0.15891101  0.07939262  0.85332441  1
  O2-  O435  1  0.15016355  0.32401285  0.18601539  1
  O2-  O436  1  0.16713755  0.32912719  0.51869377  1
  O2-  O437  1  0.17843006  0.33852633  0.85521855  1
  O2-  O438  1  0.15520492  0.58974655  0.18723007  1
  O2-  O439  1  0.16606873  0.58402848  0.51814117  1
  O2-  O440  1  0.18599395  0.61353698  0.87965605  1
  O2-  O441  1  0.15088680  0.87237691  0.16159446  1
  O2-  O442  1  0.15973023  0.82117033  0.50849101  1
  O2-  O443  1  0.15468110  0.82822336  0.85721529  1
  O2-  O444  1  0.41242674  0.06591473  0.18036449  1
  O2-  O445  1  0.40262540  0.07919044  0.46802896  1
  O2-  O446  1  0.40530668  0.08052177  0.84781598  1
  O2-  O447  1  0.43693137  0.32649607  0.22263593  1
  O2-  O448  1  0.41171030  0.33725236  0.50981754  1
  O2-  O449  1  0.41085001  0.33003190  0.86593229  1
  O2-  O450  1  0.38396253  0.54543213  0.18652505  1
  O2-  O451  1  0.41805956  0.58228539  0.51721175  1
  O2-  O452  1  0.42454521  0.59143184  0.85592297  1
  O2-  O453  1  0.40493798  0.81951099  0.18542630  1
  O2-  O454  1  0.40262511  0.83224243  0.52921534  1
  O2-  O455  1  0.40937635  0.84462113  0.85063114  1
  O2-  O456  1  0.75118743  0.08592516  0.22861972  1
  O2-  O457  1  0.68798976  0.11352867  0.50708719  1
  O2-  O458  1  0.66096170  0.07425625  0.84357417  1
  O2-  O459  1  0.68308701  0.34320642  0.17353942  1
  O2-  O460  1  0.59473721  0.29885567  0.53253833  1
  O2-  O461  1  0.66485423  0.32340387  0.86019400  1
  O2-  O462  1  0.63590478  0.56727350  0.20080080  1
  O2-  O463  1  0.66445935  0.56469212  0.51004654  1
  O2-  O464  1  0.66963452  0.57396612  0.85384423  1
  O2-  O465  1  0.66806535  0.85379752  0.17947437  1
  O2-  O466  1  0.66381633  0.82016909  0.52413427  1
  O2-  O467  1  0.68739807  0.84904495  0.85780886  1
  O2-  O468  1  0.93758193  0.08631093  0.18889061  1
  O2-  O469  1  0.92756979  0.06916120  0.53540649  1
  O2-  O470  1  0.85780158  0.03897876  0.86843616  1
  O2-  O471  1  0.96460740  0.36206249  0.17361967  1
  O2-  O472  1  0.91482142  0.32664543  0.50484779  1
  O2-  O473  1  0.90374714  0.32233706  0.85948409  1
  O2-  O474  1  0.93532609  0.59886763  0.17959807  1
  O2-  O475  1  0.92210574  0.57995358  0.51740669  1
  O2-  O476  1  0.90292718  0.57724893  0.85161227  1
  O2-  O477  1  0.89881215  0.82873206  0.19778670  1
  O2-  O478  1  0.89855961  0.80712011  0.51008507  1
  O2-  O479  1  0.92165594  0.84288747  0.86576260  1
  O2-  O480  1  0.19156597  0.09849527  0.30872611  1
  O2-  O481  1  0.18080852  0.08118371  0.63777384  1
  O2-  O482  1  0.17026254  0.07135698  0.97289393  1
  O2-  O483  1  0.16911927  0.33485979  0.31169623  1
  O2-  O484  1  0.18224267  0.34568752  0.67686349  1
  O2-  O485  1  0.16495518  0.33095414  0.98015993  1
  O2-  O486  1  0.16433983  0.58885397  0.31004774  1
  O2-  O487  1  0.17890759  0.59064687  0.62816998  1
  O2-  O488  1  0.18118921  0.59394284  1.00357947  1
  O2-  O489  1  0.12340717  0.85004452  0.29732961  1
  O2-  O490  1  0.20287700  0.90405682  0.62334034  1
  O2-  O491  1  0.16684779  0.83054060  0.98332132  1
  O2-  O492  1  0.38495162  0.07659964  0.34945904  1
  O2-  O493  1  0.42121799  0.08690617  0.70155117  1
  O2-  O494  1  0.34608808  0.06481487  0.96226927  1
  O2-  O495  1  0.47149683  0.32516608  0.28324642  1
  O2-  O496  1  0.41959873  0.33989998  0.63806894  1
  O2-  O497  1  0.40900770  0.32858874  0.98843917  1
  O2-  O498  1  0.40958974  0.57575274  0.32274888  1
  O2-  O499  1  0.41746536  0.58357591  0.64490069  1
  O2-  O500  1  0.42293131  0.57772672  0.98168624  1
  O2-  O501  1  0.41557056  0.81498746  0.30969359  1
  O2-  O502  1  0.40180433  0.81697670  0.65779117  1
  O2-  O503  1  0.40040293  0.83896075  0.96280174  1
  O2-  O504  1  0.63526874  0.06301101  0.32161836  1
  O2-  O505  1  0.61096001  0.03570883  0.63062922  1
  O2-  O506  1  0.68956155  0.04804143  0.95922062  1
  O2-  O507  1  0.68444703  0.37532710  0.31087875  1
  O2-  O508  1  0.66681204  0.33764218  0.64051078  1
  O2-  O509  1  0.67648941  0.35017178  0.97922164  1
  O2-  O510  1  0.64449476  0.54182088  0.31767561  1
  O2-  O511  1  0.69376506  0.60519397  0.64173725  1
  O2-  O512  1  0.66984651  0.57836027  0.98366699  1
  O2-  O513  1  0.66333476  0.81926291  0.30838383  1
  O2-  O514  1  0.65056772  0.81649261  0.64046190  1
  O2-  O515  1  0.66487051  0.83234161  0.98643622  1
  O2-  O516  1  0.92707338  0.07666972  0.31110393  1
  O2-  O517  1  0.92973143  0.08623818  0.67313096  1
  O2-  O518  1  0.92113174  0.08083958  0.98051821  1
  O2-  O519  1  0.92495550  0.34546591  0.30089524  1
  O2-  O520  1  0.92189535  0.33971374  0.63659090  1
  O2-  O521  1  0.91774027  0.33067158  0.98583175  1
  O2-  O522  1  0.92020349  0.59761462  0.30502290  1
  O2-  O523  1  0.91536965  0.58261076  0.64468963  1
  O2-  O524  1  0.95355806  0.58314066  0.99496474  1
  O2-  O525  1  0.87723564  0.80787861  0.31610842  1
  O2-  O526  1  0.92727192  0.83275703  0.63846458  1
  O2-  O527  1  0.93047688  0.85165833  0.98548656  1
  O2-  O528  1  0.08802849  0.16212139  0.01615017  1
  O2-  O529  1  0.08563024  0.16430656  0.35471746  1
  O2-  O530  1  0.11012796  0.17423285  0.67669453  1
  O2-  O531  1  0.07999823  0.41275321  0.03079911  1
  O2-  O532  1  0.08875117  0.42099157  0.35259117  1
  O2-  O533  1  0.09615395  0.43392143  0.66004032  1
  O2-  O534  1  0.10516015  0.67986757  0.05597271  1
  O2-  O535  1  0.08637751  0.67674386  0.35711631  1
  O2-  O536  1  0.05066505  0.59724104  0.70614625  1
  O2-  O537  1  0.08279964  0.91353103  0.02109082  1
  O2-  O538  1  0.04007632  0.92112247  0.36181264  1
  O2-  O539  1  0.08638534  0.92350725  0.68863750  1
  O2-  O540  1  0.32963794  0.17898848  0.04629996  1
  O2-  O541  1  0.33856240  0.22889735  0.34230411  1
  O2-  O542  1  0.34026929  0.18078154  0.68847413  1
  O2-  O543  1  0.32643204  0.41282298  0.02379632  1
  O2-  O544  1  0.33044045  0.42561550  0.35116280  1
  O2-  O545  1  0.34762196  0.42249318  0.69233858  1
  O2-  O546  1  0.34229884  0.65473154  0.03723526  1
  O2-  O547  1  0.32775747  0.65702578  0.35293274  1
  O2-  O548  1  0.32419058  0.65402928  0.69147393  1
  O2-  O549  1  0.33359727  0.91262249  0.01260748  1
  O2-  O550  1  0.35833420  0.92227058  0.35086826  1
  O2-  O551  1  0.33065948  0.91303332  0.69268351  1
  O2-  O552  1  0.59641937  0.18434546  0.00121151  1
  O2-  O553  1  0.64329863  0.22527324  0.35511811  1
  O2-  O554  1  0.59247646  0.17286227  0.68703689  1
  O2-  O555  1  0.57515502  0.41207907  0.02457500  1
  O2-  O556  1  0.60545898  0.45078714  0.33720518  1
  O2-  O557  1  0.60005953  0.43783154  0.66078789  1
  O2-  O558  1  0.58664280  0.66589524  0.02613703  1
  O2-  O559  1  0.57836388  0.65352540  0.35272547  1
  O2-  O560  1  0.59285660  0.65883915  0.68031648  1
  O2-  O561  1  0.56463929  0.90376555  0.01435442  1
  O2-  O562  1  0.57577362  0.89368628  0.35616714  1
  O2-  O563  1  0.57299192  0.89013905  0.69628325  1
  O2-  O564  1  0.84351412  0.16553272  0.02589556  1
  O2-  O565  1  0.85235739  0.17151093  0.31901096  1
  O2-  O566  1  0.85948904  0.18718482  0.69109686  1
  O2-  O567  1  0.84587490  0.42445676  0.02475838  1
  O2-  O568  1  0.84014627  0.42753378  0.34452871  1
  O2-  O569  1  0.83256500  0.41358424  0.68057571  1
  O2-  O570  1  0.84879059  0.65918134  0.00844927  1
  O2-  O571  1  0.79932216  0.63139765  0.35100521  1
  O2-  O572  1  0.84136191  0.66742327  0.68646290  1
  O2-  O573  1  0.83929840  0.91726778  0.02450279  1
  O2-  O574  1  0.82237102  0.91162095  0.35268857  1
  O2-  O575  1  0.82272390  0.90615325  0.67021590  1
