# generated using pymatgen
data_H2O
_symmetry_space_group_name_H-M   'P 1'
_cell_length_a   17.97169394
_cell_length_b   17.98201240
_cell_length_c   21.98870929
_cell_angle_alpha   90.02562706
_cell_angle_beta   89.95083680
_cell_angle_gamma   119.95684655
_symmetry_Int_Tables_number   1
_chemical_formula_structural   H2O
_chemical_formula_sum   'H384 O192'
_cell_volume   6156.67462126
_cell_formula_units_Z   192
loop_
 _symmetry_equiv_pos_site_id
 _symmetry_equiv_pos_as_xyz
  1  'x, y, z'
loop_
 _atom_type_symbol
 _atom_type_oxidation_number
  H+  1.0
  O2-  -2.0
loop_
 _atom_site_type_symbol
 _atom_site_label
 _atom_site_symmetry_multiplicity
 _atom_site_fract_x
 _atom_site_fract_y
 _atom_site_fract_z
 _atom_site_occupancy
  H+  H0  1  0.37146514  0.01988565  0.65754282  1
  H+  H1  1  0.40275405  0.43218940  0.07817618  1
  H+  H2  1  0.67815484  0.60372026  0.78420356  1
  H+  H3  1  0.73615388  0.14473034  0.30828691  1
  H+  H4  1  0.12866247  0.60990965  -0.01563976  1
  H+  H5  1  0.17155489  1.04172046  0.33842344  1
  H+  H6  1  0.85917849  0.14589885  0.48471696  1
  H+  H7  1  0.50137029  0.11906833  0.67928147  1
  H+  H8  1  0.82022156  0.38285646  0.75669820  1
  H+  H9  1  0.39174950  0.36404777  0.67523520  1
  H+  H10  1  0.90193788  0.62055242  0.64162917  1
  H+  H11  1  0.09775062  0.16434004  0.43172001  1
  H+  H12  1  0.63722757  0.97974399  0.34857151  1
  H+  H13  1  0.18839346  0.27775974  0.17535697  1
  H+  H14  1  0.12579470  0.64577986  0.82492289  1
  H+  H15  1  0.26369349  0.37916649  0.52054855  1
  H+  H16  1  0.62682957  0.85872613  0.84113940  1
  H+  H17  1  0.90357545  0.80442129  0.84668686  1
  H+  H18  1  0.74049914  0.60959529  0.18411263  1
  H+  H19  1  0.03989372  0.14853381  0.00593808  1
  H+  H20  1  0.98041586  0.19834151  0.94361592  1
  H+  H21  1  0.87279899  0.14247567  0.81664784  1
  H+  H22  1  0.36081776  0.88417751  0.49318647  1
  H+  H23  1  0.92765563  0.84589788  0.94123282  1
  H+  H24  1  0.34760220  0.18087718  0.10732757  1
  H+  H25  1  -0.06081042  0.55521230  0.06795336  1
  H+  H26  1  0.14137447  0.61715794  0.66148264  1
  H+  H27  1  0.11032096  0.49303075  0.35054849  1
  H+  H28  1  0.86548973  0.45894883  0.68043872  1
  H+  H29  1  0.08863736  0.07210918  0.78341041  1
  H+  H30  1  0.08826908  0.27797565  0.54208183  1
  H+  H31  1  0.07888461  0.42204156  0.76519609  1
  H+  H32  1  0.74876280  0.36310688  -0.00675079  1
  H+  H33  1  0.37519875  0.97729972  0.16884409  1
  H+  H34  1  0.33848736  0.05732510  0.31197615  1
  H+  H35  1  0.86329858  0.23539922  0.49811415  1
  H+  H36  1  1.02144593  0.39343440  0.49632985  1
  H+  H37  1  0.41826663  0.85547608  0.92367747  1
  H+  H38  1  0.36332159  0.88537295  0.66196617  1
  H+  H39  1  0.61412671  0.14855080  0.50182038  1
  H+  H40  1  0.35949385  0.63791098  0.67261076  1
  H+  H41  1  0.39531812  0.60467228  0.19760114  1
  H+  H42  1  0.39203759  0.12725030  1.00938975  1
  H+  H43  1  0.88754628  0.61367109  0.32059990  1
  H+  H44  1  0.41327851  0.87487147  0.32582793  1
  H+  H45  1  0.40749049  0.28213875  0.83845920  1
  H+  H46  1  0.48352576  0.12424366  1.00370339  1
  H+  H47  1  0.47216649  0.37034741  0.98528023  1
  H+  H48  1  0.47893528  0.62107770  0.81550987  1
  H+  H49  1  0.38673534  0.80089807  0.98444928  1
  H+  H50  1  0.90420463  0.28934310  0.32491234  1
  H+  H51  1  0.71965964  0.61229980  -0.01190218  1
  H+  H52  1  0.14796305  0.38900961  0.32258488  1
  H+  H53  1  0.99448467  0.89038058  0.84735722  1
  H+  H54  1  0.12144415  0.73936359  0.46003646  1
  H+  H55  1  0.11711296  0.88329190  0.16265909  1
  H+  H56  1  0.02793554  0.12943257  0.34484336  1
  H+  H57  1  0.40676465  0.58115797  0.60644573  1
  H+  H58  1  0.60955337  0.64905146  0.36038270  1
  H+  H59  1  0.07969361  0.21940140  0.79599862  1
  H+  H60  1  0.15325595  0.91345298  0.34769260  1
  H+  H61  1  0.75414834  0.33413778  0.81225943  1
  H+  H62  1  0.64729489  0.04360969  0.50907665  1
  H+  H63  1  0.85843516  0.33326373  0.16671604  1
  H+  H64  1  -0.09164278  0.27990557  0.83211118  1
  H+  H65  1  0.14931228  0.66337820  0.36428339  1
  H+  H66  1  0.47086727  0.61533942  0.66424521  1
  H+  H67  1  0.63563673  0.87273371  -0.00673379  1
  H+  H68  1  0.02042173  0.39271690  0.82679816  1
  H+  H69  1  0.55065338  0.91275161  0.52349606  1
  H+  H70  1  0.37996074  0.38770168  0.83635731  1
  H+  H71  1  0.97024645  0.36289004  0.65881283  1
  H+  H72  1  0.11506300  0.93681568  0.40644982  1
  H+  H73  1  0.37410685  0.88673514  0.16478827  1
  H+  H74  1  0.14323656  0.14514260  0.16095432  1
  H+  H75  1  0.50469900  0.63503743  0.51166013  1
  H+  H76  1  0.58057381  0.42458086  0.41418145  1
  H+  H77  1  0.84075066  0.62476564  -0.00375720  1
  H+  H78  1  0.12012720  0.36908365  0.51155497  1
  H+  H79  1  0.98101760  0.86889288  0.16637950  1
  H+  H80  1  0.36548392  0.55123534  1.05374415  1
  H+  H81  1  0.37061955  0.51762786  0.52054509  1
  H+  H82  1  0.60510328  0.63542706  0.68179654  1
  H+  H83  1  0.61664205  0.51058247  0.52354455  1
  H+  H84  1  0.75662129  0.61676503  0.68770627  1
  H+  H85  1  0.90382612  0.76980910  0.50949258  1
  H+  H86  1  0.83385741  0.91684734  0.09478188  1
  H+  H87  1  0.83151371  0.62185667  0.48679821  1
  H+  H88  1  0.34385964  0.66651781  0.02939720  1
  H+  H89  1  0.62239276  0.41973603  0.84831374  1
  H+  H90  1  0.12744537  0.89265807  0.83164706  1
  H+  H91  1  0.12076457  0.73435069  -0.00201614  1
  H+  H92  1  0.38328109  0.86741882  0.82926187  1
  H+  H93  1  0.47984606  0.86387918  0.65597499  1
  H+  H94  1  0.47501180  0.80722417  0.37975460  1
  H+  H95  1  0.42466103  0.37197265  0.17844112  1
  H+  H96  1  0.96899434  0.09436149  0.64445820  1
  H+  H97  1  0.35427240  0.38299368  0.52075979  1
  H+  H98  1  0.61199333  0.98006668  0.67308955  1
  H+  H99  1  0.58416829  0.16454768  0.09371055  1
  H+  H100  1  0.87829139  0.35102561  0.83253984  1
  H+  H101  1  0.13691509  0.85840980  0.99126502  1
  H+  H102  1  0.22217049  0.59354416  0.18749091  1
  H+  H103  1  0.58957089  0.62718138  0.51724175  1
  H+  H104  1  0.65151600  0.57303652  0.62105419  1
  H+  H105  1  0.62517060  0.52006341  0.82709496  1
  H+  H106  1  0.36296958  0.60389197  0.51697025  1
  H+  H107  1  0.38591096  0.98019424  0.34069480  1
  H+  H108  1  0.86724827  0.20716681  0.25611112  1
  H+  H109  1  0.46486385  0.82506514  0.16251724  1
  H+  H110  1  0.89069221  0.77667844  -0.00448849  1
  H+  H111  1  0.89335186  0.59132153  0.16253103  1
  H+  H112  1  0.61923308  0.35463732  -0.02278733  1
  H+  H113  1  0.32493118  0.33425596  0.19825881  1
  H+  H114  1  0.61595429  0.15368893  0.33995346  1
  H+  H115  1  0.78436605  0.88150702  0.49816719  1
  H+  H116  1  0.86240956  0.22683101  0.66299819  1
  H+  H117  1  0.26955149  0.40893517  0.34005863  1
  H+  H118  1  0.39758545  0.14428750  0.82201452  1
  H+  H119  1  0.02979829  0.89122523  0.49942037  1
  H+  H120  1  -0.01900795  0.12036547  0.48422717  1
  H+  H121  1  0.28713188  0.16195939  0.35081115  1
  H+  H122  1  -0.04762412  0.34394128  0.16811042  1
  H+  H123  1  0.86021344  0.13559266  0.66267818  1
  H+  H124  1  0.11895845  0.13280758  0.34361438  1
  H+  H125  1  0.53862081  0.78141789  0.09463480  1
  H+  H126  1  0.38555319  0.02380463  0.50450363  1
  H+  H127  1  0.52375720  0.14468693  0.34818533  1
  H+  H128  1  0.37483285  0.61567598  0.80997647  1
  H+  H129  1  0.87451854  0.73932347  0.16818317  1
  H+  H130  1  0.74640123  0.37158789  0.65937616  1
  H+  H131  1  0.78844367  0.89371196  0.33953476  1
  H+  H132  1  0.60897118  0.48003744  -0.01097286  1
  H+  H133  1  0.86819640  0.67053060  0.21303784  1
  H+  H134  1  0.77065877  0.87858499  0.68251608  1
  H+  H135  1  0.67255300  0.90386229  0.31906244  1
  H+  H136  1  0.62598059  1.00724101  0.17078255  1
  H+  H137  1  0.03483375  0.62787553  0.15489896  1
  H+  H138  1  0.11651346  0.73182614  0.67226282  1
  H+  H139  1  0.11496497  0.39588486  0.67967084  1
  H+  H140  1  0.36370977  0.40537586  0.34777765  1
  H+  H141  1  0.13893553  0.98593819  0.83541135  1
  H+  H142  1  0.15032754  1.02067058  0.18018456  1
  H+  H143  1  0.88710550  0.36960830  0.50883526  1
  H+  H144  1  0.13232640  0.09578855  0.76900093  1
  H+  H145  1  0.49475121  0.37871293  0.84241070  1
  H+  H146  1  0.09435177  0.67631144  0.76706823  1
  H+  H147  1  0.35550006  0.63393675  0.35641679  1
  H+  H148  1  0.53966013  0.63123120  0.18177847  1
  H+  H149  1  0.91965478  0.82199431  0.57207967  1
  H+  H150  1  0.87810617  0.08091809  0.90374001  1
  H+  H151  1  0.63469577  0.77544355  0.66697449  1
  H+  H152  1  0.33791892  0.91830653  0.75934182  1
  H+  H153  1  0.38235161  0.17693338  0.35852291  1
  H+  H154  1  0.23466284  0.86077464  0.17295378  1
  H+  H155  1  0.65738449  0.37702981  0.66301215  1
  H+  H156  1  0.34426666  0.13063643  0.67509363  1
  H+  H157  1  0.09739053  0.97643189  0.68282788  1
  H+  H158  1  0.84111488  0.44755838  0.15069924  1
  H+  H159  1  0.88923663  0.85753995  0.32538887  1
  H+  H160  1  0.88052771  0.15239080  0.30766459  1
  H+  H161  1  0.78530912  0.66453207  0.83944251  1
  H+  H162  1  0.27452056  0.12241643  0.85141313  1
  H+  H163  1  0.85757864  0.87393334  0.68377109  1
  H+  H164  1  0.22729377  0.11454119  0.52529758  1
  H+  H165  1  0.44323715  0.80819436  0.48966516  1
  H+  H166  1  0.72500808  0.12196811  0.99739000  1
  H+  H167  1  0.02931853  0.88915195  0.01131952  1
  H+  H168  1  0.63122611  0.84218112  0.16147534  1
  H+  H169  1  0.27211539  0.88247428  0.66438721  1
  H+  H170  1  0.85688249  0.47295020  0.33864458  1
  H+  H171  1  0.23933311  0.87333842  0.83516440  1
  H+  H172  1  0.63658160  0.30713242  0.92045808  1
  H+  H173  1  0.12909095  0.23190935  0.00306053  1
  H+  H174  1  0.29823527  0.89291904  0.33440396  1
  H+  H175  1  0.36771782  0.23852820  1.00969369  1
  H+  H176  1  0.51928794  0.38569257  0.50973403  1
  H+  H177  1  0.94211068  0.52830390  1.04303961  1
  H+  H178  1  0.36444999  0.39127289  -0.00616172  1
  H+  H179  1  0.32691897  0.70512383  0.50254126  1
  H+  H180  1  0.38641179  0.27335259  0.52401605  1
  H+  H181  1  0.36070309  0.13770019  0.50366140  1
  H+  H182  1  0.18720707  0.33448098  0.80765655  1
  H+  H183  1  0.18900705  0.35691776  0.26901834  1
  H+  H184  1  0.62169536  0.21851688  0.15446466  1
  H+  H185  1  0.64007896  0.53478593  0.34406067  1
  H+  H186  1  0.09203900  0.46181780  0.16570714  1
  H+  H187  1  0.76678628  0.38606645  0.33906489  1
  H+  H188  1  0.36166201  0.70341808  0.17717275  1
  H+  H189  1  0.52648960  0.11526393  0.77416238  1
  H+  H190  1  0.90328368  0.14819334  -0.01184546  1
  H+  H191  1  -0.00735091  0.18660693  0.76374423  1
  H+  H192  1  0.17010463  0.35163120  0.61195691  1
  H+  H193  1  0.88879021  0.37179588  0.34278531  1
  H+  H194  1  0.86980151  0.67278989  0.42597880  1
  H+  H195  1  0.69827698  0.60521840  0.52679978  1
  H+  H196  1  0.88890166  0.76085661  0.67089063  1
  H+  H197  1  0.72181565  0.11474255  0.66346550  1
  H+  H198  1  0.85848714  0.88462763  1.00803060  1
  H+  H199  1  0.77882905  0.88723987  0.15687748  1
  H+  H200  1  0.11344879  0.48527333  0.50462847  1
  H+  H201  1  0.89204216  1.02900614  0.32700710  1
  H+  H202  1  0.13547492  0.23244510  0.48630188  1
  H+  H203  1  0.64060653  0.00315041  0.85334449  1
  H+  H204  1  0.38158587  0.77639104  0.83497773  1
  H+  H205  1  0.71653238  0.85828604  0.84485734  1
  H+  H206  1  0.88158529  0.01472762  0.66381030  1
  H+  H207  1  0.38747890  0.29997483  0.34421755  1
  H+  H208  1  0.62627335  0.62744668  0.17304521  1
  H+  H209  1  0.73384889  0.13345605  0.51060180  1
  H+  H210  1  0.56144297  0.48814337  0.13841654  1
  H+  H211  1  0.77212700  0.39608854  0.49926116  1
  H+  H212  1  0.15080061  0.78274785  0.83538613  1
  H+  H213  1  0.96946826  0.36496691  0.98945104  1
  H+  H214  1  0.58394461  0.21506763  0.83844285  1
  H+  H215  1  0.23260412  0.37807403  0.66904110  1
  H+  H216  1  0.11182532  0.48308596  0.67648000  1
  H+  H217  1  0.63335906  -0.01642030  0.38241423  1
  H+  H218  1  0.56130146  0.40304168  0.14632653  1
  H+  H219  1  0.60472787  0.73241911  0.83357491  1
  H+  H220  1  0.02973458  0.64126117  0.67377056  1
  H+  H221  1  0.85780605  0.23179690  0.00248022  1
  H+  H222  1  0.62626099  0.51367031  0.68080482  1
  H+  H223  1  0.38063028  0.91391362  0.00387597  1
  H+  H224  1  0.22588592  0.61030913  0.34034518  1
  H+  H225  1  0.97457745  0.85242118  0.67254507  1
  H+  H226  1  0.52340053  0.76278788  0.40885898  1
  H+  H227  1  0.13874198  0.52367074  0.83345076  1
  H+  H228  1  0.51606199  0.88195104  0.82457107  1
  H+  H229  1  0.13665189  0.86772837  0.65759752  1
  H+  H230  1  0.24155406  0.10781564  0.17854355  1
  H+  H231  1  0.38797634  0.02292803  1.01150847  1
  H+  H232  1  0.83624843  0.00788280  0.85164704  1
  H+  H233  1  0.38601709  0.27224434  0.67554557  1
  H+  H234  1  0.12107269  -0.02355343  1.01153951  1
  H+  H235  1  0.39854455  0.12254836  0.17628528  1
  H+  H236  1  0.58879010  0.11576288  0.68424264  1
  H+  H237  1  0.13710836  0.86351118  0.50307120  1
  H+  H238  1  0.14260740  0.60844326  0.17818498  1
  H+  H239  1  0.88307746  0.10353470  0.17023391  1
  H+  H240  1  0.86464656  0.90001881  0.83838720  1
  H+  H241  1  0.78294847  0.64091306  0.34425530  1
  H+  H242  1  0.12491880  0.36696321  0.83121584  1
  H+  H243  1  0.61724272  0.99137976  0.00946604  1
  H+  H244  1  0.27254354  0.62953847  0.82178582  1
  H+  H245  1  0.84292751  0.37271495  -0.00274033  1
  H+  H246  1  0.19063727  0.12812482  0.85287094  1
  H+  H247  1  0.14865023  0.11597874  0.99863028  1
  H+  H248  1  1.10783612  0.38674248  1.00372682  1
  H+  H249  1  0.52416982  0.40493568  0.35369056  1
  H+  H250  1  0.37868724  0.98510258  0.81616107  1
  H+  H251  1  0.21813819  0.61624160  0.98581417  1
  H+  H252  1  0.44914575  0.64476304  1.05509887  1
  H+  H253  1  0.61263255  0.13875879  1.00399843  1
  H+  H254  1  0.60512396  0.64107310  0.82626759  1
  H+  H255  1  0.59354288  0.74649134  0.02442502  1
  H+  H256  1  0.91364390  0.51964232  0.50816630  1
  H+  H257  1  0.60725730  0.22687445  0.00211136  1
  H+  H258  1  0.16871183  0.83312534  0.93031094  1
  H+  H259  1  0.23721117  0.61225040  0.50863653  1
  H+  H260  1  0.95322440  0.61939210  0.50252066  1
  H+  H261  1  0.36147592  0.23038308  0.17101108  1
  H+  H262  1  0.76592440  0.11776709  0.14810666  1
  H+  H263  1  0.76859138  0.88285822  1.00741086  1
  H+  H264  1  0.89408145  0.03185782  0.48448438  1
  H+  H265  1  0.29407585  0.39347302  0.84954018  1
  H+  H266  1  0.61303646  0.39157349  0.50665841  1
  H+  H267  1  0.22846288  0.37012508  0.98670519  1
  H+  H268  1  0.38753023  0.52154859  0.82068418  1
  H+  H269  1  0.87201285  0.72938833  0.33243349  1
  H+  H270  1  0.61437236  0.89157264  0.67480469  1
  H+  H271  1  0.90561269  0.64192046  0.84113258  1
  H+  H272  1  0.83774993  0.50039882  0.97661199  1
  H+  H273  1  0.39025236  0.77411344  0.65564792  1
  H+  H274  1  0.52804312  0.38359612  0.68913503  1
  H+  H275  1  0.36825857  0.48066604  0.68147534  1
  H+  H276  1  0.98741285  0.63029392  0.84162461  1
  H+  H277  1  0.40620883  0.52242327  0.20578996  1
  H+  H278  1  0.23533289  0.37926798  0.16640913  1
  H+  H279  1  0.22411518  0.86010480  0.50200841  1
  H+  H280  1  0.88955319  0.86830850  0.16247048  1
  H+  H281  1  0.63737265  0.77233272  0.51915165  1
  H+  H282  1  0.60344013  0.30707092  0.81827667  1
  H+  H283  1  0.36918799  0.50227169  0.35061772  1
  H+  H284  1  0.69982654  0.39472099  0.16213365  1
  H+  H285  1  0.17150965  0.79882100  0.33282237  1
  H+  H286  1  0.28195030  0.14656357  1.01670280  1
  H+  H287  1  0.62890185  0.09666510  0.16070936  1
  H+  H288  1  0.42885900  0.82427841  0.23035400  1
  H+  H289  1  0.11863672  0.59222719  0.52008160  1
  H+  H290  1  0.33052416  0.17892683  0.45150974  1
  H+  H291  1  0.85044064  0.21127092  0.15095159  1
  H+  H292  1  0.91340747  0.33329183  0.92793023  1
  H+  H293  1  0.67637248  0.35093465  0.57275724  1
  H+  H294  1  0.27017640  0.63923517  0.66954583  1
  H+  H295  1  0.14681488  0.77091707  0.17425177  1
  H+  H296  1  0.09256263  0.91698681  0.10296041  1
  H+  H297  1  0.66926149  0.58712698  0.92617964  1
  H+  H298  1  0.41971414  0.82293666  0.56044811  1
  H+  H299  1  0.41966622  0.33197582  0.58382753  1
  H+  H300  1  0.26073919  0.14145265  0.68433352  1
  H+  H301  1  0.66387193  0.09014953  0.60433946  1
  H+  H302  1  0.97205840  0.60648534  0.32026614  1
  H+  H303  1  0.34806537  0.63138842  0.12764723  1
  H+  H304  1  0.63794085  0.28709036  0.51374088  1
  H+  H305  1  0.79909128  0.39091532  0.09173229  1
  H+  H306  1  0.57652602  0.67353673  0.73650963  1
  H+  H307  1  0.19463018  0.09616756  0.27592917  1
  H+  H308  1  1.00257195  0.39154950  0.34967978  1
  H+  H309  1  0.30877010  0.64371977  0.41571333  1
  H+  H310  1  0.82661064  0.91343685  0.77624034  1
  H+  H311  1  0.91680595  0.56345333  0.22397327  1
  H+  H312  1  0.82434226  0.59349650  0.71547940  1
  H+  H313  1  0.16731290  0.33610701  0.92832579  1
  H+  H314  1  0.83071986  0.16570002  0.06026871  1
  H+  H315  1  0.66332319  0.09830706  0.26006646  1
  H+  H316  1  0.86839893  0.18245302  0.75150781  1
  H+  H317  1  0.66881773  0.58842106  0.28306363  1
  H+  H318  1  0.03232017  0.64441675  0.00517070  1
  H+  H319  1  0.39100918  0.57485641  0.92920552  1
  H+  H320  1  0.16072049  0.83380445  0.59654909  1
  H+  H321  1  0.56727274  0.42117190  0.04761932  1
  H+  H322  1  0.58888656  0.41914415  0.74840835  1
  H+  H323  1  0.58376258  0.17716033  0.44252495  1
  H+  H324  1  0.82662863  0.41806682  0.43748282  1
  H+  H325  1  0.17027699  0.58252398  0.89315090  1
  H+  H326  1  0.94105789  0.58074030  0.59615401  1
  H+  H327  1  0.40248653  0.08306217  0.60045603  1
  H+  H328  1  0.67419230  0.83651174  0.60911609  1
  H+  H329  1  0.11993986  0.18195818  0.10183874  1
  H+  H330  1  0.41248311  0.33508472  0.92763904  1
  H+  H331  1  0.58059426  0.68864696  0.08590538  1
  H+  H332  1  0.11685690  0.98131367  0.50486401  1
  H+  H333  1  0.91358350  0.83074853  0.26252157  1
  H+  H334  1  0.47419021  0.11499427  0.50821200  1
  H+  H335  1  0.33995255  0.42127295  0.74134746  1
  H+  H336  1  0.42872705  0.59619045  0.28879743  1
  H+  H337  1  0.40650960  0.35035330  0.28115164  1
  H+  H338  1  0.16319925  0.58550164  0.28059835  1
  H+  H339  1  0.82981450  0.66077432  0.06055696  1
  H+  H340  1  0.91740880  0.34020597  0.56872203  1
  H+  H341  1  0.35168492  0.53202920  0.92344258  1
  H+  H342  1  0.06625443  0.41215214  0.10280307  1
  H+  H343  1  0.87648809  0.36050626  0.66171797  1
  H+  H344  1  0.65099751  0.76944550  0.17968012  1
  H+  H345  1  0.65515765  0.82833906  0.93777916  1
  H+  H346  1  0.48514505  0.11771400  0.17505015  1
  H+  H347  1  0.56113053  0.87633964  0.08246390  1
  H+  H348  1  0.73779245  0.05368620  0.87462028  1
  H+  H349  1  0.50841541  0.90248035  0.30818157  1
  H+  H350  1  0.15131026  0.08828345  0.60943578  1
  H+  H351  1  0.35547619  0.93442408  0.07141193  1
  H+  H352  1  0.67278830  0.51086052  0.19210295  1
  H+  H353  1  0.16253025  0.57778372  0.60090181  1
  H+  H354  1  0.57331552  0.89481427  0.45967815  1
  H+  H355  1  0.29705856  0.71472808  0.05445472  1
  H+  H356  1  0.52748925  0.90586808  -0.00411237  1
  H+  H357  1  0.19208409  0.08812138  0.94560718  1
  H+  H358  1  0.48127218  0.62255206  0.35253821  1
  H+  H359  1  0.08373737  0.43022567  0.41262634  1
  H+  H360  1  0.32857939  0.66652154  0.75866930  1
  H+  H361  1  0.09218517  0.15236210  0.69886543  1
  H+  H362  1  0.41582043  0.08946922  0.26674154  1
  H+  H363  1  0.63362249  0.37319095  0.33454770  1
  H+  H364  1  0.10784308  0.47508359  1.00145580  1
  H+  H365  1  0.65178185  0.37950994  0.22513709  1
  H+  H366  1  0.08754883  0.92137720  0.74194486  1
  H+  H367  1  0.66534448  0.07653512  0.93992385  1
  H+  H368  1  0.88994489  0.01972018  0.17156144  1
  H+  H369  1  0.09681140  0.66706582  0.09769451  1
  H+  H370  1  0.34905018  0.17241106  0.77225196  1
  H+  H371  1  0.57987360  0.91469886  0.76715838  1
  H+  H372  1  0.68335158  0.85509807  0.26308502  1
  H+  H373  1  0.14132459  0.11788605  0.51577122  1
  H+  H374  1  0.84534126  0.91616061  0.40008561  1
  H+  H375  1  0.65267200  0.86810052  0.51841630  1
  H+  H376  1  0.18636381  0.84402320  0.26690506  1
  H+  H377  1  0.57360187  0.66243104  0.42391439  1
  H+  H378  1  0.83871958  0.68910044  0.77953810  1
  H+  H379  1  0.87314434  0.88260690  0.49738895  1
  H+  H380  1  0.33864051  0.91634543  0.43293323  1
  H+  H381  1  0.92191276  0.08071158  0.26403598  1
  H+  H382  1  0.88175306  0.56876618  0.92089249  1
  H+  H383  1  0.63103665  0.28423533  0.32788270  1
  O2-  O384  1  0.13249834  0.19091487  0.14585009  1
  O2-  O385  1  0.10342793  0.17046699  0.47839675  1
  O2-  O386  1  0.04755657  0.18582130  0.76065241  1
  O2-  O387  1  0.05718456  0.40446260  0.14726700  1
  O2-  O388  1  0.08313291  0.42317960  0.48209890  1
  O2-  O389  1  0.08193034  0.42167018  0.81165407  1
  O2-  O390  1  0.09606607  0.66415591  0.14311381  1
  O2-  O391  1  0.09187741  0.69027778  0.43054291  1
  O2-  O392  1  0.09788805  0.67938048  0.81264038  1
  O2-  O393  1  0.09015207  0.91690968  0.14863662  1
  O2-  O394  1  0.09088474  0.92322572  0.48584356  1
  O2-  O395  1  0.09950169  0.92751413  0.81961873  1
  O2-  O396  1  0.34753117  0.17433210  0.15264852  1
  O2-  O397  1  0.32965101  0.17036629  0.49627856  1
  O2-  O398  1  0.36426591  0.17729674  0.81628361  1
  O2-  O399  1  0.35005222  0.43542486  0.07360628  1
  O2-  O400  1  0.32372844  0.41351949  0.50768302  1
  O2-  O401  1  0.34668363  0.41908652  0.82525509  1
  O2-  O402  1  0.33531809  0.63986379  0.17050924  1
  O2-  O403  1  0.30193158  0.64414980  0.49174233  1
  O2-  O404  1  0.33333609  0.66117533  0.80477956  1
  O2-  O405  1  0.34615064  0.91915986  0.14995726  1
  O2-  O406  1  0.33303250  0.91657353  0.47797962  1
  O2-  O407  1  0.34090628  0.92061708  0.80462001  1
  O2-  O408  1  0.58564346  0.15985004  0.13998519  1
  O2-  O409  1  0.57980276  0.17567145  0.48762711  1
  O2-  O410  1  0.52022524  0.11351469  0.82061977  1
  O2-  O411  1  0.52723443  0.42708707  0.12813453  1
  O2-  O412  1  0.57938866  0.42092763  0.49320314  1
  O2-  O413  1  0.58587978  0.43259915  0.82294136  1
  O2-  O414  1  0.59620410  0.65843714  0.16062302  1
  O2-  O415  1  0.56750090  0.66377474  0.50028461  1
  O2-  O416  1  0.57353250  0.67244659  0.81491363  1
  O2-  O417  1  0.54502930  0.83336146  0.11653721  1
  O2-  O418  1  0.60037955  0.92786010  0.49746913  1
  O2-  O419  1  0.57771347  0.90754683  0.81235933  1
  O2-  O420  1  0.82611103  0.15113280  0.13369151  1
  O2-  O421  1  0.82533568  0.17601692  0.48297350  1
  O2-  O422  1  0.90180526  0.19480119  0.79058994  1
  O2-  O423  1  0.79477266  0.39030429  0.13742946  1
  O2-  O424  1  0.83209306  0.42206963  0.48240996  1
  O2-  O425  1  0.81457902  0.37420566  0.80347709  1
  O2-  O426  1  0.84892121  0.67340764  0.17203813  1
  O2-  O427  1  0.88145256  0.67280997  0.47084499  1
  O2-  O428  1  0.84474405  0.69900480  0.82409234  1
  O2-  O429  1  0.83860991  0.91606388  0.14104207  1
  O2-  O430  1  0.84257228  0.91089285  0.47987563  1
  O2-  O431  1  0.82171836  0.91440360  0.82173719  1
  O2-  O432  1  0.18286421  0.08053651  0.19639251  1
  O2-  O433  1  0.16540737  0.08491657  0.53767009  1
  O2-  O434  1  0.21370379  0.09336777  0.86918559  1
  O2-  O435  1  0.23005008  0.33636970  0.19584361  1
  O2-  O436  1  0.14088975  0.33046592  0.53108466  1
  O2-  O437  1  0.15436734  0.33261914  0.84352783  1
  O2-  O438  1  0.16193910  0.57267560  0.20026845  1
  O2-  O439  1  0.15242456  0.56616499  0.53273543  1
  O2-  O440  1  0.17481994  0.58505463  0.84766735  1
  O2-  O441  1  0.17506517  0.83120028  0.18935643  1
  O2-  O442  1  0.16261061  0.82683627  0.51461166  1
  O2-  O443  1  0.17904169  0.84319309  0.85128542  1
  O2-  O444  1  0.42605214  0.08962309  0.19245392  1
  O2-  O445  1  0.41218832  0.08340235  0.52099002  1
  O2-  O446  1  0.42915886  0.08050757  0.83235861  1
  O2-  O447  1  0.37811909  0.32971252  0.20460452  1
  O2-  O448  1  0.41849995  0.33436503  0.53830329  1
  O2-  O449  1  0.42945569  0.34174136  0.85453518  1
  O2-  O450  1  0.43551760  0.58413527  0.21295411  1
  O2-  O451  1  0.40076749  0.58076274  0.53147269  1
  O2-  O452  1  0.41313425  0.58378963  0.80826175  1
  O2-  O453  1  0.41240843  0.81272735  0.18664761  1
  O2-  O454  1  0.40908448  0.82460196  0.51561768  1
  O2-  O455  1  0.41235410  0.83678496  0.84857424  1
  O2-  O456  1  0.65983414  0.06859926  0.17870335  1
  O2-  O457  1  0.67092052  0.10215246  0.52550188  1
  O2-  O458  1  0.68321162  0.05500834  0.87570507  1
  O2-  O459  1  0.65310112  0.39988736  0.18313086  1
  O2-  O460  1  0.66910048  0.34885279  0.52519637  1
  O2-  O461  1  0.62464546  0.27869425  0.84522818  1
  O2-  O462  1  0.67944448  0.56903723  0.19617705  1
  O2-  O463  1  0.64042815  0.57069036  0.54289489  1
  O2-  O464  1  0.66154469  0.59176923  0.82691245  1
  O2-  O465  1  0.67264223  0.83191293  0.18496928  1
  O2-  O466  1  0.67796710  0.83274613  0.53184005  1
  O2-  O467  1  0.65536734  0.82751524  0.85919682  1
  O2-  O468  1  0.91420729  0.07772369  0.18997591  1
  O2-  O469  1  0.91839876  0.09416360  0.47928236  1
  O2-  O470  1  0.83808842  0.06035192  0.86866028  1
  O2-  O471  1  0.89072111  0.30519851  0.18026979  1
  O2-  O472  1  0.92081352  0.34246866  0.52238945  1
  O2-  O473  1  0.92086543  0.33497960  0.85213596  1
  O2-  O474  1  0.91971779  0.55898751  0.17893505  1
  O2-  O475  1  0.95926841  0.57562754  0.52495013  1
  O2-  O476  1  0.92577994  0.60207807  0.85258770  1
  O2-  O477  1  0.91916128  0.83671290  0.17858454  1
  O2-  O478  1  0.92405014  0.82774565  0.52705401  1
  O2-  O479  1  0.93422973  0.86421095  0.86287101  1
  O2-  O480  1  0.19859889  0.10273933  0.32105726  1
  O2-  O481  1  0.14340536  0.09016541  0.65566183  1
  O2-  O482  1  0.18224919  0.08605835  0.99047579  1
  O2-  O483  1  0.18804181  0.36817730  0.31303068  1
  O2-  O484  1  0.17174099  0.35320353  0.65680719  1
  O2-  O485  1  0.16728670  0.33558643  0.97328065  1
  O2-  O486  1  0.16325584  0.58705193  0.32599788  1
  O2-  O487  1  0.17071580  0.58548886  0.64796681  1
  O2-  O488  1  0.15888814  0.57855480  0.97046934  1
  O2-  O489  1  0.19909374  0.85525609  0.31136560  1
  O2-  O490  1  0.16511571  0.83639824  0.64191084  1
  O2-  O491  1  0.16240126  0.82438919  0.97516968  1
  O2-  O492  1  0.40103350  0.08386106  0.31168057  1
  O2-  O493  1  0.39642352  0.08150161  0.64563010  1
  O2-  O494  1  0.41925852  0.09301401  0.99443698  1
  O2-  O495  1  0.41491004  0.35937626  0.32610672  1
  O2-  O496  1  0.42237167  0.33313672  0.66204807  1
  O2-  O497  1  0.40944039  0.33829271  0.97362529  1
  O2-  O498  1  0.42073072  0.59387907  0.33374791  1
  O2-  O499  1  0.40908230  0.58200429  0.65246008  1
  O2-  O500  1  0.38466736  0.61220364  1.06035781  1
  O2-  O501  1  0.45109698  0.85208434  0.31015881  1
  O2-  O502  1  0.42139446  0.83248151  0.63663460  1
  O2-  O503  1  0.42216971  0.86068149  0.96937799  1
  O2-  O504  1  0.67368491  0.11980601  0.30222059  1
  O2-  O505  1  0.66056764  0.08238832  0.64953454  1
  O2-  O506  1  0.66276264  0.09036784  0.98519530  1
  O2-  O507  1  0.66079900  0.34455494  0.31230123  1
  O2-  O508  1  0.68676373  0.35318722  0.63916259  1
  O2-  O509  1  0.64440804  0.31837564  0.96538192  1
  O2-  O510  1  0.67078536  0.59489594  0.32773758  1
  O2-  O511  1  0.65646843  0.57657737  0.66635976  1
  O2-  O512  1  0.66108203  0.57931888  0.97005541  1
  O2-  O513  1  0.68808564  0.86085455  0.30816955  1
  O2-  O514  1  0.66904776  0.83700950  0.65454175  1
  O2-  O515  1  0.65706245  0.83243087  0.98319075  1
  O2-  O516  1  0.92252021  0.08818574  0.30981450  1
  O2-  O517  1  0.90671157  0.07143083  0.64377740  1
  O2-  O518  1  0.94926787  0.14337599  0.96461896  1
  O2-  O519  1  0.93180694  0.35361190  0.33174983  1
  O2-  O520  1  0.91147134  0.33151415  0.64165945  1
  O2-  O521  1  0.90931100  0.33299561  0.97383997  1
  O2-  O522  1  0.91367865  0.57866935  0.30413715  1
  O2-  O523  1  0.93146737  0.58754415  0.64096419  1
  O2-  O524  1  0.85136589  0.55735576  0.96102876  1
  O2-  O525  1  0.91008958  0.82047038  0.30686092  1
  O2-  O526  1  0.91509731  0.81970878  0.65510013  1
  O2-  O527  1  0.92429700  0.83929285  0.98642420  1
  O2-  O528  1  0.10024151  0.17221576  0.01949004  1
  O2-  O529  1  0.08663399  0.15803744  0.36239445  1
  O2-  O530  1  0.09502042  0.13670107  0.65560243  1
  O2-  O531  1  0.07599728  0.41539618  0.01793444  1
  O2-  O532  1  0.07967551  0.43028114  0.36528588  1
  O2-  O533  1  0.08005722  0.42308535  0.69288218  1
  O2-  O534  1  0.09297808  0.67209453  0.01604795  1
  O2-  O535  1  0.15475083  0.71780669  0.38115420  1
  O2-  O536  1  0.09003457  0.67294700  0.68982400  1
  O2-  O537  1  0.09039672  0.91552699  0.02544105  1
  O2-  O538  1  0.12873806  0.94854580  0.36257534  1
  O2-  O539  1  0.07895417  0.91731852  0.69661183  1
  O2-  O540  1  0.34403290  0.18123423  0.02989970  1
  O2-  O541  1  0.34562061  0.19985351  0.37179725  1
  O2-  O542  1  0.32173503  0.16553004  0.69558700  1
  O2-  O543  1  0.33632734  0.42646323  0.00721625  1
  O2-  O544  1  0.33192522  0.43689704  0.36048744  1
  O2-  O545  1  0.34008244  0.41979735  0.69645753  1
  O2-  O546  1  0.31530055  0.70011570  0.01670990  1
  O2-  O547  1  0.31446602  0.65188833  0.37039481  1
  O2-  O548  1  0.33126371  0.67125776  0.68623325  1
  O2-  O549  1  0.35590597  0.94520364  0.02683950  1
  O2-  O550  1  0.35783608  0.91904639  0.35269897  1
  O2-  O551  1  0.33276067  0.91408505  0.67912388  1
  O2-  O552  1  0.58104013  0.16811389  0.02145316  1
  O2-  O553  1  0.58387776  0.17953785  0.36052746  1
  O2-  O554  1  0.55237788  0.13504322  0.70498977  1
  O2-  O555  1  0.57451209  0.41780894  0.00349265  1
  O2-  O556  1  0.58407201  0.42910780  0.36864687  1
  O2-  O557  1  0.58908234  0.41892065  0.70240924  1
  O2-  O558  1  0.55138465  0.70587244  0.05553141  1
  O2-  O559  1  0.57186427  0.66842442  0.37873585  1
  O2-  O560  1  0.57660411  0.66966828  0.69116084  1
  O2-  O561  1  0.58387040  0.92722067  0.01678783  1
  O2-  O562  1  0.50224611  0.80230982  0.41761858  1
  O2-  O563  1  0.58028918  0.91873375  0.68805525  1
  O2-  O564  1  0.83032477  0.16966985  0.01445743  1
  O2-  O565  1  0.85679048  0.19232874  0.29935685  1
  O2-  O566  1  0.83172535  0.16655235  0.67978712  1
  O2-  O567  1  0.80594378  0.39533149  0.01324703  1
  O2-  O568  1  0.82664981  0.41397945  0.35582030  1
  O2-  O569  1  0.83076754  0.39728620  0.68778702  1
  O2-  O570  1  0.82577873  0.66718390  0.01689032  1
  O2-  O571  1  0.84629516  0.66797094  0.35016254  1
  O2-  O572  1  0.81733209  0.64229148  0.70443831  1
  O2-  O573  1  0.82818584  0.91450866  0.02300205  1
  O2-  O574  1  0.84868059  0.92011886  0.35477970  1
  O2-  O575  1  0.83042550  0.90649757  0.69941631  1
