# generated using pymatgen
data_H2O
_symmetry_space_group_name_H-M   'P 1'
_cell_length_a   17.98997794
_cell_length_b   17.99869301
_cell_length_c   21.99578863
_cell_angle_alpha   90.00832218
_cell_angle_beta   90.00672490
_cell_angle_gamma   119.99199857
_symmetry_Int_Tables_number   1
_chemical_formula_structural   H2O
_chemical_formula_sum   'H384 O192'
_cell_volume   6168.46017693
_cell_formula_units_Z   192
loop_
 _symmetry_equiv_pos_site_id
 _symmetry_equiv_pos_as_xyz
  1  'x, y, z'
loop_
 _atom_type_symbol
 _atom_type_oxidation_number
  H+  1.0
  O2-  -2.0
loop_
 _atom_site_type_symbol
 _atom_site_label
 _atom_site_symmetry_multiplicity
 _atom_site_fract_x
 _atom_site_fract_y
 _atom_site_fract_z
 _atom_site_occupancy
  H+  H0  1  0.16528100  0.74060543  -0.01100170  1
  H+  H1  1  0.62380179  0.63133262  0.16701088  1
  H+  H2  1  0.02113866  0.14167526  0.17167957  1
  H+  H3  1  0.56714093  0.66272615  0.64596297  1
  H+  H4  1  0.73224992  0.62324267  0.84268843  1
  H+  H5  1  0.26269566  0.57229275  0.13891541  1
  H+  H6  1  0.54173967  0.64612782  0.49753192  1
  H+  H7  1  0.62380534  0.22713848  0.65913847  1
  H+  H8  1  0.86297688  0.38055069  0.00405536  1
  H+  H9  1  0.86045471  0.89041513  0.01276746  1
  H+  H10  1  0.52517410  0.14605751  0.49448645  1
  H+  H11  1  0.09925318  0.46683966  0.49717811  1
  H+  H12  1  0.78159042  0.13510704  1.01108399  1
  H+  H13  1  0.36645238  0.89919949  0.49206156  1
  H+  H14  1  0.02012320  0.13927006  0.34936377  1
  H+  H15  1  0.86213001  0.23218511  0.66561409  1
  H+  H16  1  0.62404532  0.85223148  0.82456479  1
  H+  H17  1  0.38311841  0.74190786  0.11784511  1
  H+  H18  1  0.46516206  0.86092334  0.66615826  1
  H+  H19  1  0.13761370  0.89006328  -0.00102921  1
  H+  H20  1  0.18115646  0.64897070  0.86328531  1
  H+  H21  1  0.97949839  0.36011847  0.17475057  1
  H+  H22  1  0.43148795  0.81094418  0.32432743  1
  H+  H23  1  0.13025701  0.15230142  0.82224553  1
  H+  H24  1  0.77755730  0.64436399  0.35184786  1
  H+  H25  1  0.63243532  1.00892754  0.33822697  1
  H+  H26  1  0.36233531  0.15563767  0.34190483  1
  H+  H27  1  0.64583082  0.37798955  0.16928906  1
  H+  H28  1  0.62622875  0.48102011  0.83736955  1
  H+  H29  1  0.41664603  0.12075547  0.16573845  1
  H+  H30  1  0.35753197  0.45440556  0.72499082  1
  H+  H31  1  0.13935876  0.86893462  0.49824527  1
  H+  H32  1  0.88162643  0.87633280  0.64551396  1
  H+  H33  1  0.96708538  0.33555383  0.84011644  1
  H+  H34  1  0.83338126  0.95947927  0.82237521  1
  H+  H35  1  0.41343817  0.58231393  0.56471871  1
  H+  H36  1  0.23752823  0.37638892  0.50872841  1
  H+  H37  1  0.19890511  0.60908820  0.45764232  1
  H+  H38  1  0.42121844  0.83367595  0.90422556  1
  H+  H39  1  0.47744237  0.61225687  0.83946330  1
  H+  H40  1  0.53034697  0.91372362  0.33540650  1
  H+  H41  1  -0.00937210  0.60787502  0.17183658  1
  H+  H42  1  0.10811580  0.72929015  0.34085608  1
  H+  H43  1  0.12373400  0.72929524  0.15806915  1
  H+  H44  1  0.53415573  0.39883351  0.16047466  1
  H+  H45  1  0.35231650  0.94521560  0.74868138  1
  H+  H46  1  0.41738707  0.70973973  0.38911876  1
  H+  H47  1  0.88274292  0.35587166  0.50646836  1
  H+  H48  1  0.63130670  0.64646752  0.50321922  1
  H+  H49  1  0.90365016  0.83659116  0.25030396  1
  H+  H50  1  1.02403642  0.62577060  1.01105824  1
  H+  H51  1  1.01155454  0.89304623  0.65409402  1
  H+  H52  1  0.89564957  0.50523594  0.85290590  1
  H+  H53  1  0.59203765  0.12412372  0.34085542  1
  H+  H54  1  0.65052826  0.11352338  -0.00766934  1
  H+  H55  1  0.01450233  0.88266448  0.17554069  1
  H+  H56  1  0.11132433  0.41002570  0.68336606  1
  H+  H57  1  0.22076577  0.10971725  -0.01368044  1
  H+  H58  1  0.63640550  0.36239500  0.84735484  1
  H+  H59  1  0.09999452  0.84770899  1.00835142  1
  H+  H60  1  0.38271123  0.35173843  0.67432408  1
  H+  H61  1  0.38320264  0.59644610  0.15441882  1
  H+  H62  1  0.88832551  0.35550257  0.17402213  1
  H+  H63  1  0.48771207  0.38215908  0.33070889  1
  H+  H64  1  0.10337916  0.97107491  0.17097083  1
  H+  H65  1  0.87845312  0.66058448  0.82930025  1
  H+  H66  1  0.38262215  -0.04096745  1.00903231  1
  H+  H67  1  0.11379735  0.87638004  0.34103058  1
  H+  H68  1  0.88782162  0.36198351  0.65490363  1
  H+  H69  1  0.14988829  0.30403106  0.66237112  1
  H+  H70  1  0.08508931  0.63259150  0.50507762  1
  H+  H71  1  0.61901247  0.26491897  0.85530286  1
  H+  H72  1  0.67816407  0.82811012  0.23093628  1
  H+  H73  1  0.48124411  0.37332711  0.51210131  1
  H+  H74  1  0.72423041  0.36213690  0.32784333  1
  H+  H75  1  0.60077129  0.98457072  0.66853814  1
  H+  H76  1  0.35549025  0.59801194  0.66574027  1
  H+  H77  1  0.39818325  0.27230427  0.19402807  1
  H+  H78  1  0.37884369  0.91455351  0.84262924  1
  H+  H79  1  0.16826397  0.57621646  0.81695950  1
  H+  H80  1  0.12643638  0.23271911  0.49849003  1
  H+  H81  1  0.88966320  0.23293992  0.48596704  1
  H+  H82  1  0.87952751  0.86714349  0.83505762  1
  H+  H83  1  0.50007862  0.09880356  0.99141883  1
  H+  H84  1  0.64356292  0.78477374  0.51278263  1
  H+  H85  1  0.12307421  0.26020249  0.33816081  1
  H+  H86  1  0.75647912  0.35406678  0.81677358  1
  H+  H87  1  0.87022135  0.13465983  0.48700643  1
  H+  H88  1  0.37687229  0.98287186  0.15226138  1
  H+  H89  1  0.66516872  0.33217676  0.93495415  1
  H+  H90  1  0.39265831  0.84304598  -0.00373145  1
  H+  H91  1  0.36995210  0.40741446  0.00392774  1
  H+  H92  1  0.88881029  0.78179767  0.98506917  1
  H+  H93  1  0.53025543  0.37114214  0.66665308  1
  H+  H94  1  0.10244415  0.90276232  0.80152126  1
  H+  H95  1  0.39585793  1.03176481  0.66432585  1
  H+  H96  1  0.37813780  0.13709949  0.67954328  1
  H+  H97  1  0.27020782  0.38177840  0.69534035  1
  H+  H98  1  0.61284888  0.09858747  0.84745590  1
  H+  H99  1  0.86902670  0.22472273  0.33475714  1
  H+  H100  1  0.96260154  0.59540589  0.63297661  1
  H+  H101  1  0.39720834  0.52855470  0.50349127  1
  H+  H102  1  0.08602976  0.99569060  0.02140134  1
  H+  H103  1  0.34881121  0.72474171  0.14197740  1
  H+  H104  1  0.11874517  0.23886639  1.00336124  1
  H+  H105  1  0.92403697  0.72353976  0.13338206  1
  H+  H106  1  0.09220451  0.66469460  0.10026033  1
  H+  H107  1  0.01349391  0.36774846  0.34348431  1
  H+  H108  1  0.01872087  0.37424880  0.00815672  1
  H+  H109  1  0.34844512  0.71184234  0.68366843  1
  H+  H110  1  0.01356885  0.89829650  0.81715965  1
  H+  H111  1  0.15292063  0.32513167  0.27694430  1
  H+  H112  1  0.25859209  0.82813174  0.98940747  1
  H+  H113  1  0.96636789  0.60347302  0.32986151  1
  H+  H114  1  0.42795488  0.35337202  0.27055656  1
  H+  H115  1  0.15054559  0.08806383  0.90036489  1
  H+  H116  1  0.33829382  0.12769731  -0.07532962  1
  H+  H117  1  0.37626935  0.16067643  0.77017185  1
  H+  H118  1  0.77842559  0.91025390  0.66549781  1
  H+  H119  1  0.87747222  0.02176084  0.49903319  1
  H+  H120  1  0.14182267  0.86434193  0.17148451  1
  H+  H121  1  0.84183736  0.16324508  1.07344009  1
  H+  H122  1  0.01293298  0.37666425  0.49895985  1
  H+  H123  1  0.16313550  0.08736338  0.23448626  1
  H+  H124  1  0.67236508  0.09444238  0.27235776  1
  H+  H125  1  0.20438506  0.60850730  0.49165524  1
  H+  H126  1  0.39185457  0.28497876  0.51049886  1
  H+  H127  1  0.88695389  0.11779803  1.00689416  1
  H+  H128  1  0.62310419  1.01567409  0.83698092  1
  H+  H129  1  0.89285442  1.00425542  0.35642400  1
  H+  H130  1  0.27363493  0.89073949  0.48916489  1
  H+  H131  1  0.28096010  0.14841238  0.49266863  1
  H+  H132  1  0.08607786  0.59695004  0.31792134  1
  H+  H133  1  0.10624918  0.61174776  1.00770667  1
  H+  H134  1  0.36475661  0.03365547  0.31736012  1
  H+  H135  1  0.86187763  0.46928896  0.00433302  1
  H+  H136  1  0.37233886  0.39633721  0.49625548  1
  H+  H137  1  0.62087443  0.58003267  0.65944712  1
  H+  H138  1  0.72512468  0.35994324  0.99479994  1
  H+  H139  1  0.12587669  0.14409566  0.49397026  1
  H+  H140  1  0.89214419  0.52257342  0.82273353  1
  H+  H141  1  0.72110584  0.60968777  0.66042729  1
  H+  H142  1  0.54491514  0.63584141  0.31249524  1
  H+  H143  1  0.61762070  0.48275756  0.49448800  1
  H+  H144  1  0.12557923  0.27147045  0.18343343  1
  H+  H145  1  0.40287774  0.65515024  0.49183028  1
  H+  H146  1  0.23467273  0.86963959  0.17068571  1
  H+  H147  1  0.64865563  0.35688156  0.49908156  1
  H+  H148  1  0.36776365  0.89817038  0.69349151  1
  H+  H149  1  0.10964252  0.35827408  0.34476133  1
  H+  H150  1  0.53649238  0.90063861  0.16821938  1
  H+  H151  1  0.74026529  0.12633561  0.33006472  1
  H+  H152  1  0.03046196  0.14850824  0.00711559  1
  H+  H153  1  0.89752486  1.04220825  0.66081443  1
  H+  H154  1  0.65045308  0.80518820  0.66157282  1
  H+  H155  1  0.60476491  0.89838226  0.66831428  1
  H+  H156  1  0.62158066  0.49267928  0.16307388  1
  H+  H157  1  0.25009409  0.35727104  0.16387148  1
  H+  H158  1  0.48754000  0.38175880  -0.00612537  1
  H+  H159  1  0.64203717  0.76406389  0.17098859  1
  H+  H160  1  0.84920474  0.73841338  0.66609274  1
  H+  H161  1  0.83991281  0.13402017  0.81525916  1
  H+  H162  1  0.26819678  0.37864672  0.34653447  1
  H+  H163  1  0.75010606  0.86764570  0.81595267  1
  H+  H164  1  0.40613835  0.08108740  0.97452920  1
  H+  H165  1  0.83119208  0.92095034  0.72584821  1
  H+  H166  1  0.14179604  0.12841961  0.99607944  1
  H+  H167  1  0.62736502  -0.00193557  0.48788259  1
  H+  H168  1  0.71813862  0.11087020  0.65357740  1
  H+  H169  1  0.86238876  0.45921874  0.34176771  1
  H+  H170  1  0.14761150  0.02951099  0.49966772  1
  H+  H171  1  0.49813431  0.14380309  0.83003163  1
  H+  H172  1  1.05488584  0.17338016  0.80548255  1
  H+  H173  1  0.87198045  0.21732470  0.16113925  1
  H+  H174  1  0.21278877  0.60354946  0.35541511  1
  H+  H175  1  0.12585601  0.03512569  0.83734368  1
  H+  H176  1  0.62002310  0.48184130  0.33858766  1
  H+  H177  1  0.41894650  0.79125524  0.50750024  1
  H+  H178  1  0.47949380  0.58840568  0.66805180  1
  H+  H179  1  0.23168104  0.37200136  0.99066468  1
  H+  H180  1  0.66144869  0.84151059  -0.01270016  1
  H+  H181  1  0.15633109  0.85952153  0.87020374  1
  H+  H182  1  1.02962730  0.89212767  0.49014608  1
  H+  H183  1  0.14408527  0.61063511  0.16778517  1
  H+  H184  1  0.61561102  0.39113349  0.34077614  1
  H+  H185  1  0.88889008  0.12580467  0.65706348  1
  H+  H186  1  0.37926579  0.89967500  0.17077219  1
  H+  H187  1  0.13406775  0.10895981  0.17270426  1
  H+  H188  1  -0.03273689  0.87893633  -0.00342762  1
  H+  H189  1  0.42321155  0.34133894  0.88961537  1
  H+  H190  1  0.01723722  0.51419723  0.56690812  1
  H+  H191  1  0.89952175  0.60245425  0.17018710  1
  H+  H192  1  0.38487261  0.64763960  0.83218678  1
  H+  H193  1  0.27862734  0.62643044  -0.00024768  1
  H+  H194  1  0.36265996  0.13619690  0.24175616  1
  H+  H195  1  0.13398058  0.77719230  0.49931178  1
  H+  H196  1  0.54117580  0.90702386  0.47868637  1
  H+  H197  1  0.34374582  0.18694364  0.43565624  1
  H+  H198  1  0.39084405  0.30553640  0.99382420  1
  H+  H199  1  0.88247828  0.78618580  0.34136363  1
  H+  H200  1  0.28415377  0.89594419  0.83835562  1
  H+  H201  1  0.88937224  0.35860556  0.32890806  1
  H+  H202  1  0.17081184  0.82984271  0.26434714  1
  H+  H203  1  0.34618471  0.90886171  0.07322179  1
  H+  H204  1  0.25980519  0.63045666  0.36272823  1
  H+  H205  1  0.82123379  0.17155554  0.72353260  1
  H+  H206  1  0.62182119  0.22596357  0.00022863  1
  H+  H207  1  0.90216126  0.87918166  0.48012949  1
  H+  H208  1  0.32524463  0.66760681  0.47062763  1
  H+  H209  1  0.17588665  0.34040100  0.92976334  1
  H+  H210  1  0.50613633  0.12818097  0.14647794  1
  H+  H211  1  0.63783109  0.24830672  0.15490494  1
  H+  H212  1  0.14982932  0.02309883  0.64846729  1
  H+  H213  1  0.38387947  1.03283721  0.50465086  1
  H+  H214  1  0.39412649  0.65951706  0.32629998  1
  H+  H215  1  0.62636348  1.02021433  0.17965459  1
  H+  H216  1  1.02767051  0.88164667  0.34333322  1
  H+  H217  1  0.72872365  0.71702954  0.38302583  1
  H+  H218  1  0.88976879  0.11272836  0.32792052  1
  H+  H219  1  0.11627331  0.85430518  0.64877630  1
  H+  H220  1  0.61199301  0.38136726  1.00910767  1
  H+  H221  1  0.13060420  0.36347537  0.18304570  1
  H+  H222  1  0.61963737  0.45693369  0.66162706  1
  H+  H223  1  0.10658635  0.62600270  0.77272835  1
  H+  H224  1  0.58803289  0.42085813  0.06769327  1
  H+  H225  1  0.62043741  0.59232046  0.99758184  1
  H+  H226  1  0.00366779  0.63519901  0.48568705  1
  H+  H227  1  0.78775275  0.72075405  0.04373447  1
  H+  H228  1  0.87410826  0.47043472  0.15820641  1
  H+  H229  1  0.38727840  0.53454465  -0.01254523  1
  H+  H230  1  0.50842824  0.59498933  0.29988003  1
  H+  H231  1  0.37211411  0.22246566  0.68715560  1
  H+  H232  1  0.61958011  0.23417282  0.48851895  1
  H+  H233  1  0.87057487  0.59955585  0.48966114  1
  H+  H234  1  0.63115765  0.11618049  0.65675268  1
  H+  H235  1  0.85381535  0.87996760  0.17059898  1
  H+  H236  1  0.88381741  0.61144442  1.00039109  1
  H+  H237  1  0.37268100  0.24998446  0.34296187  1
  H+  H238  1  0.34617874  0.51309198  0.31611198  1
  H+  H239  1  0.72144221  0.60885393  0.17708870  1
  H+  H240  1  0.38746483  0.12378497  0.50696339  1
  H+  H241  1  0.03334455  0.16792218  0.66500223  1
  H+  H242  1  0.61414445  0.63162464  0.82046354  1
  H+  H243  1  0.68745663  0.79305892  0.32985851  1
  H+  H244  1  0.36413694  0.39349798  0.34105412  1
  H+  H245  1  0.87745624  0.50219382  0.63867722  1
  H+  H246  1  0.90277274  0.88271612  0.34179922  1
  H+  H247  1  0.74915421  0.13036652  0.82043975  1
  H+  H248  1  0.64545498  0.97351027  0.00725256  1
  H+  H249  1  0.26106646  0.29773146  0.11876553  1
  H+  H250  1  0.56513620  0.04649022  0.21034595  1
  H+  H251  1  0.85723612  0.67958260  0.53510419  1
  H+  H252  1  0.64059653  0.51649150  0.99019343  1
  H+  H253  1  0.32672380  0.50247070  0.64348387  1
  H+  H254  1  0.62904586  0.11602827  0.50126660  1
  H+  H255  1  0.74900729  0.63419990  0.00762206  1
  H+  H256  1  0.53693024  0.39256275  0.83189492  1
  H+  H257  1  0.29796139  0.65157499  0.83566572  1
  H+  H258  1  0.87320338  0.98326410  0.02577945  1
  H+  H259  1  0.88097343  0.13373625  0.16388154  1
  H+  H260  1  0.85141504  0.45522113  0.48288102  1
  H+  H261  1  0.12689088  0.71979804  0.79635941  1
  H+  H262  1  0.10263146  0.36264864  0.82250895  1
  H+  H263  1  0.23020671  0.86080330  0.32380753  1
  H+  H264  1  0.51048179  0.60967857  0.01113251  1
  H+  H265  1  0.12720241  0.50323730  0.99491806  1
  H+  H266  1  0.53708917  0.64046913  0.16267997  1
  H+  H267  1  0.37463930  0.90428041  0.33610337  1
  H+  H268  1  0.65788867  0.61720075  0.32341246  1
  H+  H269  1  0.14010423  0.13252481  0.32659804  1
  H+  H270  1  1.00835180  0.65143143  0.84296827  1
  H+  H271  1  0.11023308  0.37754182  0.00578838  1
  H+  H272  1  0.14451109  0.36840901  0.51162676  1
  H+  H273  1  0.11306235  0.47506995  0.16047262  1
  H+  H274  1  0.86665302  0.74068354  0.82676100  1
  H+  H275  1  0.95324493  0.09794175  0.86500653  1
  H+  H276  1  0.62109366  0.89079882  0.16530960  1
  H+  H277  1  0.75420982  0.86973595  0.16302181  1
  H+  H278  1  0.86667282  0.77061396  0.19414541  1
  H+  H279  1  0.37914748  0.34640248  0.17423646  1
  H+  H280  1  0.53220357  0.14327457  0.66757513  1
  H+  H281  1  0.64336903  0.34962956  0.64102894  1
  H+  H282  1  0.84768674  0.36013939  0.81573060  1
  H+  H283  1  0.88619959  0.26833140  0.99788766  1
  H+  H284  1  0.62327440  0.76075341  0.82005156  1
  H+  H285  1  0.39585961  0.78751013  0.83976096  1
  H+  H286  1  0.41632855  0.08684583  0.60113140  1
  H+  H287  1  0.45614491  0.11425874  0.32102135  1
  H+  H288  1  0.10970130  0.50003938  0.72698142  1
  H+  H289  1  0.08916635  0.91648975  0.43097392  1
  H+  H290  1  0.05236635  0.93251272  0.07989381  1
  H+  H291  1  0.82047352  0.39541614  0.71642279  1
  H+  H292  1  0.86951777  0.26295943  0.84305604  1
  H+  H293  1  0.19073978  0.80396615  0.90384504  1
  H+  H294  1  0.10407309  0.19355867  0.71718057  1
  H+  H295  1  0.20043791  0.59765068  0.72556439  1
  H+  H296  1  0.91321206  0.32408846  0.93577848  1
  H+  H297  1  0.40978704  0.33174929  0.60922673  1
  H+  H298  1  1.02158049  0.72319455  0.88767689  1
  H+  H299  1  0.82950381  0.39467390  0.40012954  1
  H+  H300  1  0.92958202  0.08815527  0.26815957  1
  H+  H301  1  0.92437372  0.33329481  0.26760195  1
  H+  H302  1  0.34010901  0.42357049  0.43544856  1
  H+  H303  1  0.61384491  0.91763403  0.06639203  1
  H+  H304  1  0.85000552  0.17077140  0.39635088  1
  H+  H305  1  0.57221012  0.63274530  0.07088020  1
  H+  H306  1  0.83116940  0.91048071  0.10192958  1
  H+  H307  1  0.51854979  0.88706765  0.82776378  1
  H+  H308  1  0.67060596  0.58192037  0.56530233  1
  H+  H309  1  0.38543595  0.62330785  0.99202517  1
  H+  H310  1  0.73414811  0.37472104  0.17138601  1
  H+  H311  1  0.88241570  0.78154401  0.49391167  1
  H+  H312  1  0.73840390  0.62263716  0.50866648  1
  H+  H313  1  0.60488100  0.17396257  0.06172653  1
  H+  H314  1  0.60137575  0.94102268  0.39800312  1
  H+  H315  1  0.90037260  0.56248202  0.54505611  1
  H+  H316  1  0.57164317  0.91731215  0.76437559  1
  H+  H317  1  0.98017260  0.36821015  0.66565570  1
  H+  H318  1  0.65669291  0.08335041  0.56091818  1
  H+  H319  1  0.05570501  0.37363354  0.76204696  1
  H+  H320  1  0.66377301  0.80976667  0.92228814  1
  H+  H321  1  0.66890478  0.85290335  0.59575179  1
  H+  H322  1  0.16187748  0.28029726  0.83206353  1
  H+  H323  1  0.91951280  0.33269769  0.56813425  1
  H+  H324  1  0.24204059  0.10539600  0.65887036  1
  H+  H325  1  0.91907125  0.84679935  0.89471944  1
  H+  H326  1  0.07574852  0.67061309  0.40191976  1
  H+  H327  1  0.15706543  0.83391488  0.59149770  1
  H+  H328  1  0.38667159  0.18720936  -0.01910867  1
  H+  H329  1  0.96903148  0.19162654  0.85902114  1
  H+  H330  1  0.75447636  0.88935768  0.31458467  1
  H+  H331  1  0.08567613  0.59387095  0.60066537  1
  H+  H332  1  0.67486880  0.32177548  0.57838628  1
  H+  H333  1  0.82855037  0.68404567  0.72777147  1
  H+  H334  1  0.64261415  0.70162350  0.41467295  1
  H+  H335  1  0.09663402  0.72288116  0.64498978  1
  H+  H336  1  0.88880757  0.06815204  0.56342641  1
  H+  H337  1  0.06888578  0.65359437  0.69754099  1
  H+  H338  1  0.18336257  0.08698947  0.55981949  1
  H+  H339  1  0.64691336  0.87616196  0.50532545  1
  H+  H340  1  0.08407488  0.17239524  0.40993332  1
  H+  H341  1  0.50676084  0.11298906  0.89461602  1
  H+  H342  1  0.38515188  0.75154378  -0.01045171  1
  H+  H343  1  0.06607404  0.92484228  0.71519132  1
  H+  H344  1  0.58423751  0.42256370  0.43622154  1
  H+  H345  1  0.57095155  0.64201909  0.75884880  1
  H+  H346  1  0.33522848  0.92559363  0.39369570  1
  H+  H347  1  0.32518781  0.41740046  0.06342388  1
  H+  H348  1  0.82592974  0.67968171  0.41714064  1
  H+  H349  1  0.91711396  0.56485713  0.26792325  1
  H+  H350  1  0.66922964  0.59138127  0.90076679  1
  H+  H351  1  0.90739173  0.84402089  0.58469415  1
  H+  H352  1  0.47618225  0.86509314  0.55567507  1
  H+  H353  1  0.83694419  0.40975262  0.09948438  1
  H+  H354  1  0.66970973  0.34549615  0.26780781  1
  H+  H355  1  0.16003371  0.56356788  0.93498291  1
  H+  H356  1  0.44925372  0.67517720  0.19598157  1
  H+  H357  1  0.93010452  0.60638031  0.94098754  1
  H+  H358  1  0.19305273  0.36482464  0.60694740  1
  H+  H359  1  0.08299782  0.40960194  0.10340701  1
  H+  H360  1  0.31819272  0.60452908  0.07601786  1
  H+  H361  1  0.14423222  0.56649475  0.22871533  1
  H+  H362  1  0.07237410  0.39500464  0.40847917  1
  H+  H363  1  0.67152386  0.57982928  0.25937874  1
  H+  H364  1  0.28968945  0.37466413  0.80108489  1
  H+  H365  1  0.41466227  0.27272920  0.84110835  1
  H+  H366  1  0.34756815  0.04568718  0.84298102  1
  H+  H367  1  0.63378447  0.15548616  0.15851256  1
  H+  H368  1  0.02436443  0.50775042  0.28959790  1
  H+  H369  1  0.41595433  0.81487116  0.19414815  1
  H+  H370  1  0.55793466  0.14744066  0.39967792  1
  H+  H371  1  0.83858026  0.66645119  0.09914417  1
  H+  H372  1  0.75898152  0.36250784  0.48978521  1
  H+  H373  1  0.76864361  0.37055089  0.65287691  1
  H+  H374  1  0.38656007  0.82772992  0.61863925  1
  H+  H375  1  0.89324654  0.06309928  0.95247268  1
  H+  H376  1  0.08169412  0.17615173  0.10750754  1
  H+  H377  1  0.42147426  0.59274639  0.90048510  1
  H+  H378  1  0.28856901  0.12888474  0.19806730  1
  H+  H379  1  0.44972162  0.87629830  0.26366860  1
  H+  H380  1  0.37538737  0.56819607  0.25480951  1
  H+  H381  1  0.33890070  0.66175249  0.74513555  1
  H+  H382  1  0.67541570  0.08125949  0.93281649  1
  H+  H383  1  0.23311089  0.14263853  0.32538002  1
  O2-  O384  1  0.08549851  0.17502887  0.15229004  1
  O2-  O385  1  0.09560741  0.17487179  0.48027627  1
  O2-  O386  1  0.11654904  0.19477793  0.80005149  1
  O2-  O387  1  0.08208603  0.41222571  0.14874411  1
  O2-  O388  1  0.07549623  0.40792503  0.48265227  1
  O2-  O389  1  0.04594088  0.34103050  0.80421138  1
  O2-  O390  1  0.09248811  0.66745213  0.14580157  1
  O2-  O391  1  0.06857246  0.66771104  0.47977615  1
  O2-  O392  1  0.08049095  0.66227947  0.78531240  1
  O2-  O393  1  0.07157835  0.90978820  0.15588340  1
  O2-  O394  1  0.09093796  0.92103449  0.47736554  1
  O2-  O395  1  0.07162340  0.93405328  0.79722703  1
  O2-  O396  1  0.35149545  0.15970724  0.20405846  1
  O2-  O397  1  0.34358201  0.18329001  0.48127342  1
  O2-  O398  1  0.40344295  0.16496836  0.81340382  1
  O2-  O399  1  0.29434725  0.35441184  0.13716496  1
  O2-  O400  1  0.34349914  0.42861983  0.48102347  1
  O2-  O401  1  0.28099796  0.37507621  0.84603378  1
  O2-  O402  1  0.30584640  0.56661822  0.11535964  1
  O2-  O403  1  0.38781059  0.69793733  0.47366525  1
  O2-  O404  1  0.35530643  0.68084144  0.81583828  1
  O2-  O405  1  0.34139106  0.91867701  0.14912153  1
  O2-  O406  1  0.33492658  0.92575629  0.47485362  1
  O2-  O407  1  0.34409270  0.94159803  0.83039645  1
  O2-  O408  1  0.61529034  0.19061629  0.13495912  1
  O2-  O409  1  0.58193738  0.16970660  0.47461178  1
  O2-  O410  1  0.54022975  0.14136871  0.85738169  1
  O2-  O411  1  0.59320454  0.43046531  0.14395472  1
  O2-  O412  1  0.58295494  0.42151375  0.48161415  1
  O2-  O413  1  0.60024522  0.41964080  0.82650329  1
  O2-  O414  1  0.59777303  0.66728413  0.14862248  1
  O2-  O415  1  0.60369096  0.68121852  0.48849317  1
  O2-  O416  1  0.58012884  0.65673818  0.80235723  1
  O2-  O417  1  0.59635065  0.92541525  0.14976156  1
  O2-  O418  1  0.60263576  0.93636809  0.46863837  1
  O2-  O419  1  0.57830359  0.91475390  0.80920745  1
  O2-  O420  1  0.84838859  0.15941269  0.14320764  1
  O2-  O421  1  0.88422431  0.18543889  0.46029748  1
  O2-  O422  1  0.80927962  0.16410648  0.80380925  1
  O2-  O423  1  0.83778513  0.40936258  0.14484806  1
  O2-  O424  1  0.82570060  0.39309179  0.47373486  1
  O2-  O425  1  0.80755765  0.37003344  0.79116840  1
  O2-  O426  1  0.86640725  0.67538088  0.14012279  1
  O2-  O427  1  0.83210856  0.67042853  0.49463309  1
  O2-  O428  1  0.83911542  0.67922138  0.81369632  1
  O2-  O429  1  0.82111744  0.90484375  0.14977988  1
  O2-  O430  1  0.90152948  0.96197778  0.43778558  1
  O2-  O431  1  0.81511550  0.90312276  0.80521921  1
  O2-  O432  1  0.16177469  0.07695217  0.18904643  1
  O2-  O433  1  0.17955197  0.09020018  0.51412539  1
  O2-  O434  1  0.15332388  0.09320045  0.85521244  1
  O2-  O435  1  0.15777222  0.33153029  0.20133487  1
  O2-  O436  1  0.17988648  0.34503555  0.52833022  1
  O2-  O437  1  0.18867895  0.34070351  0.85211566  1
  O2-  O438  1  0.16490990  0.57356224  0.18572172  1
  O2-  O439  1  0.07848308  0.55592732  0.56526613  1
  O2-  O440  1  0.19037904  0.60020204  0.85988157  1
  O2-  O441  1  0.17324989  0.83453659  0.18419027  1
  O2-  O442  1  0.17073154  0.83820789  0.51193165  1
  O2-  O443  1  0.17420023  0.81791655  0.86099975  1
  O2-  O444  1  0.44408875  0.08754768  0.15346308  1
  O2-  O445  1  0.41470198  0.09092428  0.52320273  1
  O2-  O446  1  0.33617122  0.09423790  0.84922634  1
  O2-  O447  1  0.42323884  0.33586789  0.19315242  1
  O2-  O448  1  0.42017709  0.34500990  0.52721437  1
  O2-  O449  1  0.42871822  0.33271494  0.84600339  1
  O2-  O450  1  0.43424783  0.61680730  0.18542639  1
  O2-  O451  1  0.42846805  0.58889455  0.52096317  1
  O2-  O452  1  0.41844507  0.59092394  0.85440743  1
  O2-  O453  1  0.44721239  0.87614429  0.20269587  1
  O2-  O454  1  0.43459815  0.85017604  0.52291072  1
  O2-  O455  1  0.42346986  0.84618433  0.85801346  1
  O2-  O456  1  0.62593047  0.07013325  0.20092308  1
  O2-  O457  1  0.65738837  0.08309206  0.51568629  1
  O2-  O458  1  0.65287515  0.07623173  0.85288042  1
  O2-  O459  1  0.67314464  0.34497685  0.18515203  1
  O2-  O460  1  0.67508670  0.32266445  0.51072452  1
  O2-  O461  1  0.66174372  0.32557352  0.86273376  1
  O2-  O462  1  0.66236009  0.57982902  0.19128927  1
  O2-  O463  1  0.67255470  0.58982144  0.52026214  1
  O2-  O464  1  0.67092863  0.59292071  0.85519491  1
  O2-  O465  1  0.67128955  0.82679512  0.18498012  1
  O2-  O466  1  0.66821574  0.84405269  0.52942851  1
  O2-  O467  1  0.65654953  0.82190050  0.83402099  1
  O2-  O468  1  0.94055410  0.10298097  0.20189035  1
  O2-  O469  1  0.85497169  0.05027668  0.52537726  1
  O2-  O470  1  0.94593548  0.13658654  0.83785848  1
  O2-  O471  1  0.91978394  0.32806318  0.19177674  1
  O2-  O472  1  0.92060706  0.33312036  0.52221027  1
  O2-  O473  1  0.91005891  0.32043144  0.86024422  1
  O2-  O474  1  0.92909511  0.57220316  0.18517035  1
  O2-  O475  1  0.90257292  0.56815452  0.49870325  1
  O2-  O476  1  0.97777295  0.66587142  0.87484664  1
  O2-  O477  1  0.89925830  0.83193724  0.20386970  1
  O2-  O478  1  0.91739993  0.84356715  0.50654298  1
  O2-  O479  1  0.91801599  0.84521997  0.84886036  1
  O2-  O480  1  0.17661575  0.11436878  0.30477325  1
  O2-  O481  1  0.19019298  0.08170566  0.63343638  1
  O2-  O482  1  0.15908746  0.08720518  0.97925425  1
  O2-  O483  1  0.15366120  0.32448226  0.32296796  1
  O2-  O484  1  0.19151226  0.36730092  0.65225778  1
  O2-  O485  1  0.17086422  0.33875512  0.97500942  1
  O2-  O486  1  0.08518253  0.54872284  0.29448811  1
  O2-  O487  1  0.14577211  0.56617337  0.74780221  1
  O2-  O488  1  0.15363171  0.56371203  0.97969063  1
  O2-  O489  1  0.16911077  0.82788063  0.30964136  1
  O2-  O490  1  0.14455100  0.82178802  0.63553044  1
  O2-  O491  1  0.21209207  0.78395271  0.96308107  1
  O2-  O492  1  0.39605985  0.09527161  0.30630204  1
  O2-  O493  1  0.42281227  0.09107940  0.64634192  1
  O2-  O494  1  0.44670458  0.06037473  0.96732661  1
  O2-  O495  1  0.42600760  0.35441695  0.31598846  1
  O2-  O496  1  0.41180620  0.32431636  0.65403116  1
  O2-  O497  1  0.42846304  0.36119271  0.97558087  1
  O2-  O498  1  0.34414555  0.55967948  0.29366484  1
  O2-  O499  1  0.37629971  0.56056157  0.64429888  1
  O2-  O500  1  0.42193816  0.59466545  0.97397091  1
  O2-  O501  1  0.44910468  0.87224274  0.31478902  1
  O2-  O502  1  0.40089906  0.82323560  0.66076350  1
  O2-  O503  1  0.41517866  0.81203840  0.97249383  1
  O2-  O504  1  0.67732259  0.09763851  0.31747234  1
  O2-  O505  1  0.65657585  0.07909900  0.64135374  1
  O2-  O506  1  0.68313902  0.08541053  0.97769496  1
  O2-  O507  1  0.66585184  0.34465589  0.31271090  1
  O2-  O508  1  0.67591545  0.32123803  0.62614117  1
  O2-  O509  1  0.66399711  0.33063519  0.98132456  1
  O2-  O510  1  0.67829781  0.57972431  0.30683262  1
  O2-  O511  1  0.66347019  0.56693440  0.64247710  1
  O2-  O512  1  0.66474163  0.57770454  0.97760819  1
  O2-  O513  1  0.69944088  0.84177764  0.30179061  1
  O2-  O514  1  0.67213778  0.86144459  0.64330875  1
  O2-  O515  1  0.67717295  0.80388864  0.96459819  1
  O2-  O516  1  0.92341198  0.08408518  0.31659425  1
  O2-  O517  1  0.92494624  0.10088382  0.64331234  1
  O2-  O518  1  0.91813756  0.08573364  0.99205176  1
  O2-  O519  1  0.92610750  0.33362567  0.31345301  1
  O2-  O520  1  0.92303755  0.33435820  0.64328168  1
  O2-  O521  1  0.91496812  0.32851416  0.98165611  1
  O2-  O522  1  0.91047403  0.55950842  0.31258143  1
  O2-  O523  1  0.90444414  0.55760495  0.61585340  1
  O2-  O524  1  0.91410717  0.58392829  0.98336178  1
  O2-  O525  1  0.91810843  0.84322359  0.32075153  1
  O2-  O526  1  0.90791744  0.84255562  0.63021426  1
  O2-  O527  1  0.91513590  0.84104381  0.96987724  1
  O2-  O528  1  0.09101824  0.17954141  0.02108196  1
  O2-  O529  1  0.08148395  0.17366609  0.36330469  1
  O2-  O530  1  0.09534775  0.20485121  0.67477078  1
  O2-  O531  1  0.07873267  0.40453175  0.02449826  1
  O2-  O532  1  0.07349620  0.38982021  0.36268655  1
  O2-  O533  1  0.06915917  0.41966501  0.70504735  1
  O2-  O534  1  0.08417381  0.64981918  0.02453250  1
  O2-  O535  1  0.07172896  0.66953355  0.35659582  1
  O2-  O536  1  0.06891505  0.65833700  0.65307975  1
  O2-  O537  1  0.03528311  0.94665446  0.04055134  1
  O2-  O538  1  0.08629926  0.90654080  0.36010323  1
  O2-  O539  1  0.07120714  0.91867836  0.67101499  1
  O2-  O540  1  0.33614041  0.13325471  -0.03014192  1
  O2-  O541  1  0.33800056  0.19047698  0.35946074  1
  O2-  O542  1  0.34930599  0.16354781  0.70419765  1
  O2-  O543  1  0.32916094  0.42544443  0.01886658  1
  O2-  O544  1  0.32865861  0.41724834  0.35877699  1
  O2-  O545  1  0.32068135  0.39237468  0.72247355  1
  O2-  O546  1  0.33579048  0.65434103  0.01839603  1
  O2-  O547  1  0.42652745  0.71809269  0.34509820  1
  O2-  O548  1  0.32310278  0.65268445  0.69997179  1
  O2-  O549  1  0.34581878  0.90210569  0.02776340  1
  O2-  O550  1  0.33324060  0.92327397  0.34843975  1
  O2-  O551  1  0.35197325  0.94170349  0.70371902  1
  O2-  O552  1  0.59816659  0.16613646  0.01638757  1
  O2-  O553  1  0.54253251  0.12703711  0.35672331  1
  O2-  O554  1  0.59317868  0.16972811  0.68028785  1
  O2-  O555  1  0.58373542  0.41475769  0.02196653  1
  O2-  O556  1  0.58556204  0.42255637  0.35611261  1
  O2-  O557  1  0.59247022  0.39533089  0.67213341  1
  O2-  O558  1  0.55465969  0.60033631  0.03210904  1
  O2-  O559  1  0.67230897  0.71243948  0.37460525  1
  O2-  O560  1  0.54239693  0.61785146  0.67662808  1
  O2-  O561  1  0.63165786  0.91733349  0.02401406  1
  O2-  O562  1  0.59757493  0.94441628  0.35171221  1
  O2-  O563  1  0.56858850  0.92222989  0.68324088  1
  O2-  O564  1  0.84221022  0.16677704  0.02650219  1
  O2-  O565  1  0.83655298  0.16485430  0.35021627  1
  O2-  O566  1  0.82719799  0.17021674  0.67871286  1
  O2-  O567  1  0.83172124  0.40988517  0.02006732  1
  O2-  O568  1  0.83323656  0.39716493  0.35387958  1
  O2-  O569  1  0.82881892  0.40365506  0.67146239  1
  O2-  O570  1  0.80547240  0.68059602  0.02932941  1
  O2-  O571  1  0.81620833  0.69614312  0.37598424  1
  O2-  O572  1  0.81625594  0.68019578  0.68392031  1
  O2-  O573  1  0.84115474  0.92234904  0.03866364  1
  O2-  O574  1  0.86682515  0.94550847  0.37929202  1
  O2-  O575  1  0.83782273  0.93199552  0.68134641  1
