# generated using pymatgen
data_H2O
_symmetry_space_group_name_H-M   'P 1'
_cell_length_a   17.98372108
_cell_length_b   17.99258953
_cell_length_c   21.99781098
_cell_angle_alpha   89.99974783
_cell_angle_beta   89.99534294
_cell_angle_gamma   120.00969412
_symmetry_Int_Tables_number   1
_chemical_formula_structural   H2O
_chemical_formula_sum   'H384 O192'
_cell_volume   6163.69150643
_cell_formula_units_Z   192
loop_
 _symmetry_equiv_pos_site_id
 _symmetry_equiv_pos_as_xyz
  1  'x, y, z'
loop_
 _atom_type_symbol
 _atom_type_oxidation_number
  H+  1.0
  O2-  -2.0
loop_
 _atom_site_type_symbol
 _atom_site_label
 _atom_site_symmetry_multiplicity
 _atom_site_fract_x
 _atom_site_fract_y
 _atom_site_fract_z
 _atom_site_occupancy
  H+  H0  1  0.86438886  0.97637129  0.68066710  1
  H+  H1  1  0.14320676  0.27404453  0.83368026  1
  H+  H2  1  0.71728429  0.84453060  0.50338047  1
  H+  H3  1  0.16622166  0.84794041  0.24108012  1
  H+  H4  1  0.45233400  0.03071942  0.21576649  1
  H+  H5  1  0.62216481  0.48962690  0.82016644  1
  H+  H6  1  0.60210764  0.21623123  0.66280461  1
  H+  H7  1  0.29926153  0.42735498  0.08624165  1
  H+  H8  1  0.92656613  0.39087162  0.49141243  1
  H+  H9  1  0.98498677  0.39664696  0.33577377  1
  H+  H10  1  0.60444993  0.11810093  0.34297219  1
  H+  H11  1  0.59812063  0.73297138  0.82848850  1
  H+  H12  1  0.85002189  0.63272480  0.15957222  1
  H+  H13  1  0.04420279  0.63476823  0.84138807  1
  H+  H14  1  -0.03557272  0.34785745  0.69465765  1
  H+  H15  1  0.87968053  0.01837477  0.19140636  1
  H+  H16  1  0.64057642  1.02225656  0.17276368  1
  H+  H17  1  1.04101272  0.62660339  0.48948045  1
  H+  H18  1  0.12171869  0.87972935  0.82646506  1
  H+  H19  1  0.26895905  0.38368968  0.81600209  1
  H+  H20  1  0.74264782  0.38552689  0.83877385  1
  H+  H21  1  0.63011407  0.27184184  0.16623683  1
  H+  H22  1  0.27690463  0.64028523  0.32632204  1
  H+  H23  1  0.14044287  0.86878281  0.33934968  1
  H+  H24  1  0.48912530  0.16448702  0.31574973  1
  H+  H25  1  0.11258111  0.63753268  0.00521828  1
  H+  H26  1  0.77165695  0.38070326  0.67264753  1
  H+  H27  1  0.15074399  0.77552344  0.84692217  1
  H+  H28  1  0.52620362  0.88859132  0.34090025  1
  H+  H29  1  0.51535974  0.14557395  0.00166272  1
  H+  H30  1  0.13234538  0.12107613  0.01356004  1
  H+  H31  1  0.36694600  0.61080352  0.30128953  1
  H+  H32  1  0.91895068  0.63257939  0.83881048  1
  H+  H33  1  0.32436909  0.38691386  0.03394257  1
  H+  H34  1  0.86206787  -0.01524421  0.82670651  1
  H+  H35  1  0.60225786  0.96597318  0.49970729  1
  H+  H36  1  0.79409500  0.12622938  0.85275313  1
  H+  H37  1  0.28691279  0.65238554  0.15052873  1
  H+  H38  1  0.36166776  0.64141727  -0.00313462  1
  H+  H39  1  0.87827656  0.77505145  0.14993558  1
  H+  H40  1  0.38742783  0.86159085  0.83707155  1
  H+  H41  1  0.49588290  0.62683274  0.17469942  1
  H+  H42  1  0.76936600  0.76811469  0.36904825  1
  H+  H43  1  1.02148872  0.63502046  1.00643230  1
  H+  H44  1  0.71025123  0.09028257  0.52812418  1
  H+  H45  1  0.90572900  0.53688157  0.83867677  1
  H+  H46  1  0.90641664  0.16833176  0.46570004  1
  H+  H47  1  0.86345676  0.24904674  1.01227124  1
  H+  H48  1  0.12250116  0.50548290  0.33455078  1
  H+  H49  1  0.60828889  0.88726136  0.16101803  1
  H+  H50  1  0.10687341  0.46841990  0.67092188  1
  H+  H51  1  0.71686855  0.86712077  0.84302295  1
  H+  H52  1  0.86114252  0.07283839  0.35007900  1
  H+  H53  1  0.59477791  0.12578444  0.67327929  1
  H+  H54  1  0.86139454  0.86940685  0.49999189  1
  H+  H55  1  0.13816360  0.62664560  0.31286651  1
  H+  H56  1  0.85581110  0.47300527  0.66944738  1
  H+  H57  1  0.42255140  -0.02076450  0.30395028  1
  H+  H58  1  0.38482192  0.01182433  0.98450148  1
  H+  H59  1  0.52259607  0.21087567  0.05008547  1
  H+  H60  1  0.58411391  0.70197649  0.33137329  1
  H+  H61  1  0.65662480  0.28507519  0.49922351  1
  H+  H62  1  0.21613319  0.12003289  0.17174344  1
  H+  H63  1  0.37816323  0.50666125  0.50534446  1
  H+  H64  1  0.11154162  0.22877095  0.66700768  1
  H+  H65  1  0.14203203  0.11551933  0.32263983  1
  H+  H66  1  0.88237302  0.10685020  0.17439249  1
  H+  H67  1  0.28999266  0.59877229  0.84840165  1
  H+  H68  1  0.87841019  0.40233524  0.82866747  1
  H+  H69  1  0.47219939  0.11195114  0.65550896  1
  H+  H70  1  0.08456809  0.41666944  0.73347388  1
  H+  H71  1  0.54004412  0.13426181  0.15772551  1
  H+  H72  1  0.64803502  0.02727761  1.00134668  1
  H+  H73  1  0.83348939  0.73946112  0.48898274  1
  H+  H74  1  0.96586824  0.60987984  0.17214224  1
  H+  H75  1  0.35653942  0.37609983  0.66470725  1
  H+  H76  1  0.62999414  0.53716534  0.65668792  1
  H+  H77  1  0.84614859  0.42960606  0.76867818  1
  H+  H78  1  0.47285706  0.86879270  -0.00914368  1
  H+  H79  1  0.61074612  0.47836683  0.00178008  1
  H+  H80  1  0.12328574  0.11162340  0.17665852  1
  H+  H81  1  0.85661630  0.88372275  0.67692424  1
  H+  H82  1  0.36738501  0.13736029  0.66770363  1
  H+  H83  1  0.82718357  0.18470540  0.46126702  1
  H+  H84  1  0.11240168  0.63799988  0.16067790  1
  H+  H85  1  0.01493937  0.39011581  0.16791368  1
  H+  H86  1  0.62187551  0.26588746  0.32700042  1
  H+  H87  1  0.23021602  0.11719105  0.65953695  1
  H+  H88  1  0.01722167  0.63993928  0.33215807  1
  H+  H89  1  0.86002011  0.23412850  0.16936500  1
  H+  H90  1  0.61531510  0.00970993  0.67014014  1
  H+  H91  1  0.17892818  0.56850733  0.91545160  1
  H+  H92  1  0.17024182  0.07635741  0.89569748  1
  H+  H93  1  0.36052872  0.51275634  0.29906418  1
  H+  H94  1  0.59972059  0.62443550  0.32587770  1
  H+  H95  1  1.03963482  0.16558564  0.98428564  1
  H+  H96  1  0.97483760  0.37210044  0.99687746  1
  H+  H97  1  0.92386289  1.03644990  0.33791788  1
  H+  H98  1  0.59179335  0.62414822  0.01485105  1
  H+  H99  1  0.36020180  0.24344655  0.48678491  1
  H+  H100  1  0.41165858  0.35234504  0.26316043  1
  H+  H101  1  0.22431844  0.89091854  0.51551217  1
  H+  H102  1  0.00703482  0.12229679  0.16779051  1
  H+  H103  1  0.38584520  0.87093083  0.17096273  1
  H+  H104  1  0.37470856  0.51246724  0.66082901  1
  H+  H105  1  0.92143272  0.07378213  0.43486790  1
  H+  H106  1  0.33279570  0.18184746  0.39416128  1
  H+  H107  1  0.85589197  0.73222506  0.66163943  1
  H+  H108  1  0.87109111  0.60928769  0.64877259  1
  H+  H109  1  0.47503828  0.86257112  0.84211804  1
  H+  H110  1  0.34000981  0.68598946  0.08884813  1
  H+  H111  1  0.20017698  0.36369034  0.99266378  1
  H+  H112  1  0.95537353  0.90059454  0.88120849  1
  H+  H113  1  0.61591768  0.62113859  0.84259050  1
  H+  H114  1  0.75412517  0.64500115  0.48683852  1
  H+  H115  1  0.36417253  0.73307782  -0.00393272  1
  H+  H116  1  0.49443949  0.60954110  0.51062578  1
  H+  H117  1  0.62181885  0.76788860  0.17619725  1
  H+  H118  1  0.46497357  0.37447455  0.17109022  1
  H+  H119  1  0.59490174  0.38097466  0.33670202  1
  H+  H120  1  0.73368388  0.89251858  0.65580720  1
  H+  H121  1  0.20361842  0.23684456  0.35704508  1
  H+  H122  1  0.80209004  0.39618072  0.47939090  1
  H+  H123  1  0.38076089  0.69388369  0.47423299  1
  H+  H124  1  0.36282854  0.12137531  -0.01668765  1
  H+  H125  1  0.34940665  -0.02785309  0.15299690  1
  H+  H126  1  0.28420974  0.13333273  0.82469236  1
  H+  H127  1  0.61849740  0.14007714  0.50537968  1
  H+  H128  1  0.63342050  0.01960826  0.32793458  1
  H+  H129  1  0.64595200  0.11389075  0.16934954  1
  H+  H130  1  0.84906466  0.06288800  1.03200500  1
  H+  H131  1  0.74460391  0.85822083  1.01883273  1
  H+  H132  1  0.87519584  0.36671415  0.18005283  1
  H+  H133  1  0.03295872  0.88044114  0.82480228  1
  H+  H134  1  0.95887319  0.60631263  0.64803122  1
  H+  H135  1  0.11774328  0.71871020  0.48306856  1
  H+  H136  1  0.22869038  0.09672143  -0.01453324  1
  H+  H137  1  0.83157266  0.89544964  0.24529671  1
  H+  H138  1  0.11577063  -0.02011133  0.34214658  1
  H+  H139  1  0.35674648  0.88106965  1.00404278  1
  H+  H140  1  0.24990939  0.38135860  0.17058158  1
  H+  H141  1  0.21724346  0.38336709  0.31481031  1
  H+  H142  1  0.42548654  0.16283004  0.12663438  1
  H+  H143  1  0.48222322  0.83875642  0.50152911  1
  H+  H144  1  0.52237314  0.89370275  0.15938130  1
  H+  H145  1  0.70261676  0.83281158  0.33097225  1
  H+  H146  1  0.59884723  0.38613887  0.15532266  1
  H+  H147  1  0.51692817  0.38990663  0.48709738  1
  H+  H148  1  0.85451224  0.95209527  0.48154452  1
  H+  H149  1  0.40412385  0.11623366  0.83085333  1
  H+  H150  1  0.71562462  0.62609389  0.65148837  1
  H+  H151  1  0.35418378  0.47387047  0.81346826  1
  H+  H152  1  0.35507257  0.40156817  0.32666802  1
  H+  H153  1  0.22813187  0.61684004  0.99959356  1
  H+  H154  1  0.21303990  0.86373257  0.17733041  1
  H+  H155  1  0.51267788  0.87546805  0.67420591  1
  H+  H156  1  0.91853293  0.13651694  0.82969797  1
  H+  H157  1  0.13486152  1.00872039  -0.00851455  1
  H+  H158  1  0.76011919  0.63357555  0.15735984  1
  H+  H159  1  0.12840318  0.85837992  -0.00604622  1
  H+  H160  1  0.96448960  0.86377918  0.66125898  1
  H+  H161  1  0.36152014  0.51892592  0.99577196  1
  H+  H162  1  0.83284030  0.18925559  0.08037324  1
  H+  H163  1  0.61276587  0.89840546  0.67060409  1
  H+  H164  1  0.11040652  0.38085893  0.82335470  1
  H+  H165  1  0.62459020  0.52055596  0.50029423  1
  H+  H166  1  0.91055231  0.84004187  0.59720721  1
  H+  H167  1  0.38276174  0.80945959  0.49954084  1
  H+  H168  1  0.46173255  0.60615124  0.66268884  1
  H+  H169  1  0.51386325  0.39550440  0.33723271  1
  H+  H170  1  0.41447199  0.83837206  0.92978496  1
  H+  H171  1  0.37862787  0.29326501  0.32341370  1
  H+  H172  1  0.88638769  0.62250802  0.32782340  1
  H+  H173  1  0.16106456  0.50661469  0.17753249  1
  H+  H174  1  0.25446095  0.96773002  0.70260367  1
  H+  H175  1  0.10559435  0.85041528  0.65494646  1
  H+  H176  1  0.59741298  0.98103620  0.82105684  1
  H+  H177  1  0.12868219  0.35449420  0.65831767  1
  H+  H178  1  0.14344768  0.32686699  0.23216667  1
  H+  H179  1  0.63929275  0.28743007  0.98991412  1
  H+  H180  1  0.64993693  0.37940117  0.98929544  1
  H+  H181  1  0.23468972  0.12337688  0.50481437  1
  H+  H182  1  0.16032733  0.62046732  0.50338163  1
  H+  H183  1  0.10387033  0.29151814  0.96691142  1
  H+  H184  1  0.40541340  0.35334117  0.98029505  1
  H+  H185  1  0.27185602  0.14381843  0.33495549  1
  H+  H186  1  0.27848189  0.89112216  0.82642854  1
  H+  H187  1  0.13049779  0.76993529  0.99278441  1
  H+  H188  1  0.85044546  0.62727401  0.00739348  1
  H+  H189  1  0.84602020  1.01937068  0.03216401  1
  H+  H190  1  0.97935773  0.36424396  0.84317111  1
  H+  H191  1  0.40469450  0.17095955  0.30866714  1
  H+  H192  1  0.14291842  0.49860652  0.48803542  1
  H+  H193  1  0.76129516  0.38667036  0.16177682  1
  H+  H194  1  0.65242274  0.37135218  0.49728453  1
  H+  H195  1  0.90723518  0.34615201  0.24211005  1
  H+  H196  1  0.10863203  -0.02320078  0.15730514  1
  H+  H197  1  0.64024078  0.35442728  0.65139066  1
  H+  H198  1  0.84806052  0.21415406  0.70194189  1
  H+  H199  1  0.60517150  0.75412785  -0.00521961  1
  H+  H200  1  0.13490200  0.29375189  0.32524353  1
  H+  H201  1  0.37429582  0.22879688  0.67385829  1
  H+  H202  1  0.01260253  0.91109247  0.49994607  1
  H+  H203  1  0.37766026  0.97235835  0.30379584  1
  H+  H204  1  0.11591809  0.25821630  0.17655627  1
  H+  H205  1  0.86305495  0.39166199  0.00906069  1
  H+  H206  1  0.42281324  0.94862118  0.49764166  1
  H+  H207  1  0.90876040  0.53578585  0.49443327  1
  H+  H208  1  0.37357861  0.16090513  0.48922201  1
  H+  H209  1  0.00511063  0.71956483  0.51986071  1
  H+  H210  1  0.63786842  0.40728503  0.82137702  1
  H+  H211  1  0.93424027  0.30374719  0.48505215  1
  H+  H212  1  0.78431675  0.39676980  0.30080543  1
  H+  H213  1  0.11343550  0.41070739  0.33393706  1
  H+  H214  1  0.41124202  0.05782450  0.49415684  1
  H+  H215  1  0.59859136  0.63002175  0.49602325  1
  H+  H216  1  0.11368392  0.13921710  0.66710986  1
  H+  H217  1  0.16704434  0.60705379  0.85582992  1
  H+  H218  1  0.82717560  0.92012747  0.76963719  1
  H+  H219  1  0.39037839  0.78555325  0.16519371  1
  H+  H220  1  0.63830508  0.52208329  0.32142314  1
  H+  H221  1  0.51273975  0.08123616  0.37262185  1
  H+  H222  1  0.26740577  0.88198954  0.00354542  1
  H+  H223  1  0.99582635  0.12803610  0.48261337  1
  H+  H224  1  0.10750763  0.40109237  0.00720336  1
  H+  H225  1  0.68360615  0.46974142  0.67982821  1
  H+  H226  1  0.59372760  0.71876046  0.50413246  1
  H+  H227  1  0.72745442  0.61248277  0.31945702  1
  H+  H228  1  0.89664076  0.75662143  0.82104846  1
  H+  H229  1  0.13298531  0.77699126  0.32900914  1
  H+  H230  1  0.60286629  0.88333007  1.00564864  1
  H+  H231  1  0.33283110  0.47642027  0.18202973  1
  H+  H232  1  0.11055426  0.98050325  0.66965407  1
  H+  H233  1  -0.03178049  0.86395302  0.15060687  1
  H+  H234  1  0.87423154  0.75928653  1.00516827  1
  H+  H235  1  0.38440533  0.75912746  0.66626839  1
  H+  H236  1  0.28590139  0.61919611  0.47561245  1
  H+  H237  1  0.17030873  0.83768851  0.90345338  1
  H+  H238  1  0.84186223  0.41553223  0.32391559  1
  H+  H239  1  0.37723747  0.37660986  0.17618390  1
  H+  H240  1  0.87724510  0.35020791  0.69663530  1
  H+  H241  1  1.01371506  0.87867245  1.01035968  1
  H+  H242  1  0.09472641  0.71896657  0.65835227  1
  H+  H243  1  0.98565669  0.86456427  0.32896685  1
  H+  H244  1  0.59466759  0.64190364  0.67038494  1
  H+  H245  1  0.88391051  0.52269143  0.99605562  1
  H+  H246  1  0.24265001  0.84531050  0.37868509  1
  H+  H247  1  0.53570979  0.11236481  0.86050751  1
  H+  H248  1  0.09268886  0.37092777  0.16245931  1
  H+  H249  1  0.65033745  0.10504115  -0.03648096  1
  H+  H250  1  0.50700295  0.64562895  0.82708992  1
  H+  H251  1  0.70631618  0.09875229  0.67226282  1
  H+  H252  1  0.87303145  0.87407540  0.84209232  1
  H+  H253  1  0.77421509  0.39171833  0.00673022  1
  H+  H254  1  0.40184578  0.77096163  0.31825226  1
  H+  H255  1  0.35159420  0.61912163  0.68014040  1
  H+  H256  1  0.36557343  0.21225718  0.97965702  1
  H+  H257  1  0.15210835  0.25299826  0.48372763  1
  H+  H258  1  0.71431706  0.61111144  0.99707396  1
  H+  H259  1  0.14598815  0.02051453  0.83531942  1
  H+  H260  1  0.63358838  0.85526432  0.50200871  1
  H+  H261  1  0.57513303  0.91482066  0.76681664  1
  H+  H262  1  0.13681387  0.15757412  0.49231297  1
  H+  H263  1  0.70867543  0.63280489  0.84542288  1
  H+  H264  1  0.13484696  0.52793593  0.00492548  1
  H+  H265  1  0.51096831  0.37426263  0.65769097  1
  H+  H266  1  0.53220635  0.38195590  -0.00644160  1
  H+  H267  1  0.39342743  0.18563142  0.06692050  1
  H+  H268  1  0.89030253  0.84910127  0.32812799  1
  H+  H269  1  0.16431725  0.21592790  0.03543724  1
  H+  H270  1  0.87038925  0.42646543  0.42335144  1
  H+  H271  1  0.82590073  0.67672736  0.39583737  1
  H+  H272  1  0.83295180  0.86307903  0.03048314  1
  H+  H273  1  0.77399625  0.14131719  0.16348151  1
  H+  H274  1  0.13776715  0.60704139  0.65213763  1
  H+  H275  1  0.61428086  0.88831357  0.34394045  1
  H+  H276  1  0.33572233  -0.01167003  0.66548577  1
  H+  H277  1  1.03256015  0.40105109  0.48655888  1
  H+  H278  1  0.86970487  0.73129242  0.33416188  1
  H+  H279  1  0.45746748  0.59849174  -0.00744827  1
  H+  H280  1  0.36801930  0.37790144  0.48631627  1
  H+  H281  1  0.88383977  0.28142462  0.84596210  1
  H+  H282  1  0.23952172  0.86158589  0.52723946  1
  H+  H283  1  0.84746736  0.12550593  0.69137470  1
  H+  H284  1  0.76770781  0.15018850  0.01547479  1
  H+  H285  1  0.49197121  0.14500379  0.50884319  1
  H+  H286  1  0.11665856  0.47054018  0.83363090  1
  H+  H287  1  0.97918939  0.11655290  0.66495461  1
  H+  H288  1  0.39023228  0.57979139  0.89515138  1
  H+  H289  1  0.65225945  0.58788148  0.93888632  1
  H+  H290  1  0.59320847  0.16443567  0.44163499  1
  H+  H291  1  0.09736709  0.17044991  0.75843216  1
  H+  H292  1  0.36081236  0.92469326  0.44122169  1
  H+  H293  1  0.08412326  0.88870018  0.49380802  1
  H+  H294  1  0.67667136  0.33436979  0.59093752  1
  H+  H295  1  0.85659625  0.18535324  0.36328265  1
  H+  H296  1  0.80798604  0.15758735  0.78230905  1
  H+  H297  1  0.67798060  0.35127010  0.89404453  1
  H+  H298  1  0.08353624  0.66147321  0.38812752  1
  H+  H299  1  0.58905324  0.17092467  0.09504929  1
  H+  H300  1  0.16358016  0.07790772  0.26386750  1
  H+  H301  1  0.58419118  0.62521547  0.16777907  1
  H+  H302  1  0.80282955  0.85437963  0.40605678  1
  H+  H303  1  0.40032128  0.36076523  0.54935556  1
  H+  H304  1  0.62973512  0.86975097  0.84205516  1
  H+  H305  1  0.38742238  0.27210205  0.83084499  1
  H+  H306  1  0.64722047  0.06802089  0.58368287  1
  H+  H307  1  0.07710967  0.42078716  0.07222233  1
  H+  H308  1  0.84320129  0.26547256  0.59192081  1
  H+  H309  1  0.91687593  0.33843087  0.93570886  1
  H+  H310  1  0.58020190  0.91986709  0.06460256  1
  H+  H311  1  0.17280804  0.08970609  0.59928401  1
  H+  H312  1  0.32037537  0.90971171  0.09606301  1
  H+  H313  1  0.61687784  0.43901554  0.73836046  1
  H+  H314  1  0.22430962  0.60478649  0.66586721  1
  H+  H315  1  0.68407383  0.13629857  0.82320234  1
  H+  H316  1  0.08057909  0.92777216  0.40467574  1
  H+  H317  1  0.32112421  0.43491672  0.38312806  1
  H+  H318  1  0.08360854  0.92020494  0.72930956  1
  H+  H319  1  0.12343541  0.19575608  0.39950151  1
  H+  H320  1  0.33088554  0.64330743  0.74475843  1
  H+  H321  1  0.65208112  0.58209040  0.55970121  1
  H+  H322  1  0.07473029  0.15078713  0.11017263  1
  H+  H323  1  0.58310073  0.91751551  0.43425179  1
  H+  H324  1  0.57728910  0.41673114  0.42955741  1
  H+  H325  1  0.21645385  0.35322677  0.65498018  1
  H+  H326  1  0.07936308  0.78728808  0.56299287  1
  H+  H327  1  0.11661315  0.65241120  0.79184887  1
  H+  H328  1  0.55282933  0.64980488  0.07188793  1
  H+  H329  1  0.39676534  0.02348666  0.82743057  1
  H+  H330  1  0.70673967  0.35523692  0.30799502  1
  H+  H331  1  0.07705864  0.65477732  0.09913185  1
  H+  H332  1  0.42749851  0.83812354  0.26478167  1
  H+  H333  1  0.99347449  0.16141060  0.92175801  1
  H+  H334  1  0.16934510  0.34204213  0.88948467  1
  H+  H335  1  0.92113932  0.58086129  0.55825424  1
  H+  H336  1  0.82503755  0.41688795  0.10431302  1
  H+  H337  1  0.43994167  0.10938907  0.22952994  1
  H+  H338  1  0.41421847  0.09068027  0.59435549  1
  H+  H339  1  0.33970369  0.16410505  0.76363640  1
  H+  H340  1  0.14110792  0.03640508  0.50620086  1
  H+  H341  1  0.18669851  0.58639833  0.56331571  1
  H+  H342  1  0.93439789  0.79963005  0.52440585  1
  H+  H343  1  0.38277494  0.35911096  0.83117839  1
  H+  H344  1  0.89077706  0.81979195  0.94892932  1
  H+  H345  1  0.85810441  0.87901183  0.17997838  1
  H+  H346  1  0.41777628  0.80324710  0.60235211  1
  H+  H347  1  0.12780692  0.13860558  0.81820340  1
  H+  H348  1  0.67513732  0.86047465  0.59576427  1
  H+  H349  1  0.91828522  0.58488944  0.93742862  1
  H+  H350  1  0.90974473  0.08528464  0.61186058  1
  H+  H351  1  0.41851791  0.06880986  0.92234333  1
  H+  H352  1  0.25953869  0.55370224  0.20316349  1
  H+  H353  1  0.47081649  0.30926100  0.60490768  1
  H+  H354  1  0.32207985  0.91724782  0.76157785  1
  H+  H355  1  0.99873585  0.12300128  0.82682389  1
  H+  H356  1  0.91439032  0.59437572  0.26743199  1
  H+  H357  1  0.82943488  0.67205790  0.71942568  1
  H+  H358  1  0.33904920  0.65039254  0.38327849  1
  H+  H359  1  0.10880549  0.88820762  0.16423051  1
  H+  H360  1  0.87557349  0.52479788  0.17588405  1
  H+  H361  1  0.56340729  0.66759743  0.73042841  1
  H+  H362  1  0.19316903  0.85423888  0.64517987  1
  H+  H363  1  0.95102957  0.74173552  0.77255201  1
  H+  H364  1  0.57454014  0.41633416  0.09461659  1
  H+  H365  1  0.84717077  0.30900539  0.59330637  1
  H+  H366  1  0.66086742  0.07983787  0.26767117  1
  H+  H367  1  0.64137828  0.32451603  0.22685109  1
  H+  H368  1  0.42480806  0.32889762  0.91456658  1
  H+  H369  1  0.19915331  0.40396488  0.47497444  1
  H+  H370  1  0.71522128  0.85267124  0.18628013  1
  H+  H371  1  0.81752301  0.65408343  0.06750041  1
  H+  H372  1  0.64897847  0.82536801  0.27014752  1
  H+  H373  1  0.10795390  0.44689973  0.42225422  1
  H+  H374  1  0.65806471  0.58071960  0.22682931  1
  H+  H375  1  0.07944638  0.91216141  0.06640963  1
  H+  H376  1  0.17803700  0.58810630  0.26095074  1
  H+  H377  1  0.77189187  0.12247049  0.32743612  1
  H+  H378  1  0.64316888  0.81719197  0.93635679  1
  H+  H379  1  0.40799337  0.55818813  0.57358747  1
  H+  H380  1  0.32712572  0.40455358  0.72478211  1
  H+  H381  1  0.62427173  0.52434615  0.16602628  1
  H+  H382  1  0.29358331  0.79813380  0.39521631  1
  H+  H383  1  0.05703498  0.65206600  0.71241136  1
  O2-  O384  1  0.07103499  0.15427802  0.15502273  1
  O2-  O385  1  0.11275096  0.19193061  0.47315213  1
  O2-  O386  1  0.09893549  0.17067854  0.80445406  1
  O2-  O387  1  0.07290763  0.41182590  0.14951856  1
  O2-  O388  1  0.11142082  0.43906944  0.46819892  1
  O2-  O389  1  0.08051233  0.41373901  0.81346295  1
  O2-  O390  1  0.06425796  0.64046079  0.14295020  1
  O2-  O391  1  0.10085239  0.65928000  0.47205294  1
  O2-  O392  1  0.10845381  0.66449426  0.83366445  1
  O2-  O393  1  0.08110169  0.91748496  0.14146637  1
  O2-  O394  1  0.07293001  0.93521468  0.48197371  1
  O2-  O395  1  0.09132275  0.90952870  0.80827853  1
  O2-  O396  1  0.44228452  0.20744691  0.09599697  1
  O2-  O397  1  0.33573971  0.18258369  0.47328417  1
  O2-  O398  1  0.34415272  0.16451811  0.80897934  1
  O2-  O399  1  0.31035143  0.42097261  0.15702911  1
  O2-  O400  1  0.31683886  0.42436753  0.45858551  1
  O2-  O401  1  0.32927367  0.41378055  0.79948087  1
  O2-  O402  1  0.34277980  0.69531505  0.13357800  1
  O2-  O403  1  0.34071701  0.63959975  0.45347875  1
  O2-  O404  1  0.34896729  0.62780524  0.82934719  1
  O2-  O405  1  0.31945092  0.91113982  0.14177560  1
  O2-  O406  1  0.41354079  0.97322138  0.46097916  1
  O2-  O407  1  0.33510868  0.91831549  0.80534636  1
  O2-  O408  1  0.59868783  0.16862884  0.13984264  1
  O2-  O409  1  0.59831860  0.17704549  0.48603012  1
  O2-  O410  1  0.59206520  0.12090969  0.87606548  1
  O2-  O411  1  0.57217250  0.41941053  0.13977367  1
  O2-  O412  1  0.57809850  0.41525960  0.47540190  1
  O2-  O413  1  0.60852844  0.43580415  0.79931333  1
  O2-  O414  1  0.55193957  0.65431812  0.15381576  1
  O2-  O415  1  0.56116121  0.65687571  0.48989676  1
  O2-  O416  1  0.56765337  0.67169600  0.81410780  1
  O2-  O417  1  0.58378462  0.92242753  0.14477292  1
  O2-  O418  1  0.57969295  0.90910198  0.47985557  1
  O2-  O419  1  0.57947736  0.92039044  0.81256031  1
  O2-  O420  1  0.83426082  0.17772991  0.14753527  1
  O2-  O421  1  0.88852374  0.21203570  0.45320083  1
  O2-  O422  1  0.80472420  0.17374739  0.82607128  1
  O2-  O423  1  0.82312884  0.41550806  0.14978480  1
  O2-  O424  1  0.86403580  0.42760067  0.46868647  1
  O2-  O425  1  0.85363452  0.43780295  0.81367085  1
  O2-  O426  1  0.81973991  0.66091551  0.14059586  1
  O2-  O427  1  0.81336447  0.68264181  0.47105048  1
  O2-  O428  1  0.89820951  0.71127037  0.79623193  1
  O2-  O429  1  0.82611058  0.90539800  0.20239895  1
  O2-  O430  1  0.82291262  0.88932881  0.47860966  1
  O2-  O431  1  0.82718633  0.92303094  0.81576641  1
  O2-  O432  1  0.15896178  0.08363153  0.18845770  1
  O2-  O433  1  0.17518464  0.09676110  0.52199796  1
  O2-  O434  1  0.17472493  0.08051102  0.85026736  1
  O2-  O435  1  0.14379993  0.32086517  0.18682005  1
  O2-  O436  1  0.22790038  0.37041796  0.48310423  1
  O2-  O437  1  0.17034595  0.33625927  0.84428804  1
  O2-  O438  1  0.20824761  0.56082807  0.19537549  1
  O2-  O439  1  0.18999591  0.58907313  0.51788520  1
  O2-  O440  1  0.18634865  0.56724664  0.86956385  1
  O2-  O441  1  0.15665026  0.84449857  0.19659058  1
  O2-  O442  1  0.05516170  0.77792220  0.52139264  1
  O2-  O443  1  0.17356985  0.83695759  0.85732538  1
  O2-  O444  1  0.44280861  0.07304340  0.19477632  1
  O2-  O445  1  0.42874211  0.11291800  0.51631031  1
  O2-  O446  1  0.42994409  0.08185402  0.84607470  1
  O2-  O447  1  0.40840406  0.34811630  0.19186355  1
  O2-  O448  1  0.40110885  0.35109158  0.50576051  1
  O2-  O449  1  0.41395074  0.33126190  0.84769009  1
  O2-  O450  1  0.36182644  0.56526369  0.21353904  1
  O2-  O451  1  0.42612037  0.54962553  0.53209696  1
  O2-  O452  1  0.39042691  0.57872881  0.84918195  1
  O2-  O453  1  0.42080781  0.84519866  0.18443178  1
  O2-  O454  1  0.42326685  0.79390061  0.51630228  1
  O2-  O455  1  0.41528614  0.83346640  0.85808797  1
  O2-  O456  1  0.67267708  0.08284382  0.18914953  1
  O2-  O457  1  0.64980304  0.06910772  0.53665841  1
  O2-  O458  1  0.62173236  0.09440008  0.82217598  1
  O2-  O459  1  0.65119085  0.33110315  0.18225569  1
  O2-  O460  1  0.68828240  0.34704317  0.51137697  1
  O2-  O461  1  0.68090473  0.35763964  0.84912323  1
  O2-  O462  1  0.65288392  0.58474339  0.18149975  1
  O2-  O463  1  0.65123360  0.58167291  0.51425534  1
  O2-  O464  1  0.64982576  0.59399651  0.85825843  1
  O2-  O465  1  0.65188025  0.82792422  0.19142736  1
  O2-  O466  1  0.65740613  0.82019108  0.51924791  1
  O2-  O467  1  0.65595561  0.83494019  0.85626674  1
  O2-  O468  1  0.91554318  0.08220640  0.19212906  1
  O2-  O469  1  0.93247302  0.09572629  0.47826493  1
  O2-  O470  1  0.93956972  0.09972351  0.84549155  1
  O2-  O471  1  0.90691542  0.33868607  0.19744485  1
  O2-  O472  1  0.96294534  0.36418204  0.50268978  1
  O2-  O473  1  0.92029466  0.34108821  0.86088164  1
  O2-  O474  1  0.90603683  0.58636430  0.18796723  1
  O2-  O475  1  0.94162908  0.59201433  0.51545669  1
  O2-  O476  1  0.94074985  0.59665703  0.85657432  1
  O2-  O477  1  0.90503192  0.83827412  0.14851019  1
  O2-  O478  1  0.92064532  0.84484921  0.53221475  1
  O2-  O479  1  0.90964173  0.85047351  0.86064718  1
  O2-  O480  1  0.16692069  0.07972397  0.30946811  1
  O2-  O481  1  0.16955342  0.08557393  0.64486878  1
  O2-  O482  1  0.16581295  0.06904404  0.97471761  1
  O2-  O483  1  0.15393100  0.35064843  0.30601499  1
  O2-  O484  1  0.15532026  0.32139298  0.64252568  1
  O2-  O485  1  0.15230845  0.35295423  0.96507040  1
  O2-  O486  1  0.17281793  0.59755475  0.30530785  1
  O2-  O487  1  0.16933922  0.57690961  0.64190175  1
  O2-  O488  1  0.16676458  0.58586910  0.98487467  1
  O2-  O489  1  0.17256066  0.84029763  0.32437598  1
  O2-  O490  1  0.13085026  0.81651139  0.63690458  1
  O2-  O491  1  0.16087625  0.83087516  0.97738859  1
  O2-  O492  1  0.45154366  0.16911176  0.28556431  1
  O2-  O493  1  0.40987580  0.08418335  0.63945510  1
  O2-  O494  1  0.41636628  0.07163764  0.96775305  1
  O2-  O495  1  0.40975884  0.35419405  0.30981940  1
  O2-  O496  1  0.45536741  0.33571367  0.63758071  1
  O2-  O497  1  0.43065915  0.32239214  0.96135511  1
  O2-  O498  1  0.38907797  0.57309142  0.27788878  1
  O2-  O499  1  0.40015308  0.57284763  0.64640100  1
  O2-  O500  1  0.39877868  0.57305988  0.97350664  1
  O2-  O501  1  0.43041893  0.83329033  0.30975843  1
  O2-  O502  1  0.41594080  0.81552720  0.64583750  1
  O2-  O503  1  0.41223791  0.83671398  0.97632878  1
  O2-  O504  1  0.66027366  0.08092632  0.31322587  1
  O2-  O505  1  0.64787805  0.07143006  0.65398824  1
  O2-  O506  1  0.68326128  0.09024399  0.99134849  1
  O2-  O507  1  0.63997333  0.32135212  0.30764059  1
  O2-  O508  1  0.67065380  0.32526487  0.63602673  1
  O2-  O509  1  0.67868393  0.34683374  0.97490313  1
  O2-  O510  1  0.66822458  0.57973633  0.30202358  1
  O2-  O511  1  0.65441106  0.59496767  0.63792300  1
  O2-  O512  1  0.65243686  0.58259766  0.98388847  1
  O2-  O513  1  0.64707784  0.82486515  0.31562383  1
  O2-  O514  1  0.68734835  0.89498652  0.63329799  1
  O2-  O515  1  0.63693319  0.81511217  0.98133933  1
  O2-  O516  1  0.88331351  0.03543701  0.36753743  1
  O2-  O517  1  0.91522803  0.08419408  0.65591154  1
  O2-  O518  1  1.01703735  0.19543124  0.95909546  1
  O2-  O519  1  0.92164136  0.36742888  0.32689096  1
  O2-  O520  1  0.90361635  0.31537732  0.70801966  1
  O2-  O521  1  0.91420569  0.33821220  0.98169490  1
  O2-  O522  1  0.92032870  0.59663609  0.31249532  1
  O2-  O523  1  0.89745663  0.57441724  0.63569080  1
  O2-  O524  1  0.91422379  0.58440959  0.98243418  1
  O2-  O525  1  0.92828945  0.83086561  0.30924644  1
  O2-  O526  1  0.90467077  0.83308725  0.64591419  1
  O2-  O527  1  0.90498043  0.82129360  0.99205208  1
  O2-  O528  1  0.11355359  0.15893108  0.03562280  1
  O2-  O529  1  0.14096173  0.20588065  0.35497469  1
  O2-  O530  1  0.08195341  0.16683616  0.68398692  1
  O2-  O531  1  0.07608072  0.42747205  0.02693349  1
  O2-  O532  1  0.09010225  0.44536436  0.35307184  1
  O2-  O533  1  0.07786399  0.40959176  0.68842625  1
  O2-  O534  1  0.08272246  0.66858995  0.01986856  1
  O2-  O535  1  0.08111444  0.66824572  0.34363371  1
  O2-  O536  1  0.06739091  0.65553745  0.66885613  1
  O2-  O537  1  0.07641892  0.90960987  0.02045790  1
  O2-  O538  1  0.08644921  0.92107418  0.36010321  1
  O2-  O539  1  0.07747684  0.91949387  0.68438073  1
  O2-  O540  1  0.33363851  0.15373177  -0.00209131  1
  O2-  O541  1  0.33121684  0.18604560  0.34887986  1
  O2-  O542  1  0.33780957  0.16806555  0.68560923  1
  O2-  O543  1  0.29579378  0.42016779  0.03975574  1
  O2-  O544  1  0.32238056  0.43269233  0.33667946  1
  O2-  O545  1  0.32555266  0.40446630  0.67887008  1
  O2-  O546  1  0.33281892  0.67263070  0.01234613  1
  O2-  O547  1  0.33785511  0.65829742  0.33701978  1
  O2-  O548  1  0.32279800  0.64818864  0.70080175  1
  O2-  O549  1  0.32755771  0.91305380  0.01916086  1
  O2-  O550  1  0.27761448  0.83839765  0.41169868  1
  O2-  O551  1  0.28446261  0.93942083  0.68634342  1
  O2-  O552  1  0.55966069  0.19399156  0.02645613  1
  O2-  O553  1  0.56504345  0.13588337  0.36444637  1
  O2-  O554  1  0.56421244  0.15844794  0.67992828  1
  O2-  O555  1  0.58802449  0.41731542  0.01494784  1
  O2-  O556  1  0.57353015  0.41819609  0.35342472  1
  O2-  O557  1  0.62189136  0.43998136  0.68773333  1
  O2-  O558  1  0.55474965  0.64873107  0.02652873  1
  O2-  O559  1  0.55783648  0.64050791  0.34044123  1
  O2-  O560  1  0.55714399  0.66341798  0.68567808  1
  O2-  O561  1  0.58132244  0.92250565  0.01919898  1
  O2-  O562  1  0.58626647  0.92177028  0.35867041  1
  O2-  O563  1  0.57194981  0.91356827  0.69176984  1
  O2-  O564  1  0.82993231  0.18973818  0.03278012  1
  O2-  O565  1  0.83442674  0.14335088  0.33015273  1
  O2-  O566  1  0.81242594  0.14919131  0.70784765  1
  O2-  O567  1  0.83366592  0.42212940  0.02518918  1
  O2-  O568  1  0.90372913  0.43429807  0.34939886  1
  O2-  O569  1  0.82964286  0.41671403  0.69087343  1
  O2-  O570  1  0.81713625  0.65490220  0.02130346  1
  O2-  O571  1  0.82746395  0.67234603  0.35042249  1
  O2-  O572  1  0.82329122  0.66926160  0.67492998  1
  O2-  O573  1  0.79798668  0.88851779  0.04258884  1
  O2-  O574  1  0.78917100  0.82915257  0.36387663  1
  O2-  O575  1  0.83018897  0.91623308  0.69565727  1
