# generated using pymatgen
data_H2O
_symmetry_space_group_name_H-M   'P 1'
_cell_length_a   17.96840395
_cell_length_b   17.97120315
_cell_length_c   21.96515227
_cell_angle_alpha   90.00143807
_cell_angle_beta   90.00653281
_cell_angle_gamma   120.03754203
_symmetry_Int_Tables_number   1
_chemical_formula_structural   H2O
_chemical_formula_sum   'H384 O192'
_cell_volume   6140.26456616
_cell_formula_units_Z   192
loop_
 _symmetry_equiv_pos_site_id
 _symmetry_equiv_pos_as_xyz
  1  'x, y, z'
loop_
 _atom_type_symbol
 _atom_type_oxidation_number
  H+  1.0
  O2-  -2.0
loop_
 _atom_site_type_symbol
 _atom_site_label
 _atom_site_symmetry_multiplicity
 _atom_site_fract_x
 _atom_site_fract_y
 _atom_site_fract_z
 _atom_site_occupancy
  H+  H0  1  0.10767470  0.10784807  0.80949020  1
  H+  H1  1  0.70440059  0.34691168  0.51242431  1
  H+  H2  1  0.86274608  0.22463668  0.67149178  1
  H+  H3  1  0.89654949  0.61503033  0.49981771  1
  H+  H4  1  0.28495143  0.14774920  0.32332455  1
  H+  H5  1  0.92043992  0.75200384  0.47805697  1
  H+  H6  1  0.36965135  0.26218912  0.54052935  1
  H+  H7  1  0.27199168  0.63468213  0.50173010  1
  H+  H8  1  0.83248914  0.92205553  0.59377544  1
  H+  H9  1  0.93114018  0.59739235  0.33485937  1
  H+  H10  1  0.70962518  0.83743031  0.82016864  1
  H+  H11  1  0.61436607  0.90208948  1.00269542  1
  H+  H12  1  0.21264620  0.85034884  0.66533073  1
  H+  H13  1  0.38524838  0.86864940  0.51070223  1
  H+  H14  1  0.08080919  0.68728872  0.17013911  1
  H+  H15  1  0.90076729  0.02971863  0.18282418  1
  H+  H16  1  0.13568832  0.12347300  0.17482771  1
  H+  H17  1  0.63637195  0.11276222  0.66608460  1
  H+  H18  1  0.19909412  0.33322550  0.93387847  1
  H+  H19  1  0.25595662  0.37077716  0.83652072  1
  H+  H20  1  0.89762708  0.14249774  0.49425435  1
  H+  H21  1  0.34689741  0.73345422  0.01682249  1
  H+  H22  1  0.10760311  -0.03133131  0.82195209  1
  H+  H23  1  0.59009142  0.35783603  0.66589266  1
  H+  H24  1  0.36102741  0.49977844  0.47360658  1
  H+  H25  1  0.02037316  0.52475122  0.45193145  1
  H+  H26  1  -0.03074898  0.60621031  0.84351997  1
  H+  H27  1  0.88078642  0.10264537  0.68630169  1
  H+  H28  1  0.04924638  0.42150795  0.38512150  1
  H+  H29  1  0.45490374  0.33681595  0.62264595  1
  H+  H30  1  0.76963037  0.93286435  0.00801964  1
  H+  H31  1  0.39301061  0.63253668  0.49768878  1
  H+  H32  1  0.63530269  1.02327597  0.66570045  1
  H+  H33  1  0.34709559  0.52356648  0.24057395  1
  H+  H34  1  0.45516329  0.11299529  0.51842145  1
  H+  H35  1  0.84310799  0.50566619  0.33033935  1
  H+  H36  1  0.62453979  0.26574809  0.66528272  1
  H+  H37  1  0.31721229  0.39759758  0.77923188  1
  H+  H38  1  0.87738168  0.22998693  0.01067593  1
  H+  H39  1  0.33981713  0.44877272  0.33388900  1
  H+  H40  1  0.52760586  0.90402965  0.01531743  1
  H+  H41  1  0.85177515  0.46663819  0.00332155  1
  H+  H42  1  0.23332174  0.62719913  0.34138007  1
  H+  H43  1  0.88141278  0.51654647  0.83926375  1
  H+  H44  1  0.52848599  0.38443034  0.17259421  1
  H+  H45  1  0.03200051  0.89882296  0.66615916  1
  H+  H46  1  -0.01534217  0.36784555  0.51350169  1
  H+  H47  1  0.36319478  1.02237686  0.33653721  1
  H+  H48  1  0.71759740  0.93858332  0.28614392  1
  H+  H49  1  0.30501530  0.40978371  0.50189415  1
  H+  H50  1  0.84656902  0.20279354  0.16400159  1
  H+  H51  1  0.12089421  0.89124345  0.33977600  1
  H+  H52  1  0.46695821  0.46671822  0.14668892  1
  H+  H53  1  0.36856885  0.13663439  0.32786041  1
  H+  H54  1  0.13127091  0.01661878  0.98568264  1
  H+  H55  1  0.11713051  0.36593757  0.18099863  1
  H+  H56  1  0.19211474  1.05767920  0.50918015  1
  H+  H57  1  0.37036465  0.21057680  0.17474038  1
  H+  H58  1  -0.02578603  0.36120135  0.65900173  1
  H+  H59  1  0.34494611  0.16737790  0.10852540  1
  H+  H60  1  0.62971259  0.34866129  0.82490493  1
  H+  H61  1  0.31770219  0.14508059  0.00887702  1
  H+  H62  1  0.50819064  0.12607108  0.35213563  1
  H+  H63  1  0.48188267  0.62807109  0.49457995  1
  H+  H64  1  0.66239692  0.60544192  0.82164311  1
  H+  H65  1  0.13041787  0.50879007  0.36587633  1
  H+  H66  1  0.58679212  0.12925390  0.50403211  1
  H+  H67  1  0.22729355  0.61885108  0.83836572  1
  H+  H68  1  0.25891919  0.64200206  0.00879094  1
  H+  H69  1  0.64580931  0.02657986  0.83852443  1
  H+  H70  1  0.63040640  0.35783664  0.16449553  1
  H+  H71  1  0.36168229  0.10755819  0.52719950  1
  H+  H72  1  0.60650276  0.96598660  0.33631369  1
  H+  H73  1  0.37011073  0.51461450  0.84569809  1
  H+  H74  1  0.04640813  0.57137550  0.46091822  1
  H+  H75  1  0.13196372  0.78233973  0.51383144  1
  H+  H76  1  0.38749792  0.51005131  0.00235845  1
  H+  H77  1  0.39684895  1.02142354  0.17123935  1
  H+  H78  1  0.86265220  0.38635222  0.82271660  1
  H+  H79  1  0.97124159  0.84342914  0.80603382  1
  H+  H80  1  0.84692561  0.21886733  0.34589741  1
  H+  H81  1  0.50691212  0.62369056  0.66399968  1
  H+  H82  1  0.61244845  0.25946582  0.51417105  1
  H+  H83  1  0.27468521  0.62969783  0.67578276  1
  H+  H84  1  0.38949930  0.22577687  0.69260891  1
  H+  H85  1  0.13763482  0.38538848  0.33678244  1
  H+  H86  1  0.36082589  0.63945487  0.82839470  1
  H+  H87  1  0.47790432  0.69841420  0.19192459  1
  H+  H88  1  0.10764580  0.65350162  0.38080850  1
  H+  H89  1  0.76952725  0.38934260  0.66977299  1
  H+  H90  1  0.32741617  0.90612338  0.77125524  1
  H+  H91  1  0.27129907  0.88934909  0.50790069  1
  H+  H92  1  0.46981022  0.85845393  0.66332912  1
  H+  H93  1  0.61487269  0.46672231  0.81101740  1
  H+  H94  1  0.85811245  -0.02454458  0.65640815  1
  H+  H95  1  0.86949842  0.14158061  0.34475361  1
  H+  H96  1  0.79252732  0.91093042  0.35173454  1
  H+  H97  1  0.90743107  0.16149215  1.00665790  1
  H+  H98  1  0.68743993  0.84689559  0.26332463  1
  H+  H99  1  0.88938345  0.23756654  0.49561673  1
  H+  H100  1  0.35277016  0.96197922  0.67867057  1
  H+  H101  1  0.51904015  0.88760881  0.83415822  1
  H+  H102  1  0.11630359  0.22354116  0.52208910  1
  H+  H103  1  0.64627416  0.61539313  0.16613519  1
  H+  H104  1  0.78958345  0.14387927  0.82896950  1
  H+  H105  1  0.89925817  0.04150716  0.33989658  1
  H+  H106  1  0.49663216  0.69425848  0.22151691  1
  H+  H107  1  0.13294332  0.77002680  0.83972897  1
  H+  H108  1  0.62168746  0.75633769  0.83946929  1
  H+  H109  1  0.60415094  0.88192756  0.67453421  1
  H+  H110  1  0.85240774  0.62806703  0.67280594  1
  H+  H111  1  0.11613036  0.99302423  0.16059343  1
  H+  H112  1  0.18177186  0.45558149  -0.06245218  1
  H+  H113  1  0.38590857  0.77768490  0.84951358  1
  H+  H114  1  0.14173842  0.10928553  0.99123949  1
  H+  H115  1  0.90175394  0.03311876  0.50919814  1
  H+  H116  1  0.35134616  0.87253879  0.67635558  1
  H+  H117  1  0.64670009  0.50548487  0.35586040  1
  H+  H118  1  1.03747379  0.13905009  0.35303518  1
  H+  H119  1  0.22896697  0.48695488  0.93939538  1
  H+  H120  1  0.88538896  0.85890829  0.64431241  1
  H+  H121  1  0.88430872  0.60007686  -0.00819124  1
  H+  H122  1  0.56218429  0.39892304  0.75797890  1
  H+  H123  1  0.86708413  0.88437603  0.50587843  1
  H+  H124  1  0.62903608  0.13684867  1.00074158  1
  H+  H125  1  0.83915577  0.94090430  0.78363635  1
  H+  H126  1  0.51831042  0.88113807  0.49602264  1
  H+  H127  1  0.36311059  0.21829307  0.84329068  1
  H+  H128  1  0.88280605  0.84797246  -0.00147708  1
  H+  H129  1  0.92168769  0.05767644  0.98192823  1
  H+  H130  1  0.77306741  0.88063178  0.50720476  1
  H+  H131  1  0.59073077  0.71564085  0.33938441  1
  H+  H132  1  0.91505566  0.32997589  0.56571244  1
  H+  H133  1  0.01504170  0.72539709  0.72169390  1
  H+  H134  1  0.64595991  0.11499304  0.83591272  1
  H+  H135  1  0.20514262  0.10412207  0.60748847  1
  H+  H136  1  0.47602476  0.36631082  0.83972776  1
  H+  H137  1  0.89326012  0.28213045  0.83914939  1
  H+  H138  1  0.17249087  0.76082345  0.32135300  1
  H+  H139  1  0.64732112  0.57945449  0.56588600  1
  H+  H140  1  0.71307470  0.85292018  0.64653048  1
  H+  H141  1  0.62684039  0.46524021  1.00065313  1
  H+  H142  1  0.59835119  0.66148553  -0.01340393  1
  H+  H143  1  0.15057033  0.23334839  0.01043084  1
  H+  H144  1  0.77255223  0.13620385  0.67564603  1
  H+  H145  1  0.85731240  0.48010852  0.67082009  1
  H+  H146  1  0.24680857  0.89475544  0.35661242  1
  H+  H147  1  0.89124982  0.11305066  0.17825798  1
  H+  H148  1  0.38590729  0.01352821  0.84312643  1
  H+  H149  1  -0.01345182  0.69496625  0.40777752  1
  H+  H150  1  0.59623943  0.62400572  0.66887573  1
  H+  H151  1  0.61715042  0.72528937  0.48561515  1
  H+  H152  1  0.37398164  0.51267278  0.62725368  1
  H+  H153  1  0.11435493  0.23094327  0.66192781  1
  H+  H154  1  0.88481682  0.77143828  0.65848120  1
  H+  H155  1  0.12012642  0.98018287  0.33415347  1
  H+  H156  1  0.09944761  0.57893501  0.17281448  1
  H+  H157  1  0.73248805  0.61204415  0.17202141  1
  H+  H158  1  0.47208993  0.75718399  0.27761461  1
  H+  H159  1  0.65107023  0.86232203  0.16881134  1
  H+  H160  1  0.36841827  0.71052923  0.34233971  1
  H+  H161  1  0.02777842  0.14902158  0.16615904  1
  H+  H162  1  0.11732058  0.76460788  -0.00706722  1
  H+  H163  1  0.10459039  0.87887397  0.00489691  1
  H+  H164  1  0.64176103  0.76789918  0.16848851  1
  H+  H165  1  0.78236922  0.88452096  0.16111361  1
  H+  H166  1  0.22214198  0.10645864  0.84035187  1
  H+  H167  1  0.89474380  0.77334493  0.31841741  1
  H+  H168  1  0.42983205  0.35435225  0.92709167  1
  H+  H169  1  0.84465021  0.37108923  0.15926960  1
  H+  H170  1  0.86922190  0.60060900  0.17409700  1
  H+  H171  1  0.12665606  0.90993575  0.16260767  1
  H+  H172  1  0.45400913  0.58785081  0.32332902  1
  H+  H173  1  0.58682275  0.21877168  0.35061347  1
  H+  H174  1  0.99581239  0.86715453  0.32074626  1
  H+  H175  1  0.13197929  0.48402011  0.52312997  1
  H+  H176  1  0.40824946  0.60144237  0.93228058  1
  H+  H177  1  0.70647977  0.59456685  0.66772195  1
  H+  H178  1  0.56264635  0.91738098  0.16441400  1
  H+  H179  1  0.39569143  0.94935697  -0.00450645  1
  H+  H180  1  0.77128291  0.65929084  0.33423209  1
  H+  H181  1  0.62960701  0.41098355  0.35058723  1
  H+  H182  1  -0.01117856  0.60600870  0.16282789  1
  H+  H183  1  0.86904083  0.72687702  0.15776768  1
  H+  H184  1  1.01769189  0.13751180  0.99281459  1
  H+  H185  1  0.37680289  0.63155663  0.99291952  1
  H+  H186  1  0.64170728  0.79866807  -0.01201671  1
  H+  H187  1  0.71933002  0.35775857  0.16868807  1
  H+  H188  1  0.63049349  0.14529818  0.16238464  1
  H+  H189  1  1.03518829  0.14107715  0.81176078  1
  H+  H190  1  0.63371779  0.85917605  0.50195804  1
  H+  H191  1  0.11795295  0.89360677  0.66644280  1
  H+  H192  1  0.48551300  0.10633349  0.17951720  1
  H+  H193  1  0.94096232  0.17738095  0.83950155  1
  H+  H194  1  0.11646755  0.48228473  0.82223420  1
  H+  H195  1  0.84301948  0.46157908  0.49664761  1
  H+  H196  1  0.62131093  0.02272262  0.50989684  1
  H+  H197  1  0.84043925  0.00911836  0.86017180  1
  H+  H198  1  0.08607384  0.41661884  0.76458335  1
  H+  H199  1  0.14181736  0.60042147  0.66205350  1
  H+  H200  1  0.87895376  0.83560617  0.79725392  1
  H+  H201  1  0.40455475  0.25182239  0.30267115  1
  H+  H202  1  0.63198944  0.62105362  0.32382319  1
  H+  H203  1  0.85094620  0.17091403  0.43399510  1
  H+  H204  1  0.57628576  0.91254915  0.73496680  1
  H+  H205  1  0.88591180  0.36387811  0.65726903  1
  H+  H206  1  0.36706672  0.58872029  0.33383948  1
  H+  H207  1  0.49277547  0.37985118  -0.00738794  1
  H+  H208  1  0.14877576  0.15749860  0.50896706  1
  H+  H209  1  0.15345531  0.82710131  0.93592209  1
  H+  H210  1  0.10505186  0.37145977  0.66841561  1
  H+  H211  1  -0.01278734  0.87089463  0.16881200  1
  H+  H212  1  0.72544020  0.37170933  0.34825155  1
  H+  H213  1  0.01088862  0.38613066  0.00865724  1
  H+  H214  1  1.00731586  0.61900456  1.00102829  1
  H+  H215  1  0.21674388  0.39833225  0.19379606  1
  H+  H216  1  0.36290246  0.63011594  0.67094883  1
  H+  H217  1  0.38075669  0.89320492  0.15528520  1
  H+  H218  1  0.88129424  0.36183763  0.99251238  1
  H+  H219  1  0.43791459  0.80871644  0.15202158  1
  H+  H220  1  0.29843392  0.32021530  0.14173176  1
  H+  H221  1  0.38390336  0.76616678  0.66185155  1
  H+  H222  1  0.35596685  0.73173002  0.49487176  1
  H+  H223  1  0.34883425  0.90611510  0.09147055  1
  H+  H224  1  0.41114247  0.40252280  0.99127184  1
  H+  H225  1  0.15601165  1.03714185  0.66165553  1
  H+  H226  1  0.25323422  0.36794664  0.60656469  1
  H+  H227  1  0.37707609  0.88164457  0.33292334  1
  H+  H228  1  0.10969490  0.76973141  0.66870209  1
  H+  H229  1  0.87001905  0.69104249  0.42140609  1
  H+  H230  1  0.46198498  0.59748692  0.83755843  1
  H+  H231  1  0.38725077  0.11873702  0.01861399  1
  H+  H232  1  0.99982495  0.88600548  0.50574558  1
  H+  H233  1  0.49044399  0.09190419  -0.00654424  1
  H+  H234  1  0.53473580  0.61159424  0.13850043  1
  H+  H235  1  0.18590503  0.57560584  0.17129521  1
  H+  H236  1  0.60304829  0.87913662  0.82799898  1
  H+  H237  1  0.38716309  0.10161141  0.67568759  1
  H+  H238  1  0.31896233  0.67808089  0.17075735  1
  H+  H239  1  0.13080473  0.52636496  0.99697520  1
  H+  H240  1  0.92621352  0.36159127  0.32362773  1
  H+  H241  1  0.05018343  0.72799205  0.35028751  1
  H+  H242  1  0.38244994  0.36039637  0.84649460  1
  H+  H243  1  0.90792485  0.56633994  0.92963658  1
  H+  H244  1  0.13349757  0.37069934  0.84222600  1
  H+  H245  1  0.61859798  0.22706109  0.15813099  1
  H+  H246  1  0.84749823  0.46304129  0.16026253  1
  H+  H247  1  0.83158009  0.34296479  0.32929240  1
  H+  H248  1  0.78505942  0.62627397  1.00118049  1
  H+  H249  1  0.51970997  0.12808101  0.67650712  1
  H+  H250  1  0.31484694  0.54733073  0.17960101  1
  H+  H251  1  0.69652647  0.01929131  0.21558255  1
  H+  H252  1  0.66852792  0.59345804  0.26604945  1
  H+  H253  1  0.12539418  0.61199747  0.99400429  1
  H+  H254  1  0.13581317  0.85999691  0.83636205  1
  H+  H255  1  0.13114137  0.90847754  0.49753545  1
  H+  H256  1  0.89549179  0.86696726  0.16948188  1
  H+  H257  1  0.73304273  0.09782017  0.32304752  1
  H+  H258  1  0.37074515  0.88406768  0.29934197  1
  H+  H259  1  0.88127327  1.00742729  0.85627467  1
  H+  H260  1  0.15705615  0.81171528  0.14761966  1
  H+  H261  1  0.61894067  0.88699422  0.34133770  1
  H+  H262  1  0.63031495  0.24556102  0.00585453  1
  H+  H263  1  0.10559669  0.34441081  0.55685953  1
  H+  H264  1  0.14967963  0.60206801  0.52289394  1
  H+  H265  1  0.96704712  0.63282045  0.67168706  1
  H+  H266  1  0.97464530  0.85511633  0.99918731  1
  H+  H267  1  0.39494384  0.33169206  0.22168641  1
  H+  H268  1  0.66085415  0.58974377  0.95420340  1
  H+  H269  1  0.61268264  0.47910121  0.16268293  1
  H+  H270  1  0.53447607  0.55160179  0.79405208  1
  H+  H271  1  0.98114769  0.37199881  0.83874246  1
  H+  H272  1  0.26644241  0.36971849  -0.01048624  1
  H+  H273  1  0.51448877  0.66470218  -0.00025956  1
  H+  H274  1  0.86504317  0.71613612  0.77079398  1
  H+  H275  1  0.94592673  0.34125003  0.17842371  1
  H+  H276  1  0.84712245  0.63889162  0.32994136  1
  H+  H277  1  0.26870006  0.88006829  0.83113347  1
  H+  H278  1  0.14139213  0.10736336  0.33301194  1
  H+  H279  1  0.38332490  0.86471518  0.84774771  1
  H+  H280  1  0.07806255  0.45362436  0.16856085  1
  H+  H281  1  0.34099276  0.37189288  0.58524695  1
  H+  H282  1  0.24855270  0.87887535  0.16807686  1
  H+  H283  1  0.86868907  0.72018553  1.00733785  1
  H+  H284  1  0.27966142  0.30896418  0.17327200  1
  H+  H285  1  0.96103839  0.58355296  0.51467853  1
  H+  H286  1  0.29217956  0.14668418  0.68630800  1
  H+  H287  1  0.61398158  0.22060086  0.82381088  1
  H+  H288  1  0.34039828  0.16308968  0.78260099  1
  H+  H289  1  0.41269449  0.06867003  0.27254259  1
  H+  H290  1  0.10251825  0.18029546  0.07212442  1
  H+  H291  1  0.15765536  0.83294285  0.57764015  1
  H+  H292  1  0.57655803  0.91077316  0.43619298  1
  H+  H293  1  0.81133791  1.02295660  0.04027385  1
  H+  H294  1  0.59634229  0.16224461  0.06627090  1
  H+  H295  1  0.39438255  0.46639199  0.06357041  1
  H+  H296  1  0.29876348  0.34967219  0.70436557  1
  H+  H297  1  0.30157575  0.93528360  0.41718461  1
  H+  H298  1  0.52672156  0.12802920  0.82931893  1
  H+  H299  1  0.90749793  0.58905684  0.60785880  1
  H+  H300  1  0.22909950  0.36809301  0.33526060  1
  H+  H301  1  0.33098079  0.66325718  0.40767837  1
  H+  H302  1  0.99661854  0.11801949  0.50762713  1
  H+  H303  1  0.30682184  0.64597273  0.10154064  1
  H+  H304  1  0.35674023  0.98038143  0.50795225  1
  H+  H305  1  0.09855264  0.38542767  0.01567905  1
  H+  H306  1  0.91899922  0.33991925  0.93286041  1
  H+  H307  1  0.09031500  0.91933260  0.75882503  1
  H+  H308  1  0.62922337  0.34582111  1.00399152  1
  H+  H309  1  0.41764027  0.59261604  0.58632164  1
  H+  H310  1  0.42609044  0.06099762  0.93659419  1
  H+  H311  1  0.16408756  0.08220299  0.26745262  1
  H+  H312  1  0.41287345  0.83308927  0.56824725  1
  H+  H313  1  0.70027540  0.55654847  0.90749742  1
  H+  H314  1  0.82367241  0.40840360  0.06514997  1
  H+  H315  1  0.34740376  0.37224874  0.70314402  1
  H+  H316  1  0.59160555  0.37796398  0.50412592  1
  H+  H317  1  0.11573956  0.23961837  0.16779244  1
  H+  H318  1  0.61582834  0.50641967  0.66117109  1
  H+  H319  1  0.55865796  0.16218389  0.44491945  1
  H+  H320  1  0.06085548  0.64900330  0.06308462  1
  H+  H321  1  0.83958885  0.93466779  0.10422981  1
  H+  H322  1  0.85020907  0.37685346  0.49326907  1
  H+  H323  1  0.93530770  0.83403410  0.56052734  1
  H+  H324  1  0.45652240  0.35186041  0.52546103  1
  H+  H325  1  0.05277140  0.39490947  0.10878879  1
  H+  H326  1  0.74417293  0.60007375  0.80070014  1
  H+  H327  1  0.92764503  0.09620879  0.27750875  1
  H+  H328  1  0.72108515  0.35419516  0.82697867  1
  H+  H329  1  0.65158389  0.08051321  0.56911724  1
  H+  H330  1  0.84704565  0.15821951  0.10244629  1
  H+  H331  1  0.57935166  0.42053887  0.44554171  1
  H+  H332  1  0.55366063  0.31170777  0.29499015  1
  H+  H333  1  0.60816814  0.63035398  0.48967967  1
  H+  H334  1  0.22390392  0.12115862  0.17296268  1
  H+  H335  1  0.61362357  0.51482736  0.51071754  1
  H+  H336  1  0.67276670  0.85091197  0.92653467  1
  H+  H337  1  0.30762760  0.40237733  0.39772755  1
  H+  H338  1  0.57280088  0.65867154  0.39873279  1
  H+  H339  1  0.08386014  0.14896862  0.73609346  1
  H+  H340  1  0.17892564  0.57658664  0.59984816  1
  H+  H341  1  0.06740017  0.67174822  0.76815180  1
  H+  H342  1  0.93305635  0.83784819  0.25449268  1
  H+  H343  1  0.62368722  0.76347508  0.65824324  1
  H+  H344  1  0.83630038  0.66402115  0.09926738  1
  H+  H345  1  0.49419661  0.83982786  0.31608960  1
  H+  H346  1  0.16434865  0.58624154  0.89609272  1
  H+  H347  1  0.84036973  0.93798320  0.41531212  1
  H+  H348  1  0.64063184  1.03416815  -0.00920291  1
  H+  H349  1  0.79214329  0.39798674  0.40369324  1
  H+  H350  1  0.44263312  0.83247258  0.22234425  1
  H+  H351  1  0.10725926  0.94086124  0.43705617  1
  H+  H352  1  0.11513564  0.46592509  0.67092701  1
  H+  H353  1  0.63526625  0.32196668  0.26078499  1
  H+  H354  1  0.79954980  0.87526760  0.73107581  1
  H+  H355  1  0.64857105  0.32262647  0.60356877  1
  H+  H356  1  0.59505497  0.67570576  0.08918329  1
  H+  H357  1  0.56066796  0.63352691  0.75448966  1
  H+  H358  1  0.65256717  0.82194981  0.56192176  1
  H+  H359  1  0.58076004  0.16102611  0.73532187  1
  H+  H360  1  0.15258286  0.34698395  0.27195409  1
  H+  H361  1  0.10778532  0.63689423  0.82085077  1
  H+  H362  1  0.40940353  0.84474927  0.94506342  1
  H+  H363  1  0.09964643  0.16384965  0.41029891  1
  H+  H364  1  0.67020508  0.09086449  0.92901530  1
  H+  H365  1  0.15522340  0.07620223  0.89527487  1
  H+  H366  1  0.16844323  0.81481206  0.26383240  1
  H+  H367  1  0.10372031  0.27473763  0.85689127  1
  H+  H368  1  0.58461221  0.41808285  0.06539749  1
  H+  H369  1  0.87715720  0.31227862  0.23341701  1
  H+  H370  1  0.39887800  0.49864578  0.16123950  1
  H+  H371  1  0.08291708  0.91930455  0.06363043  1
  H+  H372  1  0.83319742  0.41503015  0.76214661  1
  H+  H373  1  0.40673891  0.07306418  0.61156251  1
  H+  H374  1  0.96695641  0.09881004  0.67947920  1
  H+  H375  1  0.61876677  0.94354195  0.10535251  1
  H+  H376  1  0.72530752  0.35316462  0.00174016  1
  H+  H377  1  0.38807890  0.10320756  0.85074970  1
  H+  H378  1  0.11314563  0.41736817  0.46909904  1
  H+  H379  1  0.33693077  0.67169475  0.76817692  1
  H+  H380  1  0.12962490  0.14486323  0.66375849  1
  H+  H381  1  0.97967527  0.15211096  0.89679551  1
  H+  H382  1  0.88840860  0.56340919  0.23540786  1
  H+  H383  1  0.84348158  0.17582472  0.76743387  1
  O2-  O384  1  0.08848029  0.18111458  0.15011941  1
  O2-  O385  1  0.10652425  0.17433855  0.49586483  1
  O2-  O386  1  0.06628891  0.11930214  0.78459374  1
  O2-  O387  1  0.04902629  0.39100243  0.15403551  1
  O2-  O388  1  0.09536978  0.41834762  0.51113311  1
  O2-  O389  1  0.08622723  0.42015956  0.81026454  1
  O2-  O390  1  0.04980388  0.63486177  0.14625059  1
  O2-  O391  1  0.01476141  0.67743155  0.37605935  1
  O2-  O392  1  0.07558731  0.66752854  0.81357432  1
  O2-  O393  1  0.08892985  0.93065472  0.14668302  1
  O2-  O394  1  0.10942899  0.94632583  0.48191272  1
  O2-  O395  1  0.08174073  0.91001327  0.80378876  1
  O2-  O396  1  0.32201854  0.17374539  0.14811370  1
  O2-  O397  1  0.30980700  0.15978077  0.51417220  1
  O2-  O398  1  0.33354409  0.15856343  0.82813575  1
  O2-  O399  1  0.44549185  0.50390553  0.13221016  1
  O2-  O400  1  0.31993967  0.43907873  0.46216277  1
  O2-  O401  1  0.31861073  0.40269399  0.82374324  1
  O2-  O402  1  0.29712213  0.62680995  0.14552781  1
  O2-  O403  1  0.32920596  0.67154873  0.47898958  1
  O2-  O404  1  0.33497377  0.67380827  0.81384196  1
  O2-  O405  1  0.34520032  0.91471484  0.13578392  1
  O2-  O406  1  0.33021675  0.92045268  0.49046829  1
  O2-  O407  1  0.33033683  0.90974582  0.81685314  1
  O2-  O408  1  0.59569262  0.16617417  0.14292310  1
  O2-  O409  1  0.55674919  0.16147741  0.49109342  1
  O2-  O410  1  0.58553136  0.15733206  0.81141093  1
  O2-  O411  1  0.57690420  0.42021515  0.14436498  1
  O2-  O412  1  0.56042128  0.40701011  0.48901047  1
  O2-  O413  1  0.56837032  0.40653508  0.80332004  1
  O2-  O414  1  0.59261662  0.66333802  0.13340480  1
  O2-  O415  1  0.58403127  0.66544337  0.46940734  1
  O2-  O416  1  0.55820985  0.61355046  0.79868806  1
  O2-  O417  1  0.62221536  0.93825897  0.15028310  1
  O2-  O418  1  0.57927695  0.90962793  0.48124425  1
  O2-  O419  1  0.57751939  0.91427166  0.81518705  1
  O2-  O420  1  0.83368631  0.14668422  0.14689675  1
  O2-  O421  1  0.86420477  0.17575776  0.47971541  1
  O2-  O422  1  0.84929835  0.17947051  0.81299877  1
  O2-  O423  1  0.81753846  0.40415119  0.14194857  1
  O2-  O424  1  0.81430430  0.40181116  0.48043503  1
  O2-  O425  1  0.82940755  0.41341623  0.80745876  1
  O2-  O426  1  0.83529948  0.66551952  0.14511993  1
  O2-  O427  1  0.91071965  0.69956532  0.45496225  1
  O2-  O428  1  0.83020522  0.65322289  0.75537088  1
  O2-  O429  1  0.84332590  0.91911582  0.14704370  1
  O2-  O430  1  0.83740012  0.91880339  0.50697146  1
  O2-  O431  1  0.80439403  0.87919859  0.77550729  1
  O2-  O432  1  0.16256009  0.08905326  0.18832238  1
  O2-  O433  1  0.21819532  0.11321510  0.53196362  1
  O2-  O434  1  0.15909171  0.07616911  0.84895164  1
  O2-  O435  1  0.15811965  0.34911570  0.20005088  1
  O2-  O436  1  0.09769375  0.28946078  0.57449537  1
  O2-  O437  1  0.15528867  0.33272574  0.85895133  1
  O2-  O438  1  0.12815876  0.54851823  0.18974973  1
  O2-  O439  1  0.18427622  0.57753559  0.53669570  1
  O2-  O440  1  0.16561311  0.58527471  0.85087173  1
  O2-  O441  1  0.18652004  0.85003585  0.18172499  1
  O2-  O442  1  0.16228075  0.84005031  0.53086021  1
  O2-  O443  1  0.16567397  0.83116923  0.85460950  1
  O2-  O444  1  0.42662672  0.07431390  0.19575042  1
  O2-  O445  1  0.39640303  0.07824491  0.53711128  1
  O2-  O446  1  0.42000339  0.07271947  0.86094246  1
  O2-  O447  1  0.43923322  0.31495649  0.21894259  1
  O2-  O448  1  0.40902966  0.32302073  0.55559018  1
  O2-  O449  1  0.41964583  0.33821644  0.86296259  1
  O2-  O450  1  0.32371624  0.50230456  0.19887567  1
  O2-  O451  1  0.42175250  0.59944735  0.51059883  1
  O2-  O452  1  0.40465980  0.57678737  0.85648128  1
  O2-  O453  1  0.44813365  0.85540106  0.17960855  1
  O2-  O454  1  0.41388652  0.83513106  0.52268518  1
  O2-  O455  1  0.41463701  0.83695876  0.86689397  1
  O2-  O456  1  0.72882783  0.03095036  0.25437826  1
  O2-  O457  1  0.64265331  0.08190299  0.52469193  1
  O2-  O458  1  0.67893153  0.08742961  0.85204901  1
  O2-  O459  1  0.65713701  0.32610081  0.18219795  1
  O2-  O460  1  0.64586763  0.32119636  0.52982258  1
  O2-  O461  1  0.65993328  0.31954664  0.84028249  1
  O2-  O462  1  0.67113502  0.58277310  0.18609470  1
  O2-  O463  1  0.64536056  0.57739417  0.52108568  1
  O2-  O464  1  0.69264420  0.57322074  0.82881742  1
  O2-  O465  1  0.67590347  0.82714422  0.18482990  1
  O2-  O466  1  0.66396128  0.82827006  0.51718075  1
  O2-  O467  1  0.65783943  0.81802538  0.84647946  1
  O2-  O468  1  0.92822082  0.09014583  0.19669153  1
  O2-  O469  1  0.93444316  0.09588753  0.51664835  1
  O2-  O470  1  0.99398430  0.17914124  0.85527962  1
  O2-  O471  1  0.88296214  0.31278649  0.18850370  1
  O2-  O472  1  0.92069242  0.33198462  0.51988266  1
  O2-  O473  1  0.92120901  0.34246578  0.85517166  1
  O2-  O474  1  0.89291579  0.56413616  0.18984572  1
  O2-  O475  1  0.90248843  0.57052685  0.52354337  1
  O2-  O476  1  0.90984847  0.57336478  0.86015095  1
  O2-  O477  1  0.92636279  0.83683346  0.18495521  1
  O2-  O478  1  0.93853690  0.84305346  0.51545307  1
  O2-  O479  1  0.90791983  0.80241350  0.80470689  1
  O2-  O480  1  0.16948182  0.07695558  0.31233903  1
  O2-  O481  1  0.19182931  0.09990549  0.65220873  1
  O2-  O482  1  0.16354060  0.07607671  0.96883477  1
  O2-  O483  1  0.15679082  0.34705563  0.31827141  1
  O2-  O484  1  0.14372203  0.31392718  0.63381940  1
  O2-  O485  1  0.22062883  0.31753705  0.97024049  1
  O2-  O486  1  0.17002515  0.60852467  0.33500557  1
  O2-  O487  1  0.17417810  0.57270081  0.64967640  1
  O2-  O488  1  0.16112731  0.58578004  0.98049761  1
  O2-  O489  1  0.15644301  0.80400416  0.30793849  1
  O2-  O490  1  0.15430124  0.82863656  0.64739108  1
  O2-  O491  1  0.14749244  0.82591859  0.98098542  1
  O2-  O492  1  0.40951968  0.07650658  0.31738010  1
  O2-  O493  1  0.41242987  0.06866080  0.65703374  1
  O2-  O494  1  0.42986716  0.05205969  0.98154178  1
  O2-  O495  1  0.45934010  0.31205923  0.28383469  1
  O2-  O496  1  0.46449707  0.33434518  0.66835217  1
  O2-  O497  1  0.43373763  0.36303832  0.97516522  1
  O2-  O498  1  0.39193599  0.55670833  0.31259338  1
  O2-  O499  1  0.40936002  0.57635210  0.63090771  1
  O2-  O500  1  0.41465846  0.60911408  0.97752130  1
  O2-  O501  1  0.44720313  0.79219646  0.29034177  1
  O2-  O502  1  0.40967297  0.82693715  0.64724461  1
  O2-  O503  1  0.41431774  0.84744202  0.99132433  1
  O2-  O504  1  0.68353410  0.06030976  0.29537056  1
  O2-  O505  1  0.66837415  0.08391150  0.65127457  1
  O2-  O506  1  0.66779598  0.09368661  0.97451576  1
  O2-  O507  1  0.61224571  0.31876352  0.30252712  1
  O2-  O508  1  0.64896581  0.32644383  0.64974199  1
  O2-  O509  1  0.66099539  0.31620020  0.99066634  1
  O2-  O510  1  0.67268277  0.60141765  0.31107497  1
  O2-  O511  1  0.64669795  0.56874707  0.65204351  1
  O2-  O512  1  0.68952662  0.55602540  0.95234042  1
  O2-  O513  1  0.69853533  0.87940337  0.30229674  1
  O2-  O514  1  0.64943566  0.82327772  0.64208812  1
  O2-  O515  1  0.67237463  0.85811186  0.97130917  1
  O2-  O516  1  0.92741257  0.10152256  0.32279923  1
  O2-  O517  1  0.90557189  0.06387376  0.68989091  1
  O2-  O518  1  0.96221330  0.11695609  0.96901216  1
  O2-  O519  1  0.86742369  0.31790475  0.31385801  1
  O2-  O520  1  0.91409129  0.33146122  0.64244664  1
  O2-  O521  1  0.91796645  0.33787349  0.97858625  1
  O2-  O522  1  0.87609906  0.56409091  0.31178403  1
  O2-  O523  1  0.90358384  0.58813094  0.65266160  1
  O2-  O524  1  0.90769962  0.56351481  0.97682108  1
  O2-  O525  1  0.93463618  0.83510301  0.30174282  1
  O2-  O526  1  0.91916430  0.82908134  0.63955870  1
  O2-  O527  1  0.91275494  0.81797873  0.98584045  1
  O2-  O528  1  0.10714059  0.17564087  0.02712426  1
  O2-  O529  1  0.09649303  0.15549846  0.36587571  1
  O2-  O530  1  0.09226355  0.16744727  0.68000213  1
  O2-  O531  1  0.06968222  0.41599320  0.02961299  1
  O2-  O532  1  0.11100189  0.44827699  0.37911523  1
  O2-  O533  1  0.07961956  0.40567560  0.68655626  1
  O2-  O534  1  0.06743884  0.65357183  0.01835235  1
  O2-  O535  1  0.16926028  0.67803232  0.37038932  1
  O2-  O536  1  0.04116224  0.69552028  0.70163817  1
  O2-  O537  1  0.07574268  0.91268289  0.01887148  1
  O2-  O538  1  0.08629245  0.91782430  0.35024727  1
  O2-  O539  1  0.09241177  0.92971586  0.68052814  1
  O2-  O540  1  0.37021716  0.16076686  0.03181014  1
  O2-  O541  1  0.34749430  0.17929455  0.33250324  1
  O2-  O542  1  0.34916594  0.16644044  0.70650237  1
  O2-  O543  1  0.37465740  0.45340349  0.02024458  1
  O2-  O544  1  0.30161182  0.39041973  0.35145847  1
  O2-  O545  1  0.31232671  0.40611309  0.59034950  1
  O2-  O546  1  0.31895248  0.67132409  0.02707419  1
  O2-  O547  1  0.33007225  0.65411217  0.36147910  1
  O2-  O548  1  0.33648206  0.66195050  0.68979479  1
  O2-  O549  1  0.36328321  0.88731009  0.01057244  1
  O2-  O550  1  0.28173372  0.94886544  0.37848024  1
  O2-  O551  1  0.31968710  0.90077549  0.69290026  1
  O2-  O552  1  0.59559617  0.16678231  0.02071223  1
  O2-  O553  1  0.56621903  0.16283770  0.37058562  1
  O2-  O554  1  0.58128449  0.16390110  0.68949657  1
  O2-  O555  1  0.58575941  0.40957322  0.02034616  1
  O2-  O556  1  0.64150696  0.45678893  0.38011962  1
  O2-  O557  1  0.55689366  0.39047585  0.68037034  1
  O2-  O558  1  0.57754195  0.69203651  0.01152343  1
  O2-  O559  1  0.56477168  0.65583361  0.35220716  1
  O2-  O560  1  0.56576883  0.65472403  0.68351088  1
  O2-  O561  1  0.58971173  0.93283521  0.02542062  1
  O2-  O562  1  0.57811442  0.90684828  0.35387664  1
  O2-  O563  1  0.57579530  0.91395552  0.68954704  1
  O2-  O564  1  0.86617676  0.17427528  0.02758336  1
  O2-  O565  1  0.82994002  0.16137585  0.36310234  1
  O2-  O566  1  0.83375946  0.16630453  0.69037776  1
  O2-  O567  1  0.82049264  0.40536368  0.01950030  1
  O2-  O568  1  0.78700172  0.39798004  0.35810268  1
  O2-  O569  1  0.83074441  0.41779334  0.68205654  1
  O2-  O570  1  0.84018464  0.65847315  0.02302572  1
  O2-  O571  1  0.83452812  0.68439849  0.34454628  1
  O2-  O572  1  0.81896627  0.65896816  0.68928935  1
  O2-  O573  1  0.82142948  0.97540799  0.03106580  1
  O2-  O574  1  0.84974223  0.94248560  0.37114840  1
  O2-  O575  1  0.82709231  0.91421429  0.63861607  1
