# generated using pymatgen
data_H2O
_symmetry_space_group_name_H-M   'P 1'
_cell_length_a   17.98163170
_cell_length_b   18.00083321
_cell_length_c   22.00780174
_cell_angle_alpha   90.02532722
_cell_angle_beta   89.98586973
_cell_angle_gamma   120.02970008
_symmetry_Int_Tables_number   1
_chemical_formula_structural   H2O
_chemical_formula_sum   'H384 O192'
_cell_volume   6167.35442966
_cell_formula_units_Z   192
loop_
 _symmetry_equiv_pos_site_id
 _symmetry_equiv_pos_as_xyz
  1  'x, y, z'
loop_
 _atom_type_symbol
 _atom_type_oxidation_number
  H+  1.0
  O2-  -2.0
loop_
 _atom_site_type_symbol
 _atom_site_label
 _atom_site_symmetry_multiplicity
 _atom_site_fract_x
 _atom_site_fract_y
 _atom_site_fract_z
 _atom_site_occupancy
  H+  H0  1  0.36729613  0.22690991  0.49600312  1
  H+  H1  1  0.81689956  0.42131151  0.17425641  1
  H+  H2  1  0.10969324  0.38188819  0.15904839  1
  H+  H3  1  0.35097834  0.71142488  0.00086695  1
  H+  H4  1  0.29137162  0.90285125  0.66269602  1
  H+  H5  1  0.46778558  0.61948457  0.65659516  1
  H+  H6  1  0.38830645  0.38108579  0.84738104  1
  H+  H7  1  0.61350625  0.75863878  0.68531150  1
  H+  H8  1  0.36123487  0.88124935  0.99066288  1
  H+  H9  1  0.88456432  0.74485204  0.85330691  1
  H+  H10  1  0.12796260  0.99563438  0.86090057  1
  H+  H11  1  0.09334099  0.66315112  0.08582568  1
  H+  H12  1  1.02329002  0.62317548  0.68368436  1
  H+  H13  1  0.38384866  0.78025710  0.34857652  1
  H+  H14  1  0.88188252  0.62853101  0.84413805  1
  H+  H15  1  0.63158066  0.77416011  0.17043257  1
  H+  H16  1  0.13606095  0.08683968  0.33699740  1
  H+  H17  1  0.32682384  0.65771584  0.09663903  1
  H+  H18  1  0.62223497  -0.00745736  0.99386642  1
  H+  H19  1  0.88480683  0.02722721  0.66111863  1
  H+  H20  1  0.66368363  0.08044525  0.59768264  1
  H+  H21  1  0.10867104  1.04391202  0.05652997  1
  H+  H22  1  0.22769695  0.62600397  0.32316790  1
  H+  H23  1  0.85165603  0.88301204  0.00713905  1
  H+  H24  1  0.37929665  0.00758702  0.18990689  1
  H+  H25  1  0.39026770  0.97917254  0.50517263  1
  H+  H26  1  0.48665663  0.62024564  0.99590367  1
  H+  H27  1  0.47742923  0.36831225  0.51329430  1
  H+  H28  1  0.59394929  0.96424836  0.15406595  1
  H+  H29  1  0.65479816  0.31868331  0.93862079  1
  H+  H30  1  0.11583231  0.71344835  0.60087278  1
  H+  H31  1  0.85682913  0.21212381  0.16406783  1
  H+  H32  1  0.60333334  0.11744440  0.15615725  1
  H+  H33  1  0.16688567  0.87242468  0.32889137  1
  H+  H34  1  0.37522953  0.38612182  0.34133686  1
  H+  H35  1  0.02468976  0.63695160  0.00265882  1
  H+  H36  1  0.95324749  0.84545670  1.00962152  1
  H+  H37  1  0.90159730  0.79751104  0.63789774  1
  H+  H38  1  0.11501554  0.83014639  0.53842735  1
  H+  H39  1  0.48288336  0.11510059  0.66721349  1
  H+  H40  1  0.87415808  0.60618396  0.33221359  1
  H+  H41  1  0.37835170  0.26297526  0.66371579  1
  H+  H42  1  0.85490897  0.88347865  0.33836790  1
  H+  H43  1  0.30172265  0.13367902  1.01699169  1
  H+  H44  1  0.13077682  0.73479211  0.63119788  1
  H+  H45  1  0.81762361  0.54092281  0.62628464  1
  H+  H46  1  0.12070867  -0.03402240  0.32176541  1
  H+  H47  1  0.87193943  0.33309427  0.00049123  1
  H+  H48  1  0.89002967  0.77797543  0.18209184  1
  H+  H49  1  0.91064147  0.96205073  0.82318417  1
  H+  H50  1  0.13072968  0.27495176  0.50691339  1
  H+  H51  1  0.95266999  0.10205935  0.99230910  1
  H+  H52  1  0.00497957  0.10429394  0.34762839  1
  H+  H53  1  0.63032055  0.76711135  0.49456710  1
  H+  H54  1  0.08127050  0.41566639  0.73092833  1
  H+  H55  1  0.46685943  0.84632230  0.98328307  1
  H+  H56  1  0.05866363  0.87795568  0.07966034  1
  H+  H57  1  0.09892972  0.18010364  0.34501979  1
  H+  H58  1  0.62522369  0.34995919  -0.00066095  1
  H+  H59  1  0.52299284  0.74022022  0.39028439  1
  H+  H60  1  0.52048830  0.12827029  0.83100187  1
  H+  H61  1  0.74033842  0.62667522  0.50386523  1
  H+  H62  1  0.10694789  0.24139935  0.16578661  1
  H+  H63  1  0.61900200  0.78261681  0.33216016  1
  H+  H64  1  0.36667929  0.38718884  0.67856830  1
  H+  H65  1  0.77172010  0.67726979  0.67447670  1
  H+  H66  1  0.63968262  0.51171418  0.84448740  1
  H+  H67  1  0.87476787  0.86514136  0.83173509  1
  H+  H68  1  0.35585887  0.63769701  0.67327522  1
  H+  H69  1  0.86758587  0.62220627  0.66586645  1
  H+  H70  1  0.84685830  0.37690026  0.83671658  1
  H+  H71  1  0.16769961  0.18070888  0.84336197  1
  H+  H72  1  0.88291496  0.10872483  0.33014784  1
  H+  H73  1  0.59145369  0.20117051  0.16151497  1
  H+  H74  1  0.92823727  0.55736711  0.17502087  1
  H+  H75  1  0.71561148  0.09285183  -0.00689534  1
  H+  H76  1  0.17107685  0.04250486  0.97227829  1
  H+  H77  1  0.88989574  0.78539164  0.49344472  1
  H+  H78  1  0.72074029  0.61089570  0.17248054  1
  H+  H79  1  0.63773359  0.34528180  0.66494064  1
  H+  H80  1  0.61053829  0.97786696  0.67257802  1
  H+  H81  1  0.20166071  0.61150049  0.77357158  1
  H+  H82  1  0.46892276  0.34791816  0.66568084  1
  H+  H83  1  0.63106799  1.04113034  0.32470192  1
  H+  H84  1  0.60546629  0.87563094  0.00726455  1
  H+  H85  1  0.85901880  0.72383519  0.34629160  1
  H+  H86  1  0.61409352  0.12943434  0.67683875  1
  H+  H87  1  0.23798852  0.92615430  0.57499133  1
  H+  H88  1  0.72212169  0.36926368  0.50973273  1
  H+  H89  1  0.47345619  0.64098139  0.34082864  1
  H+  H90  1  0.85171444  0.23144449  0.82861421  1
  H+  H91  1  0.13895484  0.66439710  0.82960942  1
  H+  H92  1  0.47856174  0.61084024  0.50596351  1
  H+  H93  1  0.84692613  0.97384913  -0.00248277  1
  H+  H94  1  0.73121500  0.59710682  0.85095053  1
  H+  H95  1  0.61850082  0.64745207  0.48194931  1
  H+  H96  1  0.52006761  0.87794464  0.49971548  1
  H+  H97  1  0.64455204  0.87579260  0.66483628  1
  H+  H98  1  0.63115157  0.53351492  0.34479104  1
  H+  H99  1  0.89088504  0.27823381  0.66346461  1
  H+  H100  1  0.13052201  0.75973638  0.47540295  1
  H+  H101  1  0.72484884  0.11249482  0.65649770  1
  H+  H102  1  0.36022008  0.62850858  0.00400327  1
  H+  H103  1  0.09991818  0.23962692  0.81361986  1
  H+  H104  1  0.38474263  0.27242549  0.18141372  1
  H+  H105  1  0.26802453  0.88372370  0.82254776  1
  H+  H106  1  0.65258269  0.77221252  0.84343791  1
  H+  H107  1  0.87568034  0.33529342  0.18179802  1
  H+  H108  1  0.38250730  0.10456472  0.84268692  1
  H+  H109  1  0.11709623  0.39806184  0.33982188  1
  H+  H110  1  1.02169681  0.38899873  0.67061227  1
  H+  H111  1  0.08076412  0.02298340  1.02886425  1
  H+  H112  1  0.36575348  0.47562734  0.67584662  1
  H+  H113  1  1.01541518  0.13840767  0.66454337  1
  H+  H114  1  0.85998438  0.13978790  0.67277984  1
  H+  H115  1  0.38248457  0.49358435  1.01012678  1
  H+  H116  1  0.51740726  0.38091618  0.16533346  1
  H+  H117  1  0.36106523  0.38339170  0.49874234  1
  H+  H118  1  0.30945878  0.90134254  0.35502124  1
  H+  H119  1  0.08024078  0.89353223  0.27279830  1
  H+  H120  1  0.12873082  0.51395005  0.16670556  1
  H+  H121  1  0.33570087  0.41386878  0.43785837  1
  H+  H122  1  0.63591174  0.76600743  0.99572217  1
  H+  H123  1  0.41017319  0.58403416  0.59721683  1
  H+  H124  1  0.62811895  0.86295295  0.49370327  1
  H+  H125  1  0.81630910  0.41825381  0.43507192  1
  H+  H126  1  0.27788011  0.13889852  0.49597873  1
  H+  H127  1  0.11671319  0.26200085  0.65417600  1
  H+  H128  1  0.01772121  0.78594971  0.05138136  1
  H+  H129  1  0.63387074  0.52129637  0.16589166  1
  H+  H130  1  0.64018045  0.66952959  0.65417995  1
  H+  H131  1  0.11850277  0.98388961  0.66253687  1
  H+  H132  1  0.38866529  0.52090558  0.50608204  1
  H+  H133  1  1.00996125  0.64604512  0.16934584  1
  H+  H134  1  0.86348054  0.21803406  0.49309062  1
  H+  H135  1  0.51551492  0.37595076  0.01428988  1
  H+  H136  1  0.63941006  0.87713374  0.32066686  1
  H+  H137  1  0.13042664  0.84499548  0.98874952  1
  H+  H138  1  0.13700218  0.60694027  0.16413984  1
  H+  H139  1  0.23008174  0.11295058  0.18370673  1
  H+  H140  1  0.38875840  0.48245105  0.34125083  1
  H+  H141  1  0.88287858  0.11237275  0.17825778  1
  H+  H142  1  0.28283256  0.12863179  0.34328401  1
  H+  H143  1  0.77143212  0.12972647  0.49104071  1
  H+  H144  1  0.27291011  0.13108236  0.67139402  1
  H+  H145  1  0.51179467  0.12123561  0.00785048  1
  H+  H146  1  0.52397222  0.38438733  0.83291314  1
  H+  H147  1  0.12125638  0.73203796  0.33147169  1
  H+  H148  1  0.97250375  0.35129809  0.50370003  1
  H+  H149  1  0.34790758  0.68745236  0.43544085  1
  H+  H150  1  0.62288413  0.27342224  0.24117107  1
  H+  H151  1  0.77147525  0.88463749  0.17032589  1
  H+  H152  1  0.52404396  0.39467493  0.34810670  1
  H+  H153  1  0.13495716  0.00582433  0.82744446  1
  H+  H154  1  0.40403062  0.86655543  0.51586874  1
  H+  H155  1  0.61869898  0.48342013  0.50218700  1
  H+  H156  1  0.63469074  0.62390077  0.34588665  1
  H+  H157  1  0.84085487  0.45926515  0.33475699  1
  H+  H158  1  0.27556306  0.88572990  -0.00857383  1
  H+  H159  1  0.62867217  0.57987664  0.66142799  1
  H+  H160  1  0.35234685  0.76465202  0.16131582  1
  H+  H161  1  0.23119291  0.61683221  0.67252413  1
  H+  H162  1  0.62735803  0.26035393  0.84835783  1
  H+  H163  1  0.77643978  0.13846146  0.33758012  1
  H+  H164  1  0.12804145  0.58916012  0.98863194  1
  H+  H165  1  0.46952518  0.08991047  0.17533306  1
  H+  H166  1  0.87624650  0.65100867  0.16595750  1
  H+  H167  1  0.06814297  0.52955925  0.50622485  1
  H+  H168  1  0.76238062  0.13926267  0.82830474  1
  H+  H169  1  0.22413561  0.36195041  0.50833014  1
  H+  H170  1  0.28896215  0.42493943  1.02848829  1
  H+  H171  1  0.89195646  0.36731857  0.66438648  1
  H+  H172  1  0.61009115  0.63632298  0.15563671  1
  H+  H173  1  0.84050878  0.11655993  1.00634035  1
  H+  H174  1  0.37834670  0.35681300  1.00665785  1
  H+  H175  1  0.84005830  0.42705357  0.03119077  1
  H+  H176  1  0.26661852  0.62559592  0.15562461  1
  H+  H177  1  0.62713497  0.51095539  1.00202213  1
  H+  H178  1  0.42843053  0.58705925  0.93503353  1
  H+  H179  1  0.11751999  0.71889262  -0.00754722  1
  H+  H180  1  0.01466281  0.14812626  0.81909241  1
  H+  H181  1  0.13831510  0.11799639  0.65565395  1
  H+  H182  1  0.22181468  0.36930898  0.83313596  1
  H+  H183  1  0.39876808  0.98737938  0.35694015  1
  H+  H184  1  0.11339013  0.48513664  0.81835447  1
  H+  H185  1  0.01452610  0.13628395  0.50345882  1
  H+  H186  1  0.01064343  0.84113235  0.78146058  1
  H+  H187  1  0.75591049  0.63008636  1.01711476  1
  H+  H188  1  0.52260471  0.88588664  0.67413867  1
  H+  H189  1  0.77464576  0.37907009  0.67704773  1
  H+  H190  1  0.08088860  0.21446997  0.00490860  1
  H+  H191  1  0.58455636  0.66955045  0.06916407  1
  H+  H192  1  0.25695085  0.39233199  0.32377998  1
  H+  H193  1  0.13804420  0.03030675  0.50097587  1
  H+  H194  1  0.66589566  0.82686749  0.93453631  1
  H+  H195  1  0.28760611  0.16377919  0.82979478  1
  H+  H196  1  0.85741728  0.47110045  0.68555036  1
  H+  H197  1  0.35935584  0.47988262  0.82712932  1
  H+  H198  1  0.15358311  0.73392111  0.13266751  1
  H+  H199  1  0.87791476  0.63274751  0.00645821  1
  H+  H200  1  0.10182194  0.63125843  0.50126831  1
  H+  H201  1  0.61363794  0.39140388  0.50485471  1
  H+  H202  1  0.38159634  0.69722629  0.32853903  1
  H+  H203  1  0.38713514  0.26810595  0.33225621  1
  H+  H204  1  0.39922231  0.77317967  0.51194305  1
  H+  H205  1  1.02801685  0.64963648  0.33844695  1
  H+  H206  1  0.13888058  0.79005092  0.20513116  1
  H+  H207  1  0.13866613  0.02893745  0.17904863  1
  H+  H208  1  0.62065984  0.22069926  0.67832011  1
  H+  H209  1  0.13887581  0.51519225  0.66884879  1
  H+  H210  1  0.97082459  0.36515990  0.84190344  1
  H+  H211  1  0.49259227  0.61597504  0.84431787  1
  H+  H212  1  0.87976196  0.64807443  0.49474728  1
  H+  H213  1  0.10322764  0.45972355  1.00347914  1
  H+  H214  1  0.62657710  0.01013572  0.83998050  1
  H+  H215  1  0.39824886  0.11546658  0.50866053  1
  H+  H216  1  -0.00012337  0.14210530  0.17316809  1
  H+  H217  1  0.71624875  0.09912839  0.16933047  1
  H+  H218  1  0.39689536  0.02462359  0.66360013  1
  H+  H219  1  1.02813411  0.92585217  0.47324785  1
  H+  H220  1  0.75198715  0.87545349  1.00054294  1
  H+  H221  1  0.61155048  0.44737696  0.68026297  1
  H+  H222  1  0.83832941  0.72617157  0.01718776  1
  H+  H223  1  0.41117381  0.12759802  0.33496848  1
  H+  H224  1  0.23153865  0.36744777  0.16998242  1
  H+  H225  1  0.11199233  0.40077709  0.49293018  1
  H+  H226  1  0.16949665  0.90695108  0.62729543  1
  H+  H227  1  0.12187781  0.36019336  0.65585987  1
  H+  H228  1  0.85070288  0.88483189  0.48397664  1
  H+  H229  1  0.87663268  0.01909350  0.50599616  1
  H+  H230  1  0.64049005  0.11088431  0.49956700  1
  H+  H231  1  0.87356057  0.54583553  0.98963619  1
  H+  H232  1  0.36558588  0.13251740  0.17838111  1
  H+  H233  1  0.63755691  0.27655395  0.51013303  1
  H+  H234  1  0.69111867  0.31841511  0.18831638  1
  H+  H235  1  0.42412879  0.86167097  0.16124875  1
  H+  H236  1  0.18533121  0.91370066  0.85432282  1
  H+  H237  1  0.87515440  0.01493669  0.32514875  1
  H+  H238  1  0.88838870  0.86649220  0.18375105  1
  H+  H239  1  0.74712833  0.34891215  0.01622910  1
  H+  H240  1  0.07856774  0.12675695  0.02261387  1
  H+  H241  1  0.35917212  0.72916763  0.67336339  1
  H+  H242  1  0.86295052  0.03629171  0.83385286  1
  H+  H243  1  0.39088110  0.01258899  0.99437585  1
  H+  H244  1  0.14390452  0.12272896  0.51192163  1
  H+  H245  1  0.16730716  0.31050094  0.32942029  1
  H+  H246  1  0.52199196  0.63960616  0.15869308  1
  H+  H247  1  0.37201382  0.64296432  0.48918252  1
  H+  H248  1  0.59279154  0.87627920  0.15536243  1
  H+  H249  1  0.18925582  0.32803216  0.97817045  1
  H+  H250  1  0.71630064  0.35093674  0.84815260  1
  H+  H251  1  0.61311332  0.63434322  0.01068246  1
  H+  H252  1  0.09602742  0.83875233  0.80028385  1
  H+  H253  1  0.61595061  0.88024103  0.82382012  1
  H+  H254  1  0.72574498  0.86564820  0.49115638  1
  H+  H255  1  0.97726366  0.36439721  0.32849090  1
  H+  H256  1  0.12445893  0.59947697  0.68137383  1
  H+  H257  1  0.40436879  0.32697843  -0.05333559  1
  H+  H258  1  0.87578189  -0.10136784  0.66394118  1
  H+  H259  1  0.60411556  0.22125650  0.01011829  1
  H+  H260  1  0.38520635  0.36300388  0.18023271  1
  H+  H261  1  0.36292874  0.13114184  0.67342473  1
  H+  H262  1  0.87285422  0.12719799  0.83850413  1
  H+  H263  1  0.11038926  0.39547125  0.82210504  1
  H+  H264  1  0.99264969  0.88371599  0.63811998  1
  H+  H265  1  1.00223187  0.63788447  0.85318583  1
  H+  H266  1  0.39958121  0.10758476  0.00545870  1
  H+  H267  1  0.60716990  0.37182176  0.83511507  1
  H+  H268  1  0.97097058  0.85831603  0.33124389  1
  H+  H269  1  0.76398070  0.88276364  0.33375648  1
  H+  H270  1  0.38490537  0.61708158  0.17277353  1
  H+  H271  1  0.62408198  0.09923118  0.84438250  1
  H+  H272  1  0.91700586  0.32163240  0.56431181  1
  H+  H273  1  0.73160364  0.87007333  0.66747282  1
  H+  H274  1  0.38874843  0.85989123  0.66259894  1
  H+  H275  1  0.60959685  0.19663163  0.43026839  1
  H+  H276  1  0.41283939  0.63106173  0.84428342  1
  H+  H277  1  0.86105742  -0.02840308  0.17271898  1
  H+  H278  1  0.36648326  0.58282509  0.33684167  1
  H+  H279  1  0.73918929  0.86277851  0.84353765  1
  H+  H280  1  0.28050529  0.83715720  0.16004467  1
  H+  H281  1  0.36735376  0.48415622  0.17070855  1
  H+  H282  1  0.46977099  0.82131233  0.82618557  1
  H+  H283  1  0.36312133  0.91943289  0.44736862  1
  H+  H284  1  1.07352595  0.39943979  1.06399810  1
  H+  H285  1  0.58527669  0.15901065  0.77364446  1
  H+  H286  1  0.85079444  0.48115387  0.49288986  1
  H+  H287  1  1.01632647  0.37269470  0.16090668  1
  H+  H288  1  0.57968529  0.39511911  0.74186060  1
  H+  H289  1  0.90732199  0.08190044  0.59955838  1
  H+  H290  1  0.57035022  0.90623660  0.06539866  1
  H+  H291  1  0.85319674  0.37769386  0.33765940  1
  H+  H292  1  0.54890977  0.17590247  0.31618926  1
  H+  H293  1  0.91381829  0.32673691  0.90269822  1
  H+  H294  1  0.52625302  0.70913299  0.72333049  1
  H+  H295  1  0.91826308  0.58832957  0.56625300  1
  H+  H296  1  0.24548143  0.06782558  0.92527088  1
  H+  H297  1  0.17795832  0.34570093  0.23103361  1
  H+  H298  1  0.36758843  0.70189095  0.77285232  1
  H+  H299  1  0.33419676  0.41952355  0.76796462  1
  H+  H300  1  0.41774951  0.59495607  0.23460029  1
  H+  H301  1  0.83154535  0.16124642  0.39954098  1
  H+  H302  1  0.43303214  0.08850970  0.27722788  1
  H+  H303  1  0.84460908  0.20679064  0.00680800  1
  H+  H304  1  0.65750398  0.07513562  0.22787747  1
  H+  H305  1  0.34350585  0.16261900  0.11678479  1
  H+  H306  1  0.91049715  0.83074831  0.27473535  1
  H+  H307  1  0.10997521  0.34592089  0.98852923  1
  H+  H308  1  0.92048493  0.85406433  0.54660132  1
  H+  H309  1  0.62767892  0.63233403  0.83237545  1
  H+  H310  1  0.13006951  0.74891786  0.82796923  1
  H+  H311  1  0.97881515  0.58042254  0.51877948  1
  H+  H312  1  0.41620395  0.32903402  0.27283917  1
  H+  H313  1  0.66005096  0.56907690  0.94173341  1
  H+  H314  1  0.11598203  0.89246865  0.16587903  1
  H+  H315  1  0.57526176  0.15564206  0.07268105  1
  H+  H316  1  0.15402772  0.33027203  0.59026668  1
  H+  H317  1  0.42122862  0.82757843  0.60463061  1
  H+  H318  1  0.32167027  0.14303356  0.76898701  1
  H+  H319  1  0.11892105  0.48440215  0.33711363  1
  H+  H320  1  0.58071466  0.42410238  0.40777221  1
  H+  H321  1  0.81586863  0.40229427  0.77747102  1
  H+  H322  1  0.46548052  0.43327637  0.89020090  1
  H+  H323  1  0.33386514  0.91314668  0.73033035  1
  H+  H324  1  0.65436243  0.05932382  0.92823452  1
  H+  H325  1  0.83164275  0.67167788  0.11084545  1
  H+  H326  1  0.35951306  0.96759606  0.82392080  1
  H+  H327  1  0.89834510  0.07832689  0.92903736  1
  H+  H328  1  0.59726619  0.67077491  0.77632914  1
  H+  H329  1  0.10147610  0.89916248  0.47807806  1
  H+  H330  1  0.34866371  0.42944750  0.11032979  1
  H+  H331  1  0.15106611  0.33110391  0.88670441  1
  H+  H332  1  0.91725373  0.31675347  0.23896153  1
  H+  H333  1  0.67758828  0.61313531  0.55915565  1
  H+  H334  1  0.87783261  0.10847756  0.50589862  1
  H+  H335  1  0.84162818  0.66985430  0.43618510  1
  H+  H336  1  0.07086723  0.64455791  0.74852100  1
  H+  H337  1  0.57030679  0.68133516  0.43030250  1
  H+  H338  1  0.83727294  0.64221666  0.78387613  1
  H+  H339  1  0.57697604  0.40323661  0.07260046  1
  H+  H340  1  0.17285029  0.07928185  0.27158049  1
  H+  H341  1  0.12403927  0.69573745  0.42169305  1
  H+  H342  1  0.21888743  0.85866325  0.27774985  1
  H+  H343  1  0.40865842  0.80712157  0.92403451  1
  H+  H344  1  0.16984501  0.08798316  0.59674053  1
  H+  H345  1  0.59870920  0.36937314  0.16804761  1
  H+  H346  1  0.21474070  0.58739287  0.99244088  1
  H+  H347  1  0.91490981  0.58942591  0.27362648  1
  H+  H348  1  0.82029137  0.91798579  0.42628884  1
  H+  H349  1  0.82660757  0.16912776  0.73085488  1
  H+  H350  1  0.58279059  0.91011251  0.76570041  1
  H+  H351  1  0.70507817  0.31436987  0.35111418  1
  H+  H352  1  0.57199005  0.91293980  0.43541935  1
  H+  H353  1  0.90115398  0.82334833  0.94620340  1
  H+  H354  1  0.06087793  0.17828242  0.10511202  1
  H+  H355  1  0.20849647  0.16592143  0.90217373  1
  H+  H356  1  0.96562344  0.34220250  0.99777720  1
  H+  H357  1  0.53737138  0.14463127  0.48172916  1
  H+  H358  1  0.08551158  0.89498570  0.70318982  1
  H+  H359  1  0.76701458  0.63818466  0.35182762  1
  H+  H360  1  0.94311869  0.61508893  0.91363061  1
  H+  H361  1  0.25498042  0.63470375  0.83191160  1
  H+  H362  1  0.82394576  0.15188120  0.10394660  1
  H+  H363  1  0.43223936  0.09185514  0.56821975  1
  H+  H364  1  0.91923037  0.08911081  0.24057394  1
  H+  H365  1  0.07555483  0.17293718  0.72392445  1
  H+  H366  1  0.37987901  0.22541324  0.02409616  1
  H+  H367  1  0.18281548  0.57930328  0.26161344  1
  H+  H368  1  0.67052969  0.32536204  0.60251770  1
  H+  H369  1  0.63391231  0.01862401  0.50393436  1
  H+  H370  1  0.84367283  0.73668864  0.72190088  1
  H+  H371  1  0.07958061  0.42412550  0.43277900  1
  H+  H372  1  0.41948716  0.08051898  0.90174659  1
  H+  H373  1  0.41389580  0.33134752  0.57044524  1
  H+  H374  1  0.16067839  0.83229698  0.92153149  1
  H+  H375  1  0.79553376  0.36312481  0.11539511  1
  H+  H376  1  0.64925121  0.13651328  0.31097244  1
  H+  H377  1  0.89062469  0.27156238  0.33107270  1
  H+  H378  1  0.97502027  0.82668070  0.87052635  1
  H+  H379  1  0.34045881  0.16427094  0.40331712  1
  H+  H380  1  0.84858373  0.91478366  0.72990388  1
  H+  H381  1  0.65522755  0.83237217  0.22994981  1
  H+  H382  1  0.07108590  0.15552894  0.44433788  1
  H+  H383  1  1.02225863  0.88624331  0.16955352  1
  O2-  O384  1  0.06544001  0.18043149  0.15062392  1
  O2-  O385  1  0.07517677  0.16959700  0.48825042  1
  O2-  O386  1  0.07271254  0.17789907  0.80100219  1
  O2-  O387  1  0.07455468  0.40561453  0.14188938  1
  O2-  O388  1  0.07513716  0.42284865  0.47793681  1
  O2-  O389  1  0.07771439  0.42391080  0.80722169  1
  O2-  O390  1  0.10286582  0.67394870  0.13096397  1
  O2-  O391  1  0.14608686  0.71345403  0.46342497  1
  O2-  O392  1  0.09970201  0.68619546  0.81917194  1
  O2-  O393  1  0.08050901  0.91554449  0.14896446  1
  O2-  O394  1  0.09028264  0.95209013  0.46666378  1
  O2-  O395  1  0.05441493  0.83012441  0.76527013  1
  O2-  O396  1  0.33867772  0.16483984  0.16186667  1
  O2-  O397  1  0.33870428  0.16668083  0.48078817  1
  O2-  O398  1  0.31518418  0.13204682  0.81350744  1
  O2-  O399  1  0.33843386  0.42320727  0.15484599  1
  O2-  O400  1  0.32964055  0.41261776  0.48286837  1
  O2-  O401  1  0.32845721  0.41886563  0.81436117  1
  O2-  O402  1  0.32791873  0.66085932  0.14206884  1
  O2-  O403  1  0.34870735  0.68110357  0.47994464  1
  O2-  O404  1  0.37518141  0.69873292  0.81774642  1
  O2-  O405  1  0.22694641  0.83691029  0.14351147  1
  O2-  O406  1  0.36298579  0.91827001  0.49291881  1
  O2-  O407  1  0.32713559  0.90997797  0.80541734  1
  O2-  O408  1  0.56812000  0.14348021  0.14065092  1
  O2-  O409  1  0.59996528  0.17481737  0.47241311  1
  O2-  O410  1  0.58308846  0.15689667  0.81930677  1
  O2-  O411  1  0.57693275  0.40429729  0.14847289  1
  O2-  O412  1  0.58296954  0.42202792  0.49103261  1
  O2-  O413  1  0.58296462  0.40660640  0.81633122  1
  O2-  O414  1  0.58133098  0.66956715  0.14149079  1
  O2-  O415  1  0.58294899  0.67508832  0.47657684  1
  O2-  O416  1  0.60078533  0.66767697  0.82129183  1
  O2-  O417  1  0.56311229  0.90524228  0.13676553  1
  O2-  O418  1  0.58068815  0.90992387  0.47966265  1
  O2-  O419  1  0.57845679  0.90328356  0.81135205  1
  O2-  O420  1  0.82557277  0.15093451  0.14914127  1
  O2-  O421  1  0.83147113  0.15732173  0.47505252  1
  O2-  O422  1  0.82224392  0.17083842  0.81239497  1
  O2-  O423  1  0.79584106  0.36241924  0.16105712  1
  O2-  O424  1  0.81147935  0.42112704  0.47950890  1
  O2-  O425  1  0.80984823  0.39956145  0.82233456  1
  O2-  O426  1  0.83902534  0.67535560  0.15575638  1
  O2-  O427  1  0.84546895  0.67507488  0.48200020  1
  O2-  O428  1  0.83871388  0.64894033  0.82796239  1
  O2-  O429  1  0.83376605  0.91119185  0.16034931  1
  O2-  O430  1  0.81751517  0.91516780  0.47196988  1
  O2-  O431  1  0.85881019  0.90705941  0.81528114  1
  O2-  O432  1  0.17003263  0.08550210  0.19907097  1
  O2-  O433  1  0.17358471  0.09112942  0.52348438  1
  O2-  O434  1  0.22225827  0.20125380  0.86547863  1
  O2-  O435  1  0.17077463  0.33752987  0.18596515  1
  O2-  O436  1  0.16331364  0.33523883  0.52337587  1
  O2-  O437  1  0.15844743  0.34113996  0.84235670  1
  O2-  O438  1  0.16346324  0.57429843  0.18103433  1
  O2-  O439  1  0.06367180  0.57593311  0.52591683  1
  O2-  O440  1  0.19463121  0.60495800  0.81754235  1
  O2-  O441  1  0.18334048  0.84964271  0.19606893  1
  O2-  O442  1  0.10784279  0.82811833  0.49457620  1
  O2-  O443  1  0.16244273  0.85190986  0.85324596  1
  O2-  O444  1  0.41431133  0.06879861  0.19827667  1
  O2-  O445  1  0.43564246  0.09289857  0.52292674  1
  O2-  O446  1  0.41946579  0.08035518  0.85681603  1
  O2-  O447  1  0.41658255  0.33376581  0.19478142  1
  O2-  O448  1  0.41520902  0.33482870  0.52504583  1
  O2-  O449  1  0.43312422  0.37618435  0.87224038  1
  O2-  O450  1  0.41667604  0.58880904  0.18952722  1
  O2-  O451  1  0.41837468  0.58116492  0.52161294  1
  O2-  O452  1  0.43149935  0.59014862  0.85754539  1
  O2-  O453  1  0.36333168  0.82363882  0.17077993  1
  O2-  O454  1  0.43327357  0.83288389  0.53064339  1
  O2-  O455  1  0.40845237  0.78699359  0.84052200  1
  O2-  O456  1  0.65499997  0.07149381  0.18235552  1
  O2-  O457  1  0.66665741  0.07900191  0.51874407  1
  O2-  O458  1  0.65557290  0.06863030  0.85897632  1
  O2-  O459  1  0.62901955  0.29218247  0.19783241  1
  O2-  O460  1  0.66231638  0.33431191  0.52909950  1
  O2-  O461  1  0.65455345  0.32020742  0.86499670  1
  O2-  O462  1  0.65766384  0.58319581  0.17320458  1
  O2-  O463  1  0.67801874  0.60079286  0.51573571  1
  O2-  O464  1  0.66918144  0.57130230  0.86168420  1
  O2-  O465  1  0.65810846  0.83493390  0.18462639  1
  O2-  O466  1  0.66207015  0.83244876  0.50637967  1
  O2-  O467  1  0.67909366  0.83344599  0.85758330  1
  O2-  O468  1  0.92317431  0.09263033  0.19421770  1
  O2-  O469  1  0.90722243  0.07784135  0.52390326  1
  O2-  O470  1  0.90058418  0.09212818  0.85238563  1
  O2-  O471  1  0.91365185  0.31218469  0.19280312  1
  O2-  O472  1  0.91500476  0.30963329  0.52052834  1
  O2-  O473  1  0.91120235  0.33028581  0.85762833  1
  O2-  O474  1  0.95050318  0.61675965  0.18720410  1
  O2-  O475  1  0.92281410  0.58293150  0.52231680  1
  O2-  O476  1  0.94202757  0.60730566  0.86918175  1
  O2-  O477  1  0.92253965  0.83850101  0.19758689  1
  O2-  O478  1  0.90941466  0.84704697  0.50215808  1
  O2-  O479  1  0.91338439  0.80644862  0.86957545  1
  O2-  O480  1  0.17527420  0.07072168  0.31728285  1
  O2-  O481  1  0.16871024  0.08743190  0.64317293  1
  O2-  O482  1  0.22556121  0.09018660  0.95812165  1
  O2-  O483  1  0.19542496  0.36492042  0.30792286  1
  O2-  O484  1  0.14701858  0.32522918  0.63791386  1
  O2-  O485  1  0.12913120  0.30630953  0.96796740  1
  O2-  O486  1  0.19684390  0.56989311  0.30336466  1
  O2-  O487  1  0.16628570  0.58040385  0.66203151  1
  O2-  O488  1  0.15397510  0.55337598  0.97874318  1
  O2-  O489  1  0.20652103  0.84977918  0.32146378  1
  O2-  O490  1  0.21499450  0.89500416  0.61288399  1
  O2-  O491  1  0.16296114  0.82179425  0.96812330  1
  O2-  O492  1  0.44992878  0.10620675  0.32012276  1
  O2-  O493  1  0.42377608  0.08583597  0.64953376  1
  O2-  O494  1  0.42772469  0.07807761  0.98537274  1
  O2-  O495  1  0.41512576  0.32920887  0.31823449  1
  O2-  O496  1  0.41009590  0.32448248  0.64942331  1
  O2-  O497  1  0.40496060  0.32340345  0.99176159  1
  O2-  O498  1  0.41834026  0.59231939  0.31595052  1
  O2-  O499  1  0.40760194  0.58654104  0.64304176  1
  O2-  O500  1  0.42587321  0.58603670  0.98059522  1
  O2-  O501  1  0.49937608  0.87961229  0.32278390  1
  O2-  O502  1  0.41714541  0.82559571  0.65070436  1
  O2-  O503  1  0.40678287  0.81464772  0.96848800  1
  O2-  O504  1  0.67102117  0.09603611  0.30428448  1
  O2-  O505  1  0.66354312  0.07945735  0.64323476  1
  O2-  O506  1  0.65528115  0.05606817  0.97540628  1
  O2-  O507  1  0.64422893  0.26953541  0.36133503  1
  O2-  O508  1  0.67406098  0.32279414  0.64853162  1
  O2-  O509  1  0.65342303  0.31662445  0.98512591  1
  O2-  O510  1  0.66680967  0.59629914  0.33355179  1
  O2-  O511  1  0.66854478  0.63627498  0.64471247  1
  O2-  O512  1  0.65745743  0.57168477  0.98697408  1
  O2-  O513  1  0.66103295  0.83810819  0.30999059  1
  O2-  O514  1  0.67014129  0.83885541  0.65529464  1
  O2-  O515  1  0.66510899  0.82790816  0.98025142  1
  O2-  O516  1  0.91211299  0.07748201  0.31335995  1
  O2-  O517  1  0.91211982  0.08711691  0.64530822  1
  O2-  O518  1  0.89358415  0.06931457  0.97434451  1
  O2-  O519  1  0.91708499  0.33009372  0.31256811  1
  O2-  O520  1  0.92444736  0.33918123  0.64942104  1
  O2-  O521  1  0.90497608  0.30837684  0.98194736  1
  O2-  O522  1  0.90251924  0.57404187  0.31665942  1
  O2-  O523  1  0.87154944  0.57365769  0.64847155  1
  O2-  O524  1  0.91394180  0.60709917  0.99170336  1
  O2-  O525  1  0.90921668  0.83135204  0.32036613  1
  O2-  O526  1  0.92964626  0.85833845  0.62618817  1
  O2-  O527  1  0.89610596  0.83043131  0.99071587  1
  O2-  O528  1  0.04896522  0.15937948  0.02921185  1
  O2-  O529  1  0.06402774  0.12583418  0.36575105  1
  O2-  O530  1  0.07730106  0.17269424  0.67824908  1
  O2-  O531  1  0.07100729  0.39681196  0.01843034  1
  O2-  O532  1  0.08266388  0.42385167  0.35300420  1
  O2-  O533  1  0.08448399  0.41724222  0.68503944  1
  O2-  O534  1  0.08630169  0.65962602  0.01097837  1
  O2-  O535  1  0.08987433  0.67060095  0.34205862  1
  O2-  O536  1  0.05617211  0.60791044  0.71097144  1
  O2-  O537  1  0.03883167  0.84550242  0.03961638  1
  O2-  O538  1  0.08660958  0.90138715  0.31665211  1
  O2-  O539  1  0.08911146  0.91947398  0.66171315  1
  O2-  O540  1  0.35728027  0.16541735  0.03885582  1
  O2-  O541  1  0.34333586  0.16409158  0.35765436  1
  O2-  O542  1  0.33217909  0.16094878  0.68881757  1
  O2-  O543  1  0.34710555  0.43416562  0.02955671  1
  O2-  O544  1  0.34985313  0.42280200  0.35541110  1
  O2-  O545  1  0.33995115  0.41920812  0.69611039  1
  O2-  O546  1  0.32358248  0.65214012  0.01800859  1
  O2-  O547  1  0.35100117  0.71758630  0.35400284  1
  O2-  O548  1  0.32748721  0.66842599  0.69166980  1
  O2-  O549  1  0.33643774  0.91648504  0.00493498  1
  O2-  O550  1  0.36897764  0.92752849  0.37087759  1
  O2-  O551  1  0.34571336  0.91843419  0.68509975  1
  O2-  O552  1  0.57628895  0.15924981  0.02546518  1
  O2-  O553  1  0.61404177  0.21412913  0.30722595  1
  O2-  O554  1  0.58773194  0.16149829  0.69573195  1
  O2-  O555  1  0.57708172  0.40427505  0.02661256  1
  O2-  O556  1  0.58320726  0.43174843  0.36316643  1
  O2-  O557  1  0.57748347  0.38936341  0.69594900  1
  O2-  O558  1  0.58762945  0.67042259  0.02261303  1
  O2-  O559  1  0.54599494  0.70584631  0.37297645  1
  O2-  O560  1  0.56902711  0.69791030  0.70465397  1
  O2-  O561  1  0.57547415  0.90753963  0.01848935  1
  O2-  O562  1  0.57136692  0.92724814  0.35141363  1
  O2-  O563  1  0.58332859  0.91822497  0.68963905  1
  O2-  O564  1  0.80996590  0.14606807  0.02238274  1
  O2-  O565  1  0.83599675  0.16395189  0.35365250  1
  O2-  O566  1  0.82967568  0.17103934  0.68573341  1
  O2-  O567  1  0.80326675  0.36579201  0.03830816  1
  O2-  O568  1  0.81379151  0.39892541  0.34950969  1
  O2-  O569  1  0.83335077  0.41024402  0.69622525  1
  O2-  O570  1  0.81683309  0.66650602  0.03200634  1
  O2-  O571  1  0.83030791  0.66396592  0.36198415  1
  O2-  O572  1  0.83181875  0.69709806  0.68818893  1
  O2-  O573  1  0.81706934  0.91318441  0.01534457  1
  O2-  O574  1  0.82452298  0.91556594  0.34974856  1
  O2-  O575  1  0.84194781  0.92104761  0.68606388  1
