# generated using pymatgen
data_H2O
_symmetry_space_group_name_H-M   'P 1'
_cell_length_a   17.98634464
_cell_length_b   17.98103640
_cell_length_c   21.98013338
_cell_angle_alpha   90.01432311
_cell_angle_beta   90.04234059
_cell_angle_gamma   119.97072903
_symmetry_Int_Tables_number   1
_chemical_formula_structural   H2O
_chemical_formula_sum   'H384 O192'
_cell_volume   6158.09490570
_cell_formula_units_Z   192
loop_
 _symmetry_equiv_pos_site_id
 _symmetry_equiv_pos_as_xyz
  1  'x, y, z'
loop_
 _atom_type_symbol
 _atom_type_oxidation_number
  H+  1.0
  O2-  -2.0
loop_
 _atom_site_type_symbol
 _atom_site_label
 _atom_site_symmetry_multiplicity
 _atom_site_fract_x
 _atom_site_fract_y
 _atom_site_fract_z
 _atom_site_occupancy
  H+  H0  1  0.62253738  0.75605592  0.64299103  1
  H+  H1  1  0.62915041  0.60498827  0.64684728  1
  H+  H2  1  0.28062895  0.85966483  0.15552838  1
  H+  H3  1  0.89187516  0.35590494  0.83494789  1
  H+  H4  1  0.60792045  0.72074524  0.00425310  1
  H+  H5  1  0.79267305  0.94479476  0.70902590  1
  H+  H6  1  0.85996404  0.73284416  0.02133080  1
  H+  H7  1  0.17172721  0.82034074  0.94271704  1
  H+  H8  1  0.12988830  0.14177481  0.48448134  1
  H+  H9  1  0.36836135  0.17406148  0.32688378  1
  H+  H10  1  0.72812509  0.80106087  0.27955738  1
  H+  H11  1  0.21402854  0.89616682  0.19381969  1
  H+  H12  1  0.74640122  0.11967680  0.33242303  1
  H+  H13  1  0.32444749  0.65233468  0.43421319  1
  H+  H14  1  0.63945129  0.52784607  0.98519328  1
  H+  H15  1  0.88858344  0.60280946  0.82647619  1
  H+  H16  1  0.43092489  0.31911810  0.58001499  1
  H+  H17  1  0.34497076  0.71129494  0.49832550  1
  H+  H18  1  0.12836617  0.75260185  0.32886415  1
  H+  H19  1  0.36068972  0.94424215  0.39914119  1
  H+  H20  1  0.36882658  0.12818300  0.15394006  1
  H+  H21  1  0.97879775  0.60770217  0.66835151  1
  H+  H22  1  0.21768442  0.86653619  0.82034046  1
  H+  H23  1  -0.01760235  0.60931982  -0.01247857  1
  H+  H24  1  0.75350607  0.36163339  0.82272399  1
  H+  H25  1  0.24180923  0.37332505  -0.00322272  1
  H+  H26  1  0.13405573  0.84209256  0.66925102  1
  H+  H27  1  0.62648007  0.61219331  0.32579482  1
  H+  H28  1  0.09301109  0.67035192  0.10322530  1
  H+  H29  1  0.31317450  0.93970314  0.49694097  1
  H+  H30  1  0.78574663  0.63330934  0.81005819  1
  H+  H31  1  0.89745459  0.01864410  0.50564536  1
  H+  H32  1  0.11097667  0.24160147  0.34488290  1
  H+  H33  1  0.62850161  0.51603600  0.64875072  1
  H+  H34  1  0.13978851  0.24660027  0.82224990  1
  H+  H35  1  0.62727603  0.73407291  0.33510217  1
  H+  H36  1  0.52352250  0.89363247  0.32151258  1
  H+  H37  1  0.27800767  0.63423169  0.82630113  1
  H+  H38  1  0.09988349  0.88762533  0.16189229  1
  H+  H39  1  0.63625890  0.86564311  0.99443980  1
  H+  H40  1  0.37236676  0.21860495  0.99522797  1
  H+  H41  1  0.62165323  0.52357915  0.16883790  1
  H+  H42  1  0.13474260  0.36378383  0.18263255  1
  H+  H43  1  0.88948297  0.86197242  0.33857625  1
  H+  H44  1  0.92303858  0.33497331  0.89691900  1
  H+  H45  1  0.38955654  0.26468890  0.66707791  1
  H+  H46  1  0.36847490  0.38931734  0.01097511  1
  H+  H47  1  -0.02737433  0.11618992  0.17706519  1
  H+  H48  1  0.34999248  0.37247567  0.81855118  1
  H+  H49  1  0.87842459  0.14180727  0.34875283  1
  H+  H50  1  0.81458777  0.43353128  0.26532532  1
  H+  H51  1  0.28067227  0.14051432  0.67443425  1
  H+  H52  1  0.58119537  0.85135384  0.47662439  1
  H+  H53  1  0.84653823  0.87326626  0.50863615  1
  H+  H54  1  0.88377342  0.51762746  -0.01280321  1
  H+  H55  1  0.85799483  0.61534640  0.70816828  1
  H+  H56  1  0.39943340  0.03902075  0.17462726  1
  H+  H57  1  0.38058677  0.48489722  0.33232066  1
  H+  H58  1  0.63035743  0.10386549  0.65013808  1
  H+  H59  1  0.24863911  0.60031104  0.50385293  1
  H+  H60  1  0.53635212  0.43154438  0.81038954  1
  H+  H61  1  0.32097031  0.38745917  0.48628784  1
  H+  H62  1  0.99741021  0.63034709  0.17915636  1
  H+  H63  1  0.62086021  0.15463121  0.03079707  1
  H+  H64  1  0.96562332  0.36552469  0.99547063  1
  H+  H65  1  0.40307866  0.02194776  0.35177634  1
  H+  H66  1  -0.05471934  0.82027817  0.68753514  1
  H+  H67  1  0.44153814  0.32029883  0.84262724  1
  H+  H68  1  0.12499190  0.83974623  0.33148350  1
  H+  H69  1  0.90156526  0.38019816  0.50425573  1
  H+  H70  1  0.61615162  0.47207920  0.49232936  1
  H+  H71  1  0.71517806  0.35653613  0.65372670  1
  H+  H72  1  0.72276150  0.36715325  0.17418488  1
  H+  H73  1  0.86945705  0.14792568  0.15851895  1
  H+  H74  1  0.92190740  0.83194602  0.95258122  1
  H+  H75  1  1.03543611  0.39091612  0.82979805  1
  H+  H76  1  0.09872980  0.61551752  1.00591270  1
  H+  H77  1  0.88879435  0.02777608  0.63356408  1
  H+  H78  1  0.31580950  0.63572604  0.10202882  1
  H+  H79  1  -0.01995424  0.11662962  0.32885220  1
  H+  H80  1  0.03125769  0.63812608  0.82428752  1
  H+  H81  1  0.60580642  0.14936958  0.83368797  1
  H+  H82  1  0.52088664  0.62815080  0.82023095  1
  H+  H83  1  0.89643291  0.23633615  0.81557486  1
  H+  H84  1  0.64379931  0.33736644  0.26897972  1
  H+  H85  1  0.87737230  0.89841977  0.01161138  1
  H+  H86  1  0.15970902  1.03213489  0.01325295  1
  H+  H87  1  0.56666704  0.38886809  0.07653850  1
  H+  H88  1  0.38698497  0.25523595  0.15244558  1
  H+  H89  1  0.87823026  0.03333536  0.17484424  1
  H+  H90  1  0.64868961  0.57931991  0.26553163  1
  H+  H91  1  0.63299412  0.15236591  0.34159164  1
  H+  H92  1  0.86738811  0.97223245  0.34843961  1
  H+  H93  1  0.84736561  0.07988674  0.66045065  1
  H+  H94  1  0.86999744  0.14288879  0.00214695  1
  H+  H95  1  0.91443697  0.58588796  0.61258563  1
  H+  H96  1  0.12453882  0.14498113  0.15194495  1
  H+  H97  1  0.28946069  0.16022082  0.48445175  1
  H+  H98  1  0.38198462  0.10994724  0.48843990  1
  H+  H99  1  0.34791206  0.61942964  1.00414895  1
  H+  H100  1  0.51868986  0.38168831  0.15783137  1
  H+  H101  1  0.59717646  0.63581293  0.15930524  1
  H+  H102  1  0.64572239  0.01979335  1.01596095  1
  H+  H103  1  0.14711214  0.38845193  0.84000376  1
  H+  H104  1  0.63110497  0.27739173  0.17693393  1
  H+  H105  1  0.32834002  0.86107367  0.49141740  1
  H+  H106  1  0.14102666  0.75890937  0.66318281  1
  H+  H107  1  0.85387764  0.91765032  0.78541774  1
  H+  H108  1  0.72970039  0.90199032  0.81292236  1
  H+  H109  1  1.02178983  0.87854132  0.53472006  1
  H+  H110  1  0.12160645  0.23804000  0.65959643  1
  H+  H111  1  0.24523552  0.17231217  0.30269995  1
  H+  H112  1  0.70735077  0.61566314  0.17085457  1
  H+  H113  1  0.92643714  0.12458787  0.83508401  1
  H+  H114  1  0.84154979  0.17293934  0.06347833  1
  H+  H115  1  0.11408529  0.95779057  0.33773053  1
  H+  H116  1  0.27488061  0.63223873  0.34947950  1
  H+  H117  1  0.62883433  0.28506516  0.33063746  1
  H+  H118  1  0.95193381  -0.04886878  0.78096945  1
  H+  H119  1  0.72316928  0.60291631  0.50212953  1
  H+  H120  1  0.58198110  0.47979937  0.33035771  1
  H+  H121  1  0.57940846  0.15655654  0.72654238  1
  H+  H122  1  0.48684016  0.87444290  0.17976040  1
  H+  H123  1  0.38838869  0.51860691  0.83360491  1
  H+  H124  1  0.34676799  0.24576714  0.84378088  1
  H+  H125  1  0.73216900  0.12674722  0.16815298  1
  H+  H126  1  0.08107194  0.41489243  0.73054521  1
  H+  H127  1  0.52133110  0.14733796  0.49355664  1
  H+  H128  1  0.91845974  0.29573844  0.50810221  1
  H+  H129  1  0.47374901  0.10747290  0.84801981  1
  H+  H130  1  0.61639700  0.62987559  0.48999696  1
  H+  H131  1  0.41342726  0.04846963  0.46098218  1
  H+  H132  1  0.89207113  0.37599687  0.16607525  1
  H+  H133  1  0.77166112  0.39734047  0.00421554  1
  H+  H134  1  0.65950320  0.57306001  0.55973484  1
  H+  H135  1  0.63161964  0.61175546  0.98921084  1
  H+  H136  1  0.38242541  0.51720690  0.18600525  1
  H+  H137  1  0.36561219  0.63116361  0.66941990  1
  H+  H138  1  0.87662515  0.49466218  0.16113860  1
  H+  H139  1  0.40291700  0.26449934  0.50863322  1
  H+  H140  1  0.66176141  0.88912132  0.31675073  1
  H+  H141  1  0.23155294  0.37071939  0.33202599  1
  H+  H142  1  0.51781975  0.63362713  0.00211003  1
  H+  H143  1  0.91462831  0.08539780  0.27283158  1
  H+  H144  1  0.85873527  0.39352747  0.00440293  1
  H+  H145  1  0.26318911  0.61876179  0.16839573  1
  H+  H146  1  0.11682111  0.62553462  0.67004113  1
  H+  H147  1  0.36102633  0.87938300  0.67236205  1
  H+  H148  1  0.19787276  0.07419267  0.38065883  1
  H+  H149  1  0.10947123  0.71002354  1.00439090  1
  H+  H150  1  0.78040123  0.87909378  0.34327205  1
  H+  H151  1  0.33256012  0.12323450  0.84395833  1
  H+  H152  1  0.10257845  0.59635031  0.49882449  1
  H+  H153  1  0.64774397  0.28065010  0.99760901  1
  H+  H154  1  0.62515908  0.77571831  0.17118712  1
  H+  H155  1  0.59265150  0.98672813  0.49079637  1
  H+  H156  1  0.27101892  0.87700853  0.67441715  1
  H+  H157  1  0.36073997  0.37837827  0.66571702  1
  H+  H158  1  0.14268078  0.61702177  0.83741914  1
  H+  H159  1  0.73979508  0.11932375  0.00384284  1
  H+  H160  1  0.88071654  0.64858707  0.35184903  1
  H+  H161  1  0.86263164  0.47845108  0.67025758  1
  H+  H162  1  0.36636960  0.96198246  0.83046747  1
  H+  H163  1  1.06270442  0.15361676  0.82193499  1
  H+  H164  1  0.94942840  0.84380671  0.54214341  1
  H+  H165  1  0.63656832  0.93496875  0.84379786  1
  H+  H166  1  0.61978956  0.89783493  0.16384488  1
  H+  H167  1  0.46636677  0.35460539  0.99503511  1
  H+  H168  1  0.33562686  0.89488906  0.06818468  1
  H+  H169  1  0.35175589  0.19678891  0.42570163  1
  H+  H170  1  0.73891819  0.18408049  0.86025101  1
  H+  H171  1  0.12729814  0.73830408  0.15865552  1
  H+  H172  1  0.14134823  0.51792658  0.65794102  1
  H+  H173  1  0.62885670  0.26639723  0.65828975  1
  H+  H174  1  0.60861013  0.37946598  0.66805675  1
  H+  H175  1  0.78260600  0.38217637  0.48863358  1
  H+  H176  1  0.71911856  0.85467341  0.50015318  1
  H+  H177  1  0.91322158  0.11446962  0.50943140  1
  H+  H178  1  0.79184226  0.90071700  -0.00097234  1
  H+  H179  1  0.65607107  0.27662691  0.49944309  1
  H+  H180  1  0.65202208  0.62438704  0.83170215  1
  H+  H181  1  0.02406330  0.62483985  0.34914197  1
  H+  H182  1  0.19084273  0.42012717  0.55891955  1
  H+  H183  1  0.88232447  0.51980310  0.51696874  1
  H+  H184  1  1.01696036  0.39300284  0.67315207  1
  H+  H185  1  0.32388610  0.69418792  0.01348206  1
  H+  H186  1  0.46877277  0.61124213  0.17134576  1
  H+  H187  1  0.24530675  0.38422610  0.83441171  1
  H+  H188  1  0.15964229  0.14408276  0.65291103  1
  H+  H189  1  0.88165690  0.75722709  0.18833574  1
  H+  H190  1  0.02585700  0.39385489  0.16587355  1
  H+  H191  1  0.45129165  0.91579704  0.33918823  1
  H+  H192  1  0.87978589  0.27602835  0.99102635  1
  H+  H193  1  0.02221099  0.87833540  0.34885490  1
  H+  H194  1  0.15298677  0.37395342  0.99549008  1
  H+  H195  1  0.67614419  0.07193221  0.47642124  1
  H+  H196  1  0.17761463  0.55710266  0.56900872  1
  H+  H197  1  0.75207447  0.16049978  0.88221371  1
  H+  H198  1  0.89565196  0.51866683  0.83229085  1
  H+  H199  1  0.15817954  1.07689479  0.38565891  1
  H+  H200  1  0.31579301  0.04683887  0.29499323  1
  H+  H201  1  0.63240398  0.37243147  0.84062108  1
  H+  H202  1  0.97348283  0.60057823  0.51682428  1
  H+  H203  1  0.28280797  0.39477855  0.65235731  1
  H+  H204  1  0.15632026  0.33247154  0.24479613  1
  H+  H205  1  0.61338340  0.39338637  0.16467369  1
  H+  H206  1  0.85399681  0.71790813  0.51115203  1
  H+  H207  1  0.12254347  0.48398820  0.82610347  1
  H+  H208  1  0.52816461  0.63399090  0.49200986  1
  H+  H209  1  0.51834106  0.12371216  0.66825399  1
  H+  H210  1  0.61923499  -0.02537038  0.65288093  1
  H+  H211  1  0.88029092  0.53380989  0.32383536  1
  H+  H212  1  0.52302472  0.29810163  0.04593156  1
  H+  H213  1  0.37626352  0.88295763  0.16617193  1
  H+  H214  1  0.10818242  0.35726202  0.64225825  1
  H+  H215  1  0.60504768  0.71876415  0.81645151  1
  H+  H216  1  0.40698949  0.06975421  0.59926533  1
  H+  H217  1  0.38308371  0.34158223  0.16549905  1
  H+  H218  1  0.38507185  0.76535300  0.65885360  1
  H+  H219  1  0.23160255  0.11398884  0.15122661  1
  H+  H220  1  0.37209495  0.26638080  0.33350668  1
  H+  H221  1  0.13954946  0.60640708  0.33325381  1
  H+  H222  1  0.20335708  0.57999467  -0.00477491  1
  H+  H223  1  0.85008195  0.67675182  0.41844832  1
  H+  H224  1  0.77234882  0.64405662  0.01213769  1
  H+  H225  1  0.92452839  0.86410288  0.86010823  1
  H+  H226  1  0.51659608  0.63208486  0.66201953  1
  H+  H227  1  0.08849119  0.92195237  0.72813102  1
  H+  H228  1  0.23288584  0.60610013  0.65641086  1
  H+  H229  1  0.36386269  0.63200013  0.35272342  1
  H+  H230  1  0.58564196  1.02076314  0.88235566  1
  H+  H231  1  0.87030810  0.23778027  0.15182760  1
  H+  H232  1  0.63245187  0.75705685  0.49710996  1
  H+  H233  1  0.15131517  0.52514644  0.34036257  1
  H+  H234  1  0.38400685  0.85374065  0.83929891  1
  H+  H235  1  0.76387082  0.90187468  0.15759502  1
  H+  H236  1  0.36819551  0.72146016  0.82601878  1
  H+  H237  1  0.77496310  0.30298550  0.78416342  1
  H+  H238  1  0.88521824  0.27983101  0.64901714  1
  H+  H239  1  0.42040050  0.59387034  0.27347562  1
  H+  H240  1  0.12184972  0.24181821  0.01111733  1
  H+  H241  1  0.38905519  0.51900762  0.65439267  1
  H+  H242  1  0.86648987  0.63477494  0.50445029  1
  H+  H243  1  0.40241518  0.52572496  0.49903281  1
  H+  H244  1  0.50969005  0.14454201  0.17154824  1
  H+  H245  1  0.48445113  0.62322284  0.33063681  1
  H+  H246  1  0.62415087  -0.00903988  0.16147389  1
  H+  H247  1  0.13642982  0.03104317  0.16072306  1
  H+  H248  1  0.23297848  0.83824032  1.00067105  1
  H+  H249  1  0.09843322  0.91827567  -0.02948397  1
  H+  H250  1  0.88017632  0.74419735  0.35339951  1
  H+  H251  1  0.63639776  0.36061613  0.99558691  1
  H+  H252  1  0.47763335  0.86442823  0.84042089  1
  H+  H253  1  0.35394377  0.40057285  0.23060623  1
  H+  H254  1  0.52220417  0.85650538  0.42300056  1
  H+  H255  1  0.59561711  0.12533649  0.49465038  1
  H+  H256  1  0.18461811  0.03591186  0.85484847  1
  H+  H257  1  0.77286753  0.14326941  0.66102052  1
  H+  H258  1  0.60495801  0.14840055  0.16948151  1
  H+  H259  1  0.82157014  0.16567580  0.50751352  1
  H+  H260  1  0.63131865  0.85334860  0.63858689  1
  H+  H261  1  0.96496112  0.84946372  0.18267380  1
  H+  H262  1  0.15193300  0.38226698  0.34883444  1
  H+  H263  1  0.44508505  0.78167715  0.98251364  1
  H+  H264  1  0.47810443  0.35712173  0.66437724  1
  H+  H265  1  0.90947974  0.63257140  0.17752908  1
  H+  H266  1  0.38614234  0.52373217  -0.00658963  1
  H+  H267  1  0.14755025  0.62030816  0.18109556  1
  H+  H268  1  0.38828379  0.10844216  0.93758311  1
  H+  H269  1  0.05904508  0.40953583  0.39410829  1
  H+  H270  1  0.08147760  0.91952012  0.50756008  1
  H+  H271  1  0.66037274  0.36696045  0.49834598  1
  H+  H272  1  0.15074175  0.05139819  0.64158069  1
  H+  H273  1  0.36584774  0.86556707  0.00904547  1
  H+  H274  1  0.63223708  0.49926271  0.82169786  1
  H+  H275  1  0.12431296  0.16511746  0.32554284  1
  H+  H276  1  0.79198290  0.58034815  0.15017241  1
  H+  H277  1  0.02563456  0.15230185  0.01256530  1
  H+  H278  1  0.97618085  0.85882123  0.01311710  1
  H+  H279  1  0.54237938  0.90316493  0.01293159  1
  H+  H280  1  0.35934831  0.61232815  0.16558474  1
  H+  H281  1  0.47285587  0.85500160  0.65078068  1
  H+  H282  1  0.03763709  0.32336368  0.03796307  1
  H+  H283  1  0.44547604  0.84095495  0.50259801  1
  H+  H284  1  0.90309411  0.03759907  0.99357558  1
  H+  H285  1  0.16734697  0.05238476  0.49865987  1
  H+  H286  1  0.83671907  0.34245589  0.30728813  1
  H+  H287  1  0.02590913  0.12296760  0.48558357  1
  H+  H288  1  0.90225541  0.32951834  0.22409680  1
  H+  H289  1  0.27226806  0.38151963  0.19114279  1
  H+  H290  1  0.68088927  0.09694679  0.23058103  1
  H+  H291  1  0.65444524  0.81603840  0.57163743  1
  H+  H292  1  0.56897987  0.66447979  0.09915064  1
  H+  H293  1  0.74735343  0.39681476  0.31804582  1
  H+  H294  1  0.59879788  0.17857938  0.39998462  1
  H+  H295  1  0.85636183  0.42776671  0.43523432  1
  H+  H296  1  0.83191378  0.90604629  0.44293536  1
  H+  H297  1  0.33654430  0.66050546  0.72994377  1
  H+  H298  1  0.08852370  0.18509958  0.08660628  1
  H+  H299  1  0.10193470  0.68652636  0.50398954  1
  H+  H300  1  0.11709308  0.48155904  0.16579862  1
  H+  H301  1  0.40432416  0.33201565  0.93523669  1
  H+  H302  1  0.59651243  0.91014259  0.70859192  1
  H+  H303  1  0.94028115  0.09954793  0.93508611  1
  H+  H304  1  0.64781815  0.92536360  0.37761378  1
  H+  H305  1  0.16321306  0.57742465  0.89634997  1
  H+  H306  1  0.31373768  0.14824618  0.77752970  1
  H+  H307  1  0.92842332  0.35138022  0.57271280  1
  H+  H308  1  0.41700837  0.57843111  0.59435022  1
  H+  H309  1  0.13962635  0.45263968  0.44052610  1
  H+  H310  1  0.07098586  0.91199783  0.10079542  1
  H+  H311  1  0.14170238  0.87662393  0.85332947  1
  H+  H312  1  0.34293540  0.42188816  0.07135668  1
  H+  H313  1  0.17106510  0.58216369  0.24110131  1
  H+  H314  1  0.33760185  0.91041301  0.76678917  1
  H+  H315  1  0.08786521  0.16471920  0.41979661  1
  H+  H316  1  0.60237897  0.23398165  0.82388467  1
  H+  H317  1  0.39378435  0.81761481  0.56518543  1
  H+  H318  1  0.34226800  0.14987415  0.08730888  1
  H+  H319  1  0.38820830  0.60761548  0.83547310  1
  H+  H320  1  0.92950088  0.60549144  0.27450433  1
  H+  H321  1  0.29074927  0.12771609  -0.00379255  1
  H+  H322  1  0.07912927  0.40568640  0.07913057  1
  H+  H323  1  0.88193117  0.36934607  0.65310214  1
  H+  H324  1  0.82455180  0.40730832  0.72302993  1
  H+  H325  1  0.82868782  0.93634065  0.10108553  1
  H+  H326  1  0.64423589  0.08460074  0.96050869  1
  H+  H327  1  0.83842272  0.43547853  0.10170466  1
  H+  H328  1  0.11896449  0.86779748  0.01737935  1
  H+  H329  1  0.36324539  0.13003068  0.67996899  1
  H+  H330  1  0.59900394  0.80365989  0.93917254  1
  H+  H331  1  0.58887098  0.67442923  0.39670059  1
  H+  H332  1  0.66450387  0.83082758  0.23195763  1
  H+  H333  1  0.58631889  0.18963308  0.08206025  1
  H+  H334  1  0.66649813  0.03108532  0.31680877  1
  H+  H335  1  0.87553204  0.80395030  0.59451433  1
  H+  H336  1  0.85496997  0.73952435  0.69111701  1
  H+  H337  1  0.56232569  0.38345942  0.32759252  1
  H+  H338  1  0.32427438  0.40675255  0.75759914  1
  H+  H339  1  0.68183764  0.59719489  0.89229713  1
  H+  H340  1  0.39061106  0.60877065  0.50376633  1
  H+  H341  1  0.41112900  0.57832480  0.93087894  1
  H+  H342  1  0.44606045  0.40358235  0.31763705  1
  H+  H343  1  0.09123868  0.65644193  0.73185560  1
  H+  H344  1  0.14497342  0.79475271  0.56880278  1
  H+  H345  1  0.19066395  0.11804128  0.55639300  1
  H+  H346  1  0.11876653  0.23329858  0.16548816  1
  H+  H347  1  0.16676550  0.06908014  0.94891164  1
  H+  H348  1  0.08196485  0.64402207  0.40849271  1
  H+  H349  1  0.59001324  0.42303365  0.72558155  1
  H+  H350  1  0.75079764  0.84395467  0.71675980  1
  H+  H351  1  0.43373494  0.83435907  0.92945271  1
  H+  H352  1  0.92020674  0.57866176  0.92214512  1
  H+  H353  1  0.36631742  0.42380611  0.42362655  1
  H+  H354  1  0.11778961  0.19352852  0.72499056  1
  H+  H355  1  0.00848605  0.86667041  0.88476406  1
  H+  H356  1  0.18852171  0.81907123  0.50405173  1
  H+  H357  1  0.91588940  0.82337585  0.27938311  1
  H+  H358  1  0.58109246  0.66617103  0.71942919  1
  H+  H359  1  0.18795249  0.35903357  0.90329427  1
  H+  H360  1  0.86646724  0.22560770  0.34598913  1
  H+  H361  1  0.15178774  0.82521893  0.24075294  1
  H+  H362  1  0.09544211  0.84930491  0.76130837  1
  H+  H363  1  0.43490610  0.85162192  0.24158630  1
  H+  H364  1  0.38067500  1.01117222  0.65868548  1
  H+  H365  1  0.81541479  0.14522646  0.81588962  1
  H+  H366  1  0.11296606  0.49549609  0.98846896  1
  H+  H367  1  0.78775604  0.24851200  0.28280920  1
  H+  H368  1  0.57330823  0.40926336  0.43558992  1
  H+  H369  1  0.65667057  0.07449025  0.58839152  1
  H+  H370  1  0.50030594  0.35809627  0.51559269  1
  H+  H371  1  0.93411733  0.04022641  0.84256330  1
  H+  H372  1  0.18588566  0.13224892  0.24346254  1
  H+  H373  1  0.82289245  0.65569271  0.10041579  1
  H+  H374  1  0.59726893  0.92752365  0.07743441  1
  H+  H375  1  0.11520482  0.73092050  0.81969086  1
  H+  H376  1  0.71275258  0.88274913  0.88464122  1
  H+  H377  1  0.39909871  0.09412867  0.25105668  1
  H+  H378  1  0.66038276  0.33823204  0.89986220  1
  H+  H379  1  0.53096838  0.06094816  0.91113614  1
  H+  H380  1  0.84232526  0.17561348  0.71590403  1
  H+  H381  1  0.12047606  0.94164668  0.43868174  1
  H+  H382  1  0.86644676  0.18629081  0.44229294  1
  H+  H383  1  0.60299244  0.98047213  0.79800277  1
  O2-  O384  1  0.09106242  0.17673260  0.14267226  1
  O2-  O385  1  0.08692517  0.15960428  0.46706746  1
  O2-  O386  1  0.11878292  0.19114167  0.80236529  1
  O2-  O387  1  0.08668358  0.42080192  0.15073069  1
  O2-  O388  1  0.16095182  0.46580045  0.50671592  1
  O2-  O389  1  0.09624825  0.42104468  0.81445454  1
  O2-  O390  1  0.09996509  0.67627688  0.14815583  1
  O2-  O391  1  0.07163493  0.62574283  0.48546670  1
  O2-  O392  1  0.09206028  0.66823157  0.81097279  1
  O2-  O393  1  0.07024757  0.91757363  0.14543892  1
  O2-  O394  1  0.13662862  0.95927231  0.48156190  1
  O2-  O395  1  0.11378157  0.92609410  0.89793956  1
  O2-  O396  1  0.33335173  0.15235515  0.13158304  1
  O2-  O397  1  0.35105023  0.18568242  0.47078633  1
  O2-  O398  1  0.30237778  0.14884595  0.82178972  1
  O2-  O399  1  0.33638365  0.41101809  0.18976402  1
  O2-  O400  1  0.37475927  0.43092617  0.46835992  1
  O2-  O401  1  0.32626169  0.40928238  0.80355104  1
  O2-  O402  1  0.32202317  0.64020966  0.14749150  1
  O2-  O403  1  0.32297373  0.65060238  0.48355884  1
  O2-  O404  1  0.33823022  0.66084934  0.81104071  1
  O2-  O405  1  0.33902786  0.90405624  0.14546229  1
  O2-  O406  1  0.29399838  0.88591868  0.47463133  1
  O2-  O407  1  0.33354078  0.90400591  0.81228704  1
  O2-  O408  1  0.57630337  0.18059008  0.15687478  1
  O2-  O409  1  0.58255879  0.17054918  0.48258285  1
  O2-  O410  1  0.57662565  0.17322412  0.80951416  1
  O2-  O411  1  0.58174811  0.42063496  0.14614765  1
  O2-  O412  1  0.58551301  0.40924518  0.47946753  1
  O2-  O413  1  0.59332483  0.43794864  0.80733121  1
  O2-  O414  1  0.56576962  0.66569059  0.14428951  1
  O2-  O415  1  0.58916328  0.66482193  0.47701748  1
  O2-  O416  1  0.58049995  0.65959736  0.80249350  1
  O2-  O417  1  0.59367552  0.93072558  0.14501550  1
  O2-  O418  1  0.54720805  0.87841785  0.46334887  1
  O2-  O419  1  0.58788644  0.94777755  0.83581033  1
  O2-  O420  1  0.84037520  0.17674543  0.13783309  1
  O2-  O421  1  0.87771865  0.19454223  0.48792259  1
  O2-  O422  1  0.87137781  0.17834341  0.79630415  1
  O2-  O423  1  0.84135512  0.43407965  0.14687599  1
  O2-  O424  1  0.84989854  0.41783184  0.47904570  1
  O2-  O425  1  0.80258177  0.36138766  0.80051016  1
  O2-  O426  1  0.81925361  0.64270046  0.14732082  1
  O2-  O427  1  0.83610464  0.66403967  0.48675516  1
  O2-  O428  1  0.84220992  0.64851346  0.79125502  1
  O2-  O429  1  0.82402000  0.94178191  0.14539944  1
  O2-  O430  1  0.82338667  0.90727882  0.48802900  1
  O2-  O431  1  0.90721467  0.94091918  0.81039857  1
  O2-  O432  1  0.17167634  0.09420625  0.16739013  1
  O2-  O433  1  0.19023462  0.11596945  0.51065830  1
  O2-  O434  1  0.13012529  0.01194741  0.87728791  1
  O2-  O435  1  0.16024390  0.32993437  0.19939595  1
  O2-  O436  1  0.20554771  0.38576449  0.58932963  1
  O2-  O437  1  0.18568611  0.36234592  0.85686755  1
  O2-  O438  1  0.17271382  0.58452490  0.19487942  1
  O2-  O439  1  0.17947697  0.55414517  0.52198010  1
  O2-  O440  1  0.17014543  0.58287272  0.85138557  1
  O2-  O441  1  0.15988987  0.84161847  0.19466691  1
  O2-  O442  1  0.13391876  0.77972996  0.52508495  1
  O2-  O443  1  0.15439931  0.83908699  0.82428960  1
  O2-  O444  1  0.42144010  0.09840743  0.18793282  1
  O2-  O445  1  0.40661065  0.07277142  0.49977407  1
  O2-  O446  1  0.43740317  0.06007355  0.87715716  1
  O2-  O447  1  0.42081419  0.31680018  0.16616873  1
  O2-  O448  1  0.43919375  0.32106916  0.53303974  1
  O2-  O449  1  0.38493820  0.30985407  0.85486342  1
  O2-  O450  1  0.40888021  0.58165669  0.18982988  1
  O2-  O451  1  0.42619066  0.58419349  0.51845445  1
  O2-  O452  1  0.41896908  0.57738918  0.85114389  1
  O2-  O453  1  0.42814437  0.84375203  0.19677883  1
  O2-  O454  1  0.38676655  0.81281167  0.51975885  1
  O2-  O455  1  0.41816647  0.82695959  0.85519254  1
  O2-  O456  1  0.67331948  0.09558860  0.18559651  1
  O2-  O457  1  0.62863495  0.04694613  0.50523491  1
  O2-  O458  1  0.58977364  0.06994975  0.90655278  1
  O2-  O459  1  0.66395419  0.34052068  0.19052958  1
  O2-  O460  1  0.69470534  0.33909921  0.50681301  1
  O2-  O461  1  0.65790290  0.33728698  0.85414475  1
  O2-  O462  1  0.64648142  0.58458940  0.18343593  1
  O2-  O463  1  0.66119774  0.57267070  0.51291945  1
  O2-  O464  1  0.68472958  0.59712023  0.84693602  1
  O2-  O465  1  0.65716276  0.83556366  0.18693275  1
  O2-  O466  1  0.65601848  0.81986710  0.51234300  1
  O2-  O467  1  0.71516792  0.92039650  0.85160998  1
  O2-  O468  1  0.91386607  0.09408248  0.19243740  1
  O2-  O469  1  0.93947742  0.07875077  0.51792556  1
  O2-  O470  1  0.95522003  0.09941277  0.85878840  1
  O2-  O471  1  0.91967432  0.34271019  0.18062038  1
  O2-  O472  1  0.93693769  0.35528326  0.52455738  1
  O2-  O473  1  0.93090868  0.33684099  0.85179823  1
  O2-  O474  1  0.93706519  0.60138484  0.19495885  1
  O2-  O475  1  0.91373435  0.57976156  0.53220298  1
  O2-  O476  1  0.92000898  0.57678562  0.84856610  1
  O2-  O477  1  0.91365167  0.81348352  0.20787481  1
  O2-  O478  1  0.88175629  0.81107492  0.54907921  1
  O2-  O479  1  0.94373775  0.83068983  0.88407963  1
  O2-  O480  1  0.19351831  0.16484346  0.28153773  1
  O2-  O481  1  0.18951352  0.11214773  0.63334043  1
  O2-  O482  1  0.18675193  0.08711790  0.99135718  1
  O2-  O483  1  0.16951538  0.34705700  0.32361163  1
  O2-  O484  1  0.12035182  0.32216984  0.61278862  1
  O2-  O485  1  0.18329600  0.34618481  0.97681280  1
  O2-  O486  1  0.17240131  0.57916487  0.31643213  1
  O2-  O487  1  0.17367575  0.57594845  0.63836514  1
  O2-  O488  1  0.14544254  0.55603244  0.97622581  1
  O2-  O489  1  0.14881585  0.80888328  0.30851929  1
  O2-  O490  1  0.16882184  0.82010189  0.64917226  1
  O2-  O491  1  0.16993175  0.80906457  0.98631054  1
  O2-  O492  1  0.37696984  0.08836436  0.29781177  1
  O2-  O493  1  0.41153821  0.07242216  0.64380786  1
  O2-  O494  1  0.37120949  0.07997377  0.89673242  1
  O2-  O495  1  0.38391759  0.38097821  0.30356963  1
  O2-  O496  1  0.41720392  0.32333324  0.64771742  1
  O2-  O497  1  0.40692966  0.33603391  0.98038984  1
  O2-  O498  1  0.42176020  0.58744398  0.31809155  1
  O2-  O499  1  0.41696612  0.57986952  0.64030214  1
  O2-  O500  1  0.41000184  0.58297762  0.97634090  1
  O2-  O501  1  0.46096696  0.86966211  0.32405388  1
  O2-  O502  1  0.41069469  0.82501058  0.64168427  1
  O2-  O503  1  0.44469712  0.83487066  0.97490975  1
  O2-  O504  1  0.69052152  0.09390580  0.31053530  1
  O2-  O505  1  0.66309524  0.07633010  0.63316662  1
  O2-  O506  1  0.67325927  0.08546291  1.00214157  1
  O2-  O507  1  0.64532554  0.34357697  0.31411558  1
  O2-  O508  1  0.65279548  0.32701334  0.64614290  1
  O2-  O509  1  0.67358783  0.33963318  0.97763031  1
  O2-  O510  1  0.64790710  0.57409545  0.31033885  1
  O2-  O511  1  0.65712024  0.57423977  0.63017090  1
  O2-  O512  1  0.66666961  0.58748236  0.97179875  1
  O2-  O513  1  0.69620806  0.82038481  0.30458224  1
  O2-  O514  1  0.65495817  0.81634964  0.62317087  1
  O2-  O515  1  0.64628920  0.82574036  0.96836774  1
  O2-  O516  1  0.91751371  0.08446581  0.31828023  1
  O2-  O517  1  0.83998312  0.02159097  0.65704417  1
  O2-  O518  1  0.93264448  0.09962468  0.98058294  1
  O2-  O519  1  0.84539643  0.29397484  0.29402699  1
  O2-  O520  1  0.91659284  0.34232776  0.63745350  1
  O2-  O521  1  0.90831392  0.33701875  0.97618783  1
  O2-  O522  1  0.92082257  0.59687737  0.31953006  1
  O2-  O523  1  0.91650264  0.58148323  0.65781760  1
  O2-  O524  1  0.92114120  0.57853496  0.96866637  1
  O2-  O525  1  0.91839300  0.82832855  0.32580941  1
  O2-  O526  1  0.88571570  0.79872818  0.67456299  1
  O2-  O527  1  0.91611598  0.83585766  0.99902508  1
  O2-  O528  1  0.08421341  0.18720282  0.03295534  1
  O2-  O529  1  0.08561522  0.17831868  0.35217896  1
  O2-  O530  1  0.11475414  0.18587280  0.67980506  1
  O2-  O531  1  0.06926089  0.38605079  0.03441540  1
  O2-  O532  1  0.12158551  0.44064334  0.39378541  1
  O2-  O533  1  0.07819358  0.41809289  0.68575801  1
  O2-  O534  1  0.07107733  0.64879894  0.01960849  1
  O2-  O535  1  0.08444319  0.65025959  0.36298641  1
  O2-  O536  1  0.08634891  0.65462466  0.68654214  1
  O2-  O537  1  0.09204314  0.90433561  0.01646039  1
  O2-  O538  1  0.08428883  0.90411292  0.36038906  1
  O2-  O539  1  0.07144638  0.86157314  0.72402144  1
  O2-  O540  1  0.35534845  0.15797252  0.00204862  1
  O2-  O541  1  0.34579703  0.20746041  0.34932294  1
  O2-  O542  1  0.33695696  0.16320180  0.69626641  1
  O2-  O543  1  0.34005137  0.42266581  0.02691754  1
  O2-  O544  1  0.34943244  0.42134628  0.34452853  1
  O2-  O545  1  0.33270320  0.41150348  0.67954076  1
  O2-  O546  1  0.30751950  0.63547804  0.02521384  1
  O2-  O547  1  0.33115266  0.65762826  0.37095619  1
  O2-  O548  1  0.33560941  0.66194921  0.68459685  1
  O2-  O549  1  0.32722267  0.88567151  0.02316747  1
  O2-  O550  1  0.41595514  0.99123719  0.38409424  1
  O2-  O551  1  0.33257466  0.91066192  0.68875278  1
  O2-  O552  1  0.59653381  0.19197017  0.03666375  1
  O2-  O553  1  0.61204478  0.19030503  0.35624113  1
  O2-  O554  1  0.57976550  0.15243263  0.68154446  1
  O2-  O555  1  0.55129881  0.35900216  0.03499615  1
  O2-  O556  1  0.53852079  0.41834385  0.34394377  1
  O2-  O557  1  0.57892250  0.41263465  0.68145469  1
  O2-  O558  1  0.57760211  0.66024101  0.01844359  1
  O2-  O559  1  0.58408535  0.67399084  0.35170298  1
  O2-  O560  1  0.57931324  0.66746863  0.67433945  1
  O2-  O561  1  0.60188432  0.93062490  0.02975434  1
  O2-  O562  1  0.63846056  0.92555718  0.33394177  1
  O2-  O563  1  0.59054262  0.91138660  0.66455208  1
  O2-  O564  1  0.83714827  0.17108174  0.01724842  1
  O2-  O565  1  0.84954345  0.17184824  0.36859671  1
  O2-  O566  1  0.83524322  0.17446304  0.67100225  1
  O2-  O567  1  0.83389163  0.42943598  0.01837296  1
  O2-  O568  1  0.81242117  0.42544559  0.30945843  1
  O2-  O569  1  0.83036358  0.41425479  0.67839949  1
  O2-  O570  1  0.82802697  0.67067981  0.03348679  1
  O2-  O571  1  0.85380204  0.68122891  0.37120149  1
  O2-  O572  1  0.81690460  0.63119638  0.72647098  1
  O2-  O573  1  0.84813136  0.93404195  0.01803587  1
  O2-  O574  1  0.83979819  0.91252063  0.36422709  1
  O2-  O575  1  0.76584691  0.89622629  0.73949832  1
