# generated using pymatgen
data_H2O
_symmetry_space_group_name_H-M   'P 1'
_cell_length_a   17.98871667
_cell_length_b   17.98646203
_cell_length_c   21.99830770
_cell_angle_alpha   89.99932260
_cell_angle_beta   90.01415295
_cell_angle_gamma   119.98653514
_symmetry_Int_Tables_number   1
_chemical_formula_structural   H2O
_chemical_formula_sum   'H384 O192'
_cell_volume   6164.88136278
_cell_formula_units_Z   192
loop_
 _symmetry_equiv_pos_site_id
 _symmetry_equiv_pos_as_xyz
  1  'x, y, z'
loop_
 _atom_type_symbol
 _atom_type_oxidation_number
  H+  1.0
  O2-  -2.0
loop_
 _atom_site_type_symbol
 _atom_site_label
 _atom_site_symmetry_multiplicity
 _atom_site_fract_x
 _atom_site_fract_y
 _atom_site_fract_z
 _atom_site_occupancy
  H+  H0  1  0.36896927  0.88617045  0.14766919  1
  H+  H1  1  0.09801154  0.63231509  0.34166269  1
  H+  H2  1  0.12690571  0.76006658  0.16203720  1
  H+  H3  1  0.00997828  0.62961069  0.15618420  1
  H+  H4  1  0.92278272  0.32257515  0.91701050  1
  H+  H5  1  0.48324093  0.13063247  0.83613570  1
  H+  H6  1  0.61117171  0.39053908  0.34525084  1
  H+  H7  1  0.60784503  0.39620881  0.50512871  1
  H+  H8  1  0.74008489  0.09923327  0.16553521  1
  H+  H9  1  -0.02887636  0.61063378  0.68173252  1
  H+  H10  1  0.59842118  0.17991937  0.41581091  1
  H+  H11  1  0.13668751  0.35822538  0.67186913  1
  H+  H12  1  0.37949117  0.28436247  0.50898908  1
  H+  H13  1  0.88428666  0.77190968  -0.00108171  1
  H+  H14  1  0.29270993  0.87003364  0.49346749  1
  H+  H15  1  -0.01502815  0.36712608  0.84542755  1
  H+  H16  1  0.86568360  0.09343459  0.51290472  1
  H+  H17  1  0.20910947  0.61536421  0.83918441  1
  H+  H18  1  0.60834540  0.63009263  0.83923174  1
  H+  H19  1  0.36885996  0.47637211  0.33749181  1
  H+  H20  1  0.28037502  0.63320385  0.67217552  1
  H+  H21  1  0.47035601  0.60007499  0.65426382  1
  H+  H22  1  0.62561211  0.85531353  0.99605862  1
  H+  H23  1  0.73627475  0.08803699  0.85036888  1
  H+  H24  1  0.36649364  0.39751723  0.49595434  1
  H+  H25  1  0.85908217  0.63214004  0.83332256  1
  H+  H26  1  0.30888222  0.89708431  0.52235317  1
  H+  H27  1  0.51362253  0.39039042  0.83409716  1
  H+  H28  1  0.61587416  0.73684429  0.49317941  1
  H+  H29  1  0.85018383  0.63098050  0.33688548  1
  H+  H30  1  0.22167979  0.87264761  -0.00154108  1
  H+  H31  1  0.10352173  0.12418773  0.32693952  1
  H+  H32  1  0.76313629  0.63392234  0.33760228  1
  H+  H33  1  0.87097570  0.51028028  0.32410913  1
  H+  H34  1  0.72911208  0.37014832  0.33265033  1
  H+  H35  1  0.82203851  0.66253443  0.43302348  1
  H+  H36  1  -0.03580820  0.09915352  0.31893272  1
  H+  H37  1  0.01001228  0.11876845  0.00442781  1
  H+  H38  1  0.95925951  0.84589533  0.66668725  1
  H+  H39  1  0.87595203  0.76870210  0.32527159  1
  H+  H40  1  0.39949642  0.28474487  0.83686911  1
  H+  H41  1  0.00881264  0.12702240  0.67379733  1
  H+  H42  1  0.87252988  0.39315121  0.68143317  1
  H+  H43  1  0.37018200  0.64109473  -0.00036897  1
  H+  H44  1  0.14741799  0.42062761  0.11340239  1
  H+  H45  1  0.61972083  0.16235857  0.81145208  1
  H+  H46  1  0.13514365  0.36239060  0.33623100  1
  H+  H47  1  0.47873251  0.86499716  0.15823052  1
  H+  H48  1  0.22343813  0.10914546  -0.01322506  1
  H+  H49  1  0.19463521  0.61705919  0.38847049  1
  H+  H50  1  0.94274437  0.33687139  0.17528416  1
  H+  H51  1  0.13203333  0.77941550  1.00160307  1
  H+  H52  1  0.65601412  0.12234679  0.99613480  1
  H+  H53  1  0.11646896  0.87020689  0.83118442  1
  H+  H54  1  0.41965956  0.49942534  0.15212947  1
  H+  H55  1  0.39710423  0.37487785  0.84141553  1
  H+  H56  1  0.88453954  0.10429510  0.99481974  1
  H+  H57  1  0.96090726  0.85118880  0.51081214  1
  H+  H58  1  0.86071543  0.72833764  0.16162014  1
  H+  H59  1  0.86062440  0.89796106  0.15951201  1
  H+  H60  1  0.62953582  0.24290468  0.32955801  1
  H+  H61  1  0.35805208  0.14536366  0.35170528  1
  H+  H62  1  0.64009973  0.61105116  0.99902009  1
  H+  H63  1  0.48779644  0.62678739  0.17225659  1
  H+  H64  1  0.63573886  0.23909661  0.47419383  1
  H+  H65  1  0.27845253  0.12993223  0.50029705  1
  H+  H66  1  0.02583439  0.38524321  0.67505436  1
  H+  H67  1  0.28188736  0.39178287  0.83838013  1
  H+  H68  1  0.12600833  0.98930895  0.84540662  1
  H+  H69  1  0.49676077  0.14887498  0.48810960  1
  H+  H70  1  0.85554298  0.88559284  0.67310783  1
  H+  H71  1  0.22302238  0.38268223  1.03030594  1
  H+  H72  1  0.87172805  1.00314778  0.33251720  1
  H+  H73  1  0.77192152  0.12694042  0.33111169  1
  H+  H74  1  0.13735325  0.54277494  0.99244976  1
  H+  H75  1  0.35176527  0.13227693  0.14653534  1
  H+  H76  1  0.10456312  0.13129902  0.00236736  1
  H+  H77  1  0.63472413  0.61933244  0.50844629  1
  H+  H78  1  0.09105060  0.71126826  0.84205581  1
  H+  H79  1  0.63126030  0.11217805  0.49695550  1
  H+  H80  1  0.96462916  0.85846896  0.32757323  1
  H+  H81  1  0.42059937  0.32470647  0.23588704  1
  H+  H82  1  -0.03302411  0.36642263  -0.00383934  1
  H+  H83  1  0.10535350  -0.03722524  0.50006373  1
  H+  H84  1  0.88356520  0.23757317  0.18188380  1
  H+  H85  1  0.63237093  0.61398711  0.32851861  1
  H+  H86  1  0.36626670  0.94227727  0.68087711  1
  H+  H87  1  0.07722967  0.91678028  0.10163653  1
  H+  H88  1  0.10273577  0.75145964  0.33092996  1
  H+  H89  1  0.28213301  0.64489294  -0.00284629  1
  H+  H90  1  0.11689546  0.10411424  0.66359536  1
  H+  H91  1  0.61506741  0.63947003  0.16026954  1
  H+  H92  1  0.35632851  0.22622059  -0.00067143  1
  H+  H93  1  0.96924201  0.86068031  0.17192526  1
  H+  H94  1  0.35538919  0.23242790  0.34679388  1
  H+  H95  1  0.61765205  0.24934456  0.81772708  1
  H+  H96  1  0.61015539  0.88395304  0.15110323  1
  H+  H97  1  0.63919423  0.52104308  1.00010864  1
  H+  H98  1  0.26265821  0.66773011  0.47579865  1
  H+  H99  1  0.24762794  0.39070742  0.50875591  1
  H+  H100  1  0.87467530  1.00975355  -0.00693063  1
  H+  H101  1  1.01590983  0.88894294  1.00870460  1
  H+  H102  1  0.39845670  0.18168331  0.66445788  1
  H+  H103  1  0.10355397  0.97258015  0.34132542  1
  H+  H104  1  0.63058686  0.94196066  0.70675842  1
  H+  H105  1  0.85350298  0.87752848  0.00620342  1
  H+  H106  1  0.12184212  0.08045496  0.83991688  1
  H+  H107  1  0.44672245  0.32103193  0.69710278  1
  H+  H108  1  0.21788348  0.11240596  0.32651309  1
  H+  H109  1  0.28063591  0.64036052  0.15379523  1
  H+  H110  1  0.15374601  0.30266749  0.51420499  1
  H+  H111  1  0.59186575  0.69278753  0.68994655  1
  H+  H112  1  0.10536119  0.88843953  0.00966594  1
  H+  H113  1  0.13477947  0.27371125  0.32888530  1
  H+  H114  1  0.35644213  0.74735987  0.47307930  1
  H+  H115  1  0.36371746  0.85508690  0.67812583  1
  H+  H116  1  0.06424799  0.43687361  0.53181539  1
  H+  H117  1  0.71030148  0.59407904  0.66662852  1
  H+  H118  1  0.09462319  0.96140860  0.68250313  1
  H+  H119  1  0.58839712  0.18878400  0.72269738  1
  H+  H120  1  0.13201087  0.01815679  0.99340744  1
  H+  H121  1  0.60535557  0.47587841  0.34534540  1
  H+  H122  1  0.34049979  0.67577073  0.38100848  1
  H+  H123  1  0.48642071  0.84689267  0.66574415  1
  H+  H124  1  0.68291955  0.35855922  0.26997872  1
  H+  H125  1  0.87310501  0.76168150  0.50885730  1
  H+  H126  1  0.95775963  0.60023221  0.32109250  1
  H+  H127  1  0.22677799  0.61437728  0.32572240  1
  H+  H128  1  0.26418111  0.13464759  0.15616731  1
  H+  H129  1  0.11577718  0.64721199  0.00315846  1
  H+  H130  1  0.86913789  0.00717411  0.51357538  1
  H+  H131  1  0.52733571  0.89012105  0.33025059  1
  H+  H132  1  0.86895618  0.25162206  0.50421333  1
  H+  H133  1  0.77492662  0.63370508  0.01335803  1
  H+  H134  1  0.61975344  0.73199119  0.15881096  1
  H+  H135  1  0.27768681  0.37426845  0.68562269  1
  H+  H136  1  0.95608447  0.34019222  0.50020662  1
  H+  H137  1  0.86260856  0.21437378  0.33740100  1
  H+  H138  1  0.66120902  0.11753117  0.16006418  1
  H+  H139  1  0.39781267  0.53262771  0.50373036  1
  H+  H140  1  0.63242895  0.51895048  0.17334558  1
  H+  H141  1  0.08776114  0.24491533  0.97571252  1
  H+  H142  1  0.52639665  0.63686092  0.00482931  1
  H+  H143  1  0.71929178  0.60867659  0.17483388  1
  H+  H144  1  0.65695951  0.57824727  0.26935345  1
  H+  H145  1  0.97137057  0.84840873  0.84823426  1
  H+  H146  1  0.76419191  0.63219918  0.49366653  1
  H+  H147  1  0.13617888  0.34377332  0.98271985  1
  H+  H148  1  0.96882386  0.35194130  0.32797035  1
  H+  H149  1  0.77811599  0.43992090  0.18242014  1
  H+  H150  1  0.09591027  0.12748207  0.50592643  1
  H+  H151  1  0.10446847  0.87793695  0.68132970  1
  H+  H152  1  0.62220322  0.16062046  0.66369018  1
  H+  H153  1  -0.02939847  0.10195899  0.84298809  1
  H+  H154  1  0.11171282  0.23011919  0.49853711  1
  H+  H155  1  0.28027165  0.88819660  0.14289061  1
  H+  H156  1  0.67311160  0.78483365  0.63751342  1
  H+  H157  1  0.38920554  0.26937730  0.17393322  1
  H+  H158  1  0.82235970  0.15030941  0.43134006  1
  H+  H159  1  0.75118456  0.39183318  0.66921086  1
  H+  H160  1  0.68133617  0.36556973  0.58486488  1
  H+  H161  1  0.87183640  0.10205374  0.32718883  1
  H+  H162  1  0.87268100  0.59864826  0.49623905  1
  H+  H163  1  0.63926281  0.05893725  0.86332646  1
  H+  H164  1  0.47586787  0.84224658  0.86904889  1
  H+  H165  1  -0.00093637  0.12728797  0.15187833  1
  H+  H166  1  0.02181085  0.63982521  0.00388270  1
  H+  H167  1  0.77208248  0.39062665  -0.00667216  1
  H+  H168  1  0.62623798  0.80177261  0.84459990  1
  H+  H169  1  0.07036440  0.91020256  0.43773623  1
  H+  H170  1  0.61496665  -0.02578676  0.14697835  1
  H+  H171  1  0.61427289  0.48712732  0.83670719  1
  H+  H172  1  0.52673088  0.63862752  0.33840796  1
  H+  H173  1  0.09657178  0.72116186  0.69461037  1
  H+  H174  1  0.12555651  0.61947876  0.50101919  1
  H+  H175  1  0.37886484  0.15991022  0.82999605  1
  H+  H176  1  0.99669008  0.61451370  0.48520936  1
  H+  H177  1  0.35363579  0.71951017  0.83834801  1
  H+  H178  1  0.72640808  0.61049409  0.84594456  1
  H+  H179  1  -0.02308624  0.61192280  0.84649559  1
  H+  H180  1  0.62754329  0.03806697  0.65216607  1
  H+  H181  1  0.24235022  0.39432721  0.13367087  1
  H+  H182  1  0.10357372  0.84125709  0.51303213  1
  H+  H183  1  0.20123374  0.09826439  0.67462379  1
  H+  H184  1  0.63662270  0.86753464  0.32422876  1
  H+  H185  1  0.39943782  0.53045711  0.99411753  1
  H+  H186  1  0.14909088  0.54545902  0.49765429  1
  H+  H187  1  0.89367883  0.26177520  0.99496502  1
  H+  H188  1  0.87536793  0.48697207  0.68580018  1
  H+  H189  1  0.21938450  0.84977625  0.66515718  1
  H+  H190  1  0.47288675  0.35908315  0.33325874  1
  H+  H191  1  0.29292448  0.40582829  0.02510093  1
  H+  H192  1  0.39251238  0.76720775  0.96778602  1
  H+  H193  1  0.88901789  0.27105654  0.66450530  1
  H+  H194  1  0.72334148  0.86737227  0.16977610  1
  H+  H195  1  0.41003243  0.07159227  0.64130356  1
  H+  H196  1  0.12768897  0.02237420  0.17271528  1
  H+  H197  1  0.87668684  0.60042178  0.67537128  1
  H+  H198  1  0.08185919  0.70741005  0.49100016  1
  H+  H199  1  0.12464861  0.40394042  0.50654768  1
  H+  H200  1  0.72575226  0.37003337  0.83507150  1
  H+  H201  1  0.11862069  0.19167810  0.82596730  1
  H+  H202  1  0.53469018  0.37744028  0.16499124  1
  H+  H203  1  0.72385444  0.85526457  0.99786904  1
  H+  H204  1  0.27701304  0.38964447  0.34118478  1
  H+  H205  1  0.13700887  0.31331342  0.81678220  1
  H+  H206  1  0.86649733  0.97066578  0.82650690  1
  H+  H207  1  0.11493403  0.61861705  0.84372523  1
  H+  H208  1  0.50504416  0.15385241  0.64795278  1
  H+  H209  1  0.84169418  0.70983407  0.67926142  1
  H+  H210  1  0.35538604  -0.01781206  0.99517286  1
  H+  H211  1  0.23277554  0.34863213  0.13169114  1
  H+  H212  1  0.54014341  0.15461402  0.33461734  1
  H+  H213  1  0.40127666  0.86955298  0.52315847  1
  H+  H214  1  0.76479123  0.87865215  0.48990036  1
  H+  H215  1  0.24182616  0.84899748  0.32812046  1
  H+  H216  1  0.38546534  0.36202234  0.32986510  1
  H+  H217  1  0.00541716  0.48278644  0.04660227  1
  H+  H218  1  0.52749446  0.88883181  0.49022718  1
  H+  H219  1  0.18675515  0.83289316  0.51584487  1
  H+  H220  1  0.39377442  0.36648398  0.99338209  1
  H+  H221  1  0.84464164  0.36547696  0.49587443  1
  H+  H222  1  0.76001851  0.37421267  0.49959668  1
  H+  H223  1  0.38993941  0.61690886  0.65141063  1
  H+  H224  1  0.46966521  0.61337021  0.84492778  1
  H+  H225  1  0.86955727  0.13796523  0.83164106  1
  H+  H226  1  0.38386421  0.84127436  0.31101355  1
  H+  H227  1  0.09732612  0.88051683  0.34513366  1
  H+  H228  1  0.62851689  0.52716432  0.50949385  1
  H+  H229  1  0.14846073  0.52453660  0.65591943  1
  H+  H230  1  0.89438897  0.26754883  0.84375595  1
  H+  H231  1  0.85764991  0.37632638  0.34065940  1
  H+  H232  1  0.63435662  0.36281261  0.98802643  1
  H+  H233  1  0.88754791  0.52650322  0.99276728  1
  H+  H234  1  0.61522261  0.98055820  0.33189880  1
  H+  H235  1  0.86426539  0.62195360  0.17133028  1
  H+  H236  1  0.07763312  0.24865779  0.18638644  1
  H+  H237  1  0.53735812  0.14240564  0.14495220  1
  H+  H238  1  0.52999591  0.13986066  -0.00096091  1
  H+  H239  1  0.12277566  0.10876404  0.17311164  1
  H+  H240  1  0.72429046  0.86526810  0.32494913  1
  H+  H241  1  0.63138067  0.39341289  0.16304365  1
  H+  H242  1  0.88882836  0.85928533  0.84156545  1
  H+  H243  1  0.78829801  0.14293576  0.01475649  1
  H+  H244  1  0.37914016  0.72123029  0.31854171  1
  H+  H245  1  0.33462373  0.21816199  0.65953381  1
  H+  H246  1  0.46822733  0.37087740  0.51314809  1
  H+  H247  1  0.61483787  0.28844462  0.54608944  1
  H+  H248  1  0.14271921  0.10001703  0.51643591  1
  H+  H249  1  0.75964007  0.12452603  0.48926186  1
  H+  H250  1  0.52664323  0.87357237  -0.01143896  1
  H+  H251  1  0.85472384  0.38233503  -0.00804313  1
  H+  H252  1  0.38946831  0.77451947  0.15980604  1
  H+  H253  1  0.85945629  0.38376117  0.83480623  1
  H+  H254  1  0.63714646  0.27482421  0.98343748  1
  H+  H255  1  0.11129208  0.47670885  0.35077517  1
  H+  H256  1  0.64728358  0.12024674  0.31372114  1
  H+  H257  1  0.39488251  0.60795017  0.32285463  1
  H+  H258  1  0.39111341  0.14425966  0.49377713  1
  H+  H259  1  0.39548728  0.75903306  0.66299261  1
  H+  H260  1  0.10204587  0.49298806  0.83303369  1
  H+  H261  1  0.11460954  0.41065124  0.83281702  1
  H+  H262  1  0.32336908  0.91723415  0.29427041  1
  H+  H263  1  0.64029089  0.86903535  0.50212129  1
  H+  H264  1  0.59743227  0.60796978  0.67873134  1
  H+  H265  1  0.88025255  1.01891610  0.66698322  1
  H+  H266  1  0.77408572  0.13881618  0.67612985  1
  H+  H267  1  0.39461644  0.61722108  0.17011420  1
  H+  H268  1  0.14965769  0.52663703  0.17456339  1
  H+  H269  1  0.62420322  0.86085469  0.67137869  1
  H+  H270  1  0.35340883  0.63258235  0.83204049  1
  H+  H271  1  0.85654479  0.72001207  0.83363787  1
  H+  H272  1  0.39093435  0.98890690  0.45530923  1
  H+  H273  1  0.39088650  0.12094060  0.99170091  1
  H+  H274  1  0.42022791  0.05941292  0.37231910  1
  H+  H275  1  0.05219216  0.43687293  0.07639832  1
  H+  H276  1  0.37700623  0.39755482  0.68922523  1
  H+  H277  1  0.63176280  0.75961261  -0.00189385  1
  H+  H278  1  0.90510553  0.31250151  0.27029303  1
  H+  H279  1  0.87112632  0.50810602  0.49554022  1
  H+  H280  1  0.10914098  0.88628798  0.15912386  1
  H+  H281  1  0.38247627  0.52439341  0.84541622  1
  H+  H282  1  0.42223613  0.41109309  0.15289047  1
  H+  H283  1  0.61505647  0.93008271  0.83962418  1
  H+  H284  1  0.39464627  0.02436110  0.14786370  1
  H+  H285  1  0.61379487  0.73053204  0.33766582  1
  H+  H286  1  0.85904370  0.88393745  0.33897124  1
  H+  H287  1  0.38865770  0.04674003  0.83554956  1
  H+  H288  1  0.76998867  0.89175722  0.66636161  1
  H+  H289  1  0.33933285  0.67040360  0.09314876  1
  H+  H290  1  0.42147349  0.58905489  0.93409153  1
  H+  H291  1  0.66203235  0.33746258  0.89287524  1
  H+  H292  1  0.42470413  0.09638182  0.93256253  1
  H+  H293  1  0.85240699  0.87478321  0.49278567  1
  H+  H294  1  0.83008006  0.91241088  0.40158168  1
  H+  H295  1  0.61213563  0.39319353  0.82836939  1
  H+  H296  1  0.57808528  0.90425012  0.05324023  1
  H+  H297  1  0.07623634  0.14177184  0.76436540  1
  H+  H298  1  0.91026956  0.82880763  0.93802091  1
  H+  H299  1  0.58699625  0.67585305  0.43315475  1
  H+  H300  1  0.68514762  0.06724123  0.95626279  1
  H+  H301  1  0.17266350  0.83555607  0.91652215  1
  H+  H302  1  0.16586408  0.59411633  0.92906281  1
  H+  H303  1  0.42433231  0.33677407  0.93432788  1
  H+  H304  1  0.43034537  0.82556616  0.57150633  1
  H+  H305  1  0.33446805  0.92014033  0.05127200  1
  H+  H306  1  0.08101539  0.89977381  0.77358024  1
  H+  H307  1  0.58352197  0.92112420  0.42826929  1
  H+  H308  1  0.06832033  0.15470705  0.38468582  1
  H+  H309  1  0.40505315  0.07172576  0.30322996  1
  H+  H310  1  0.90491682  0.07570089  0.60626027  1
  H+  H311  1  0.49105766  0.62543118  0.50288769  1
  H+  H312  1  0.83995745  0.91377130  0.76632540  1
  H+  H313  1  0.16967167  0.07167700  0.57723744  1
  H+  H314  1  0.33663837  0.41622493  0.77689748  1
  H+  H315  1  0.81569814  0.65450918  0.74017329  1
  H+  H316  1  0.21126236  0.79750132  0.86858916  1
  H+  H317  1  0.42680884  0.83224805  0.25042733  1
  H+  H318  1  0.66382087  0.83686259  0.22932820  1
  H+  H319  1  0.07362825  0.41357779  0.40565808  1
  H+  H320  1  0.14903750  0.81925641  0.61156676  1
  H+  H321  1  0.52428895  0.38378669  1.00859303  1
  H+  H322  1  0.08574921  0.36824323  0.16650960  1
  H+  H323  1  0.13856249  0.32470300  0.89063001  1
  H+  H324  1  0.62787402  0.02058308  0.50079427  1
  H+  H325  1  0.65611019  0.31308852  0.66660690  1
  H+  H326  1  0.16113910  0.08025700  0.26461104  1
  H+  H327  1  0.35399061  0.19137308  0.76969862  1
  H+  H328  1  0.73551507  0.33705542  0.18933135  1
  H+  H329  1  0.83269989  0.66494152  0.10128915  1
  H+  H330  1  0.15582196  0.06137557  0.90936501  1
  H+  H331  1  0.33832816  0.42791755  0.43469769  1
  H+  H332  1  0.42690386  0.59392081  0.57258759  1
  H+  H333  1  0.11526757  0.31322382  0.24287426  1
  H+  H334  1  0.06677498  0.66023221  0.75365600  1
  H+  H335  1  0.19630990  0.81547316  0.21113292  1
  H+  H336  1  0.83848096  0.41623724  0.77224837  1
  H+  H337  1  0.66914923  0.58026933  0.90727809  1
  H+  H338  1  0.88991817  0.57232389  0.23508813  1
  H+  H339  1  0.83485657  0.16704710  0.77375737  1
  H+  H340  1  0.14118397  0.60921398  0.17415859  1
  H+  H341  1  0.58521124  0.66632534  0.06586772  1
  H+  H342  1  0.42697077  0.08903270  0.20258581  1
  H+  H343  1  0.32458578  0.92391736  0.77327430  1
  H+  H344  1  0.66008810  0.58041449  0.60337588  1
  H+  H345  1  0.32766921  0.16924850  0.43445688  1
  H+  H346  1  0.90226720  0.81946224  0.60603752  1
  H+  H347  1  0.58636950  0.41131132  0.06722485  1
  H+  H348  1  0.26994556  0.91814005  0.83098921  1
  H+  H349  1  0.86569411  0.63604856  0.01223838  1
  H+  H350  1  0.62305655  0.23178653  0.15039293  1
  H+  H351  1  0.57128771  0.64462589  0.77771933  1
  H+  H352  1  0.85761904  0.16559292  0.06879094  1
  H+  H353  1  0.56797988  0.86802949  0.78393650  1
  H+  H354  1  0.06867680  0.15737286  0.43847717  1
  H+  H355  1  0.91048610  0.07610604  0.90212883  1
  H+  H356  1  0.44470943  0.12550962  0.55445800  1
  H+  H357  1  0.08200959  0.42292746  0.73506030  1
  H+  H358  1  0.05822267  0.65448668  0.39877022  1
  H+  H359  1  0.36777413  0.93600886  0.39358572  1
  H+  H360  1  0.85063214  0.98302252  0.15210345  1
  H+  H361  1  0.66380535  0.09220014  0.59246628  1
  H+  H362  1  0.32160954  0.16637909  0.05807558  1
  H+  H363  1  0.11754102  0.81100181  0.27298700  1
  H+  H364  1  0.82361764  0.91075915  0.06464815  1
  H+  H365  1  0.91592459  0.58909975  0.93550602  1
  H+  H366  1  0.57718107  0.45821228  0.64811549  1
  H+  H367  1  0.10196102  0.21614858  0.67611401  1
  H+  H368  1  0.91308754  0.32508669  0.60336487  1
  H+  H369  1  0.38498945  0.43984146  0.06378972  1
  H+  H370  1  0.57747435  0.41783897  0.44187079  1
  H+  H371  1  0.67195076  0.84190494  0.56494463  1
  H+  H372  1  0.67467023  0.08347400  0.25623587  1
  H+  H373  1  0.42696618  0.58053526  0.26439631  1
  H+  H374  1  0.17420781  0.33883069  0.61298672  1
  H+  H375  1  0.90805410  0.83083149  0.23037096  1
  H+  H376  1  0.85938302  0.13166762  0.67780825  1
  H+  H377  1  0.07019211  0.16189653  0.10059241  1
  H+  H378  1  0.82701469  0.40485561  0.40080956  1
  H+  H379  1  0.17829826  0.58947801  0.59936933  1
  H+  H380  1  0.88224354  0.52412934  0.84730813  1
  H+  H381  1  0.59624872  0.17365447  0.05454788  1
  H+  H382  1  0.33710026  0.66357565  0.73393290  1
  H+  H383  1  0.07066910  0.65904034  0.09723002  1
  O2-  O384  1  0.06260093  0.15536861  0.14552039  1
  O2-  O385  1  0.07160065  0.16427585  0.48667504  1
  O2-  O386  1  0.07887118  0.13480082  0.80997094  1
  O2-  O387  1  0.09972862  0.41805053  0.13649595  1
  O2-  O388  1  0.08314038  0.42326091  0.49380362  1
  O2-  O389  1  0.07436413  0.42966219  0.81851043  1
  O2-  O390  1  0.07054171  0.65948847  0.14314140  1
  O2-  O391  1  0.06059746  0.65057849  0.47112141  1
  O2-  O392  1  0.06542445  0.65225069  0.82765234  1
  O2-  O393  1  0.07741101  0.91564073  0.14743019  1
  O2-  O394  1  0.06859202  0.90474050  0.48317193  1
  O2-  O395  1  0.08566579  0.90065332  0.81949084  1
  O2-  O396  1  0.32301672  0.16584558  0.13822145  1
  O2-  O397  1  0.33586149  0.16677824  0.48078040  1
  O2-  O398  1  0.35103824  0.19241788  0.81430434  1
  O2-  O399  1  0.42924774  0.45915973  0.12701207  1
  O2-  O400  1  0.33885695  0.43182877  0.48030454  1
  O2-  O401  1  0.34156862  0.41996745  0.82320162  1
  O2-  O402  1  0.34136971  0.67151293  0.13855947  1
  O2-  O403  1  0.31024993  0.70400250  0.44726840  1
  O2-  O404  1  0.32501354  0.66449569  0.81591544  1
  O2-  O405  1  0.34188313  0.92051598  0.13270433  1
  O2-  O406  1  0.41348305  0.98650210  0.41548313  1
  O2-  O407  1  0.31495195  0.95892293  0.80303409  1
  O2-  O408  1  0.59995389  0.17322833  0.13535220  1
  O2-  O409  1  0.59327941  0.18040799  0.46234729  1
  O2-  O410  1  0.58654522  0.18897027  0.79882047  1
  O2-  O411  1  0.59313728  0.41375445  0.14703159  1
  O2-  O412  1  0.57469440  0.42143943  0.48706611  1
  O2-  O413  1  0.58069162  0.42541698  0.81875679  1
  O2-  O414  1  0.58829329  0.67175533  0.14275327  1
  O2-  O415  1  0.58524859  0.67488271  0.47876715  1
  O2-  O416  1  0.57004048  0.65037723  0.82255720  1
  O2-  O417  1  0.58084549  0.91358089  0.13274658  1
  O2-  O418  1  0.58691976  0.92363744  0.47373921  1
  O2-  O419  1  0.56791678  0.87230961  0.82875431  1
  O2-  O420  1  0.85054528  0.13520846  0.14690149  1
  O2-  O421  1  0.82126065  0.15280508  0.47648691  1
  O2-  O422  1  0.83833135  0.16954282  0.81924378  1
  O2-  O423  1  0.85329451  0.50132900  0.15691055  1
  O2-  O424  1  0.81548367  0.39524720  0.47810157  1
  O2-  O425  1  0.82984178  0.41279629  0.81841980  1
  O2-  O426  1  0.83073774  0.66603043  0.14817065  1
  O2-  O427  1  0.82476258  0.66142916  0.47821049  1
  O2-  O428  1  0.82501663  0.65932720  0.81865629  1
  O2-  O429  1  0.82543272  0.92059621  0.14136100  1
  O2-  O430  1  0.82621090  0.90732787  0.47438659  1
  O2-  O431  1  0.86074573  0.91790765  0.80867113  1
  O2-  O432  1  0.15750954  0.08283876  0.18798334  1
  O2-  O433  1  0.17607286  0.07310603  0.53116618  1
  O2-  O434  1  0.15186020  0.05250235  0.86038447  1
  O2-  O435  1  0.07412728  0.29491480  0.20866526  1
  O2-  O436  1  0.18677785  0.36306358  0.52824243  1
  O2-  O437  1  0.16814167  0.35182107  0.85022439  1
  O2-  O438  1  0.17954855  0.58778787  0.18680253  1
  O2-  O439  1  0.16946211  0.60325441  0.51425769  1
  O2-  O440  1  0.15107313  0.58573253  0.85767795  1
  O2-  O441  1  0.16462993  0.82146656  0.17728746  1
  O2-  O442  1  0.12732905  0.80558022  0.53029653  1
  O2-  O443  1  0.18306889  0.83180645  0.87096288  1
  O2-  O444  1  0.42558949  0.08773080  0.15838600  1
  O2-  O445  1  0.43788177  0.12155458  0.50827939  1
  O2-  O446  1  0.42602036  0.10423002  0.85553511  1
  O2-  O447  1  0.42967589  0.32675203  0.19114863  1
  O2-  O448  1  0.40595555  0.34378292  0.52327583  1
  O2-  O449  1  0.43133448  0.34656944  0.85421600  1
  O2-  O450  1  0.42762430  0.59156924  0.18792629  1
  O2-  O451  1  0.42947915  0.59350031  0.51981587  1
  O2-  O452  1  0.40856773  0.58529633  0.85942811  1
  O2-  O453  1  0.41830822  0.83604451  0.17451511  1
  O2-  O454  1  0.42919043  0.83506989  0.52625844  1
  O2-  O455  1  0.41584427  0.81855449  0.88518344  1
  O2-  O456  1  0.67942260  0.07888174  0.17821899  1
  O2-  O457  1  0.65768260  0.08172250  0.51699489  1
  O2-  O458  1  0.68266772  0.04257372  0.87006123  1
  O2-  O459  1  0.71879658  0.38028831  0.19669841  1
  O2-  O460  1  0.66238346  0.34641014  0.53932638  1
  O2-  O461  1  0.66298621  0.34144851  0.84681609  1
  O2-  O462  1  0.65923565  0.57898384  0.18959102  1
  O2-  O463  1  0.66322322  0.58781231  0.52427762  1
  O2-  O464  1  0.66522663  0.57838942  0.86174872  1
  O2-  O465  1  0.66228137  0.83488949  0.18387672  1
  O2-  O466  1  0.66793427  0.83658971  0.51705852  1
  O2-  O467  1  0.67587338  0.79281007  0.83915069  1
  O2-  O468  1  0.88836120  0.09032751  0.16586002  1
  O2-  O469  1  0.89585337  0.06573327  0.53149906  1
  O2-  O470  1  0.91125178  0.08164583  0.85650745  1
  O2-  O471  1  0.89187037  0.29377461  0.19647317  1
  O2-  O472  1  0.89949008  0.31275194  0.51975829  1
  O2-  O473  1  0.92404775  0.32732672  0.86325232  1
  O2-  O474  1  0.89570104  0.58483006  0.18884726  1
  O2-  O475  1  0.90574887  0.56954215  0.50632605  1
  O2-  O476  1  0.91188444  0.58437075  0.86160240  1
  O2-  O477  1  0.90779623  0.83016136  0.18490327  1
  O2-  O478  1  0.90084747  0.82169762  0.52575080  1
  O2-  O479  1  0.91167251  0.82376139  0.86243849  1
  O2-  O480  1  0.15811343  0.07922698  0.31057837  1
  O2-  O481  1  0.14856006  0.07249481  0.65055796  1
  O2-  O482  1  0.16174675  0.07566859  0.97182348  1
  O2-  O483  1  0.16680246  0.33522275  0.31831523  1
  O2-  O484  1  0.16380429  0.32450896  0.65662878  1
  O2-  O485  1  0.09480064  0.29814493  0.95553972  1
  O2-  O486  1  0.17174850  0.59348467  0.34815419  1
  O2-  O487  1  0.18699768  0.58439346  0.64298437  1
  O2-  O488  1  0.17382743  0.60046811  0.97537908  1
  O2-  O489  1  0.13463024  0.81393051  0.31561177  1
  O2-  O490  1  0.15868698  0.83115580  0.65575096  1
  O2-  O491  1  0.15780231  0.83970265  0.98627086  1
  O2-  O492  1  0.42644546  0.10420285  0.34081454  1
  O2-  O493  1  0.44502116  0.13063071  0.62722825  1
  O2-  O494  1  0.42365008  0.09274784  0.97806348  1
  O2-  O495  1  0.41253914  0.32726364  0.31723358  1
  O2-  O496  1  0.47460642  0.38437434  0.69425677  1
  O2-  O497  1  0.42018756  0.33115065  0.97944052  1
  O2-  O498  1  0.42624438  0.57725689  0.31010097  1
  O2-  O499  1  0.41866124  0.58868852  0.62987377  1
  O2-  O500  1  0.42656392  0.59184640  0.97989109  1
  O2-  O501  1  0.42782439  0.82834468  0.29616390  1
  O2-  O502  1  0.42762757  0.82092024  0.64773185  1
  O2-  O503  1  0.42839125  0.82733663  0.95136930  1
  O2-  O504  1  0.67308590  0.08462725  0.30186423  1
  O2-  O505  1  0.66478044  0.09687774  0.63830147  1
  O2-  O506  1  0.69283983  0.09567794  0.99583683  1
  O2-  O507  1  0.67000449  0.34454369  0.31435040  1
  O2-  O508  1  0.69194198  0.37238636  0.65224232  1
  O2-  O509  1  0.66414869  0.33509212  0.96754690  1
  O2-  O510  1  0.65899434  0.57927869  0.31479902  1
  O2-  O511  1  0.65131901  0.56778112  0.64790672  1
  O2-  O512  1  0.67224692  0.58188311  0.98549611  1
  O2-  O513  1  0.66487423  0.83536243  0.30853252  1
  O2-  O514  1  0.67921426  0.84138685  0.63254245  1
  O2-  O515  1  0.66136327  0.82259275  0.98368871  1
  O2-  O516  1  0.90000865  0.06601908  0.31303750  1
  O2-  O517  1  0.91110578  0.08109094  0.65206985  1
  O2-  O518  1  0.90982132  0.07009080  0.97765822  1
  O2-  O519  1  0.90750825  0.31800707  0.31619134  1
  O2-  O520  1  0.92046649  0.33074500  0.64807543  1
  O2-  O521  1  0.91617908  0.32022808  0.97335406  1
  O2-  O522  1  0.89691117  0.56956728  0.30640223  1
  O2-  O523  1  0.91103664  0.57335085  0.66447639  1
  O2-  O524  1  0.91855845  0.58915503  0.98178056  1
  O2-  O525  1  0.90546813  0.82981890  0.31032196  1
  O2-  O526  1  0.89955715  0.81912984  0.65137057  1
  O2-  O527  1  0.91190893  0.83232089  0.98395995  1
  O2-  O528  1  0.07125795  0.15756369  0.01763155  1
  O2-  O529  1  0.06809926  0.15255754  0.33955000  1
  O2-  O530  1  0.07105327  0.15433705  0.68904067  1
  O2-  O531  1  0.03567123  0.45194136  0.03655036  1
  O2-  O532  1  0.07917817  0.41445934  0.36119674  1
  O2-  O533  1  0.08610032  0.41465184  0.69078185  1
  O2-  O534  1  0.08147942  0.67133242  0.02185002  1
  O2-  O535  1  0.05994835  0.65588824  0.35214716  1
  O2-  O536  1  0.06507032  0.66109996  0.70773565  1
  O2-  O537  1  0.07672723  0.92129180  0.02415337  1
  O2-  O538  1  0.07025899  0.91405609  0.35942618  1
  O2-  O539  1  0.06956389  0.90251831  0.69874322  1
  O2-  O540  1  0.32312026  0.16444003  0.01277516  1
  O2-  O541  1  0.32235909  0.17125737  0.36347526  1
  O2-  O542  1  0.36965935  0.20752931  0.68807021  1
  O2-  O543  1  0.35996140  0.42989949  0.02063272  1
  O2-  O544  1  0.33712158  0.41751080  0.35656354  1
  O2-  O545  1  0.33360753  0.41032010  0.70553350  1
  O2-  O546  1  0.34291895  0.67602480  0.01152186  1
  O2-  O547  1  0.34536483  0.66321742  0.33734396  1
  O2-  O548  1  0.34153005  0.66372644  0.68871189  1
  O2-  O549  1  0.31986008  0.92129606  0.00815967  1
  O2-  O550  1  0.30614448  0.87812033  0.32881812  1
  O2-  O551  1  0.32939036  0.88246086  0.69208558  1
  O2-  O552  1  0.59280010  0.17139568  0.00949179  1
  O2-  O553  1  0.60226954  0.18087788  0.34381682  1
  O2-  O554  1  0.59144811  0.19122643  0.67702649  1
  O2-  O555  1  0.58586435  0.41403081  0.02186441  1
  O2-  O556  1  0.57679183  0.41574943  0.36155946  1
  O2-  O557  1  0.52909642  0.39808069  0.64050240  1
  O2-  O558  1  0.58767630  0.66600950  0.02024029  1
  O2-  O559  1  0.58678895  0.67136215  0.35516431  1
  O2-  O560  1  0.56077629  0.63106151  0.69708808  1
  O2-  O561  1  0.58375127  0.89788144  0.00868864  1
  O2-  O562  1  0.58545970  0.92140664  0.34943197  1
  O2-  O563  1  0.58869444  0.88249465  0.69760438  1
  O2-  O564  1  0.85283315  0.17151441  0.02391949  1
  O2-  O565  1  0.83109444  0.15176187  0.34952356  1
  O2-  O566  1  0.83221023  0.16516743  0.69394565  1
  O2-  O567  1  0.83317538  0.41948966  0.00650552  1
  O2-  O568  1  0.83038344  0.40972961  0.35541761  1
  O2-  O569  1  0.84378577  0.42175709  0.70058496  1
  O2-  O570  1  0.83523186  0.66566419  0.02960931  1
  O2-  O571  1  0.82457539  0.66539206  0.35181438  1
  O2-  O572  1  0.81128524  0.64985773  0.69481863  1
  O2-  O573  1  0.82075141  0.90679190  0.01911149  1
  O2-  O574  1  0.83195347  0.91736558  0.35513023  1
  O2-  O575  1  0.82909688  0.91982701  0.68696290  1
