# generated using pymatgen
data_H2O
_symmetry_space_group_name_H-M   'P 1'
_cell_length_a   17.98406893
_cell_length_b   17.98602086
_cell_length_c   21.98786037
_cell_angle_alpha   89.99133403
_cell_angle_beta   89.98473375
_cell_angle_gamma   119.97842404
_symmetry_Int_Tables_number   1
_chemical_formula_structural   H2O
_chemical_formula_sum   'H384 O192'
_cell_volume   6160.71324908
_cell_formula_units_Z   192
loop_
 _symmetry_equiv_pos_site_id
 _symmetry_equiv_pos_as_xyz
  1  'x, y, z'
loop_
 _atom_type_symbol
 _atom_type_oxidation_number
  H+  1.0
  O2-  -2.0
loop_
 _atom_site_type_symbol
 _atom_site_label
 _atom_site_symmetry_multiplicity
 _atom_site_fract_x
 _atom_site_fract_y
 _atom_site_fract_z
 _atom_site_occupancy
  H+  H0  1  0.02117263  0.63229602  0.49184921  1
  H+  H1  1  0.61066920  0.38529295  0.82975604  1
  H+  H2  1  0.62303493  0.47976426  0.15342648  1
  H+  H3  1  0.84304461  0.66834367  0.40459486  1
  H+  H4  1  0.40540954  0.04158252  0.16984073  1
  H+  H5  1  0.61677602  0.73102607  0.34060121  1
  H+  H6  1  0.10470370  0.84045219  0.15680173  1
  H+  H7  1  0.36748797  0.64750710  0.82322025  1
  H+  H8  1  0.39301559  0.36632831  0.32469820  1
  H+  H9  1  0.68303699  0.09205538  0.88669681  1
  H+  H10  1  0.90714549  0.57824807  0.90097325  1
  H+  H11  1  0.15537376  0.33529385  0.80572691  1
  H+  H12  1  0.72394257  0.86263005  0.82142070  1
  H+  H13  1  0.06982840  0.31923087  0.95910139  1
  H+  H14  1  0.59171318  0.67056472  0.09627580  1
  H+  H15  1  0.63055696  0.52576917  0.96726523  1
  H+  H16  1  0.76968798  0.37613035  0.49348428  1
  H+  H17  1  0.90941085  0.83348038  0.89717071  1
  H+  H18  1  0.36579070  0.86514504  0.29880442  1
  H+  H19  1  0.63666213  0.61528154  0.17035545  1
  H+  H20  1  0.26718343  0.63021009  0.34193558  1
  H+  H21  1  0.10366158  0.41824426  0.81735109  1
  H+  H22  1  0.88476914  0.36151391  0.99019342  1
  H+  H23  1  0.36090378  0.95632574  0.46190740  1
  H+  H24  1  0.96502217  0.61290466  0.99316860  1
  H+  H25  1  0.15203639  1.11653307  0.01822511  1
  H+  H26  1  0.49310366  0.11602270  0.66918005  1
  H+  H27  1  0.65108086  0.12962269  0.99927664  1
  H+  H28  1  0.38497177  0.11722626  0.47124391  1
  H+  H29  1  0.91149460  0.08191775  0.92396036  1
  H+  H30  1  0.11733404  0.85849779  0.32722335  1
  H+  H31  1  0.08920827  0.72210971  0.14747633  1
  H+  H32  1  0.38214276  0.61422962  0.51513962  1
  H+  H33  1  0.38411696  0.36660408  0.83596229  1
  H+  H34  1  0.60823941  0.88898650  0.66976015  1
  H+  H35  1  0.77602061  0.38668530  0.00463503  1
  H+  H36  1  0.85667016  0.10771771  0.33930610  1
  H+  H37  1  0.36021917  0.64388888  0.67714112  1
  H+  H38  1  0.96901041  0.08972037  0.32246332  1
  H+  H39  1  1.02262210  0.88524468  0.50032407  1
  H+  H40  1  0.31374732  0.73368049  0.02648925  1
  H+  H41  1  0.39343912  0.52776936  0.32702989  1
  H+  H42  1  0.72774765  0.11515766  0.69632615  1
  H+  H43  1  0.41549280  0.83241733  0.22473616  1
  H+  H44  1  0.48674650  0.10748213  -0.00537234  1
  H+  H45  1  0.38695336  0.24513818  0.47445802  1
  H+  H46  1  0.76452805  0.63283669  0.85610828  1
  H+  H47  1  0.26708280  0.85013973  0.01360540  1
  H+  H48  1  0.72182980  0.09679676  0.32909618  1
  H+  H49  1  0.60792574  0.47151072  0.83767930  1
  H+  H50  1  0.62870122  0.77497410  0.50379968  1
  H+  H51  1  0.01556919  0.11900213  0.15106689  1
  H+  H52  1  0.63758405  0.77433488  0.82969010  1
  H+  H53  1  0.61736092  0.65318737  -0.00802578  1
  H+  H54  1  0.35913365  0.63718522  0.34405141  1
  H+  H55  1  0.87706162  0.26352707  0.68168353  1
  H+  H56  1  0.37523656  0.64950518  0.16113308  1
  H+  H57  1  0.39680164  0.64835990  0.98629247  1
  H+  H58  1  0.72204085  0.60678484  0.65586548  1
  H+  H59  1  0.86608104  0.13542004  0.71610749  1
  H+  H60  1  0.39352730  0.49869467  0.49857002  1
  H+  H61  1  -0.03975131  0.09899167  0.82958789  1
  H+  H62  1  0.40499687  0.13076836  0.16992438  1
  H+  H63  1  0.86794104  0.13676745  -0.00190866  1
  H+  H64  1  0.33401303  0.91090281  0.10672993  1
  H+  H65  1  0.62933833  0.86984153  0.50527377  1
  H+  H66  1  0.87323973  0.85562361  0.83291953  1
  H+  H67  1  0.88757912  0.11137045  0.17699369  1
  H+  H68  1  0.65510921  0.82890819  0.23181261  1
  H+  H69  1  0.13030381  0.40038921  0.03222644  1
  H+  H70  1  0.63951301  0.02554768  0.17305060  1
  H+  H71  1  0.21287341  0.60617249  1.00705558  1
  H+  H72  1  0.86583386  0.47266764  0.66558244  1
  H+  H73  1  0.62184798  0.13900930  0.33985563  1
  H+  H74  1  0.63600109  0.27494731  0.83917649  1
  H+  H75  1  -0.02931038  0.61316649  0.64907426  1
  H+  H76  1  0.63983272  0.27209822  0.66083735  1
  H+  H77  1  0.36320968  0.31565776  0.65847709  1
  H+  H78  1  0.76674539  0.85443369  0.35020080  1
  H+  H79  1  0.87763772  0.26554011  0.82511647  1
  H+  H80  1  0.77561482  0.38495109  0.66886815  1
  H+  H81  1  0.72493355  0.87329375  0.66106131  1
  H+  H82  1  0.88679168  0.11016722  0.50263762  1
  H+  H83  1  0.07348095  0.36035561  0.17522824  1
  H+  H84  1  0.11596828  0.10143200  0.32710617  1
  H+  H85  1  0.62582161  0.87073540  0.33034679  1
  H+  H86  1  0.37706265  0.53205632  0.67345661  1
  H+  H87  1  0.73208572  0.87463824  0.50098181  1
  H+  H88  1  0.64254598  0.03211298  0.67303397  1
  H+  H89  1  0.00343697  0.38752709  0.81250312  1
  H+  H90  1  0.40730779  0.27847217  0.17703193  1
  H+  H91  1  0.08631512  0.91071158  0.73461738  1
  H+  H92  1  0.91242027  0.72194238  0.46912718  1
  H+  H93  1  0.52521957  0.89295307  0.15641093  1
  H+  H94  1  0.36519963  0.42109044  0.68407093  1
  H+  H95  1  0.63239077  0.60958748  0.86581504  1
  H+  H96  1  0.35184540  0.21949189  0.82854624  1
  H+  H97  1  0.88746826  0.77552539  0.98892144  1
  H+  H98  1  1.02225927  0.63665233  0.34050235  1
  H+  H99  1  0.14367667  0.61656993  0.85737152  1
  H+  H100  1  0.88167603  0.35286801  0.66702173  1
  H+  H101  1  0.87040966  0.35657870  0.17129148  1
  H+  H102  1  0.63102208  0.52050158  0.65384594  1
  H+  H103  1  0.17388302  0.84146945  0.59036309  1
  H+  H104  1  0.13354750  0.27958760  0.37866237  1
  H+  H105  1  0.49033952  0.63056789  0.17644535  1
  H+  H106  1  0.53225333  0.63602668  0.82833242  1
  H+  H107  1  0.75279218  0.63361174  0.15842885  1
  H+  H108  1  0.99809753  0.37283998  0.33320405  1
  H+  H109  1  0.72465976  0.36532943  0.83568141  1
  H+  H110  1  0.11121979  0.74420240  0.66017518  1
  H+  H111  1  0.86775121  0.22719874  1.00048195  1
  H+  H112  1  0.23410258  0.85835022  0.84018790  1
  H+  H113  1  0.87835026  0.52260263  0.83892330  1
  H+  H114  1  0.10259776  -0.02432642  0.34065839  1
  H+  H115  1  0.19861075  0.77988092  0.19876792  1
  H+  H116  1  0.02019618  0.87065253  0.00334574  1
  H+  H117  1  0.42816621  0.79404816  -0.01411693  1
  H+  H118  1  0.22155664  0.60795792  0.50896725  1
  H+  H119  1  0.88507673  0.53529567  0.33108661  1
  H+  H120  1  0.11046624  0.47292088  0.01091599  1
  H+  H121  1  0.87493380  0.10699556  0.82648177  1
  H+  H122  1  0.73500323  0.11958013  0.82378533  1
  H+  H123  1  0.36798644  -0.01011702  0.30884710  1
  H+  H124  1  0.53792419  0.39095572  0.49712454  1
  H+  H125  1  0.87518049  0.99858299  0.32568111  1
  H+  H126  1  0.41619182  0.57121141  0.97690914  1
  H+  H127  1  0.76676560  0.63936732  -0.00598060  1
  H+  H128  1  0.86555029  0.00932033  0.67480122  1
  H+  H129  1  0.64013924  0.27584681  0.17091199  1
  H+  H130  1  0.14433654  0.76894011  0.84027454  1
  H+  H131  1  0.49941571  0.36830271  0.17550807  1
  H+  H132  1  0.38351031  0.77515670  0.66076787  1
  H+  H133  1  0.61449595  0.14034312  0.82653105  1
  H+  H134  1  0.16298866  0.15427283  0.18254921  1
  H+  H135  1  0.89025281  0.84855573  0.68399757  1
  H+  H136  1  0.33773494  0.43463812  0.76803442  1
  H+  H137  1  0.63997039  0.35916130  0.50391501  1
  H+  H138  1  0.24557520  0.14031000  0.45761551  1
  H+  H139  1  0.62287584  0.14089865  0.68282695  1
  H+  H140  1  0.13650935  0.62943243  0.65621493  1
  H+  H141  1  0.20773916  0.33837811  1.02391410  1
  H+  H142  1  0.63167162  0.47851737  0.49197676  1
  H+  H143  1  0.09234907  0.19681568  0.82764760  1
  H+  H144  1  0.85180123  0.63348350  0.00401468  1
  H+  H145  1  0.36160140  0.88304215  0.67182793  1
  H+  H146  1  0.12990488  0.52474085  0.31144641  1
  H+  H147  1  0.85496792  0.71016398  0.67264310  1
  H+  H148  1  0.09955009  0.62951579  0.00254059  1
  H+  H149  1  0.71870092  0.10119840  0.49982275  1
  H+  H150  1  0.40681899  0.54147714  0.18785846  1
  H+  H151  1  0.07976420  0.18752780  0.31519622  1
  H+  H152  1  0.01211818  0.62649811  0.83085468  1
  H+  H153  1  0.12985879  0.11403714  0.48548715  1
  H+  H154  1  0.88454982  0.76338049  0.32719402  1
  H+  H155  1  0.63732763  0.61443845  0.32631556  1
  H+  H156  1  0.62862681  0.23065822  1.00537955  1
  H+  H157  1  0.36615164  0.73559483  0.82737987  1
  H+  H158  1  0.28742901  0.41195333  0.83231400  1
  H+  H159  1  0.27456971  0.37881075  0.34672665  1
  H+  H160  1  0.68371642  0.58073512  0.55857819  1
  H+  H161  1  0.23121111  0.86789388  0.65223680  1
  H+  H162  1  0.51788636  0.13135732  0.48761133  1
  H+  H163  1  0.35844520  0.72099893  0.49686248  1
  H+  H164  1  1.02729575  0.13879348  0.47248643  1
  H+  H165  1  0.71980777  0.90350003  0.30310760  1
  H+  H166  1  0.46994358  0.35981855  0.83350208  1
  H+  H167  1  0.11157340  0.36948675  0.67595060  1
  H+  H168  1  0.63080081  0.10306341  0.49859482  1
  H+  H169  1  0.29501309  0.16914143  0.17115762  1
  H+  H170  1  0.26428130  0.13008774  0.83619579  1
  H+  H171  1  0.51888906  0.87981980  0.49611134  1
  H+  H172  1  0.37931419  0.23852942  0.66546865  1
  H+  H173  1  0.33451189  0.67806615  0.07115179  1
  H+  H174  1  0.14851545  0.09102946  0.90588577  1
  H+  H175  1  0.85149441  0.72799860  0.15644497  1
  H+  H176  1  0.51740947  0.37210301  0.67475266  1
  H+  H177  1  0.86184882  0.21751498  0.49314853  1
  H+  H178  1  0.08599285  0.24149831  0.18698558  1
  H+  H179  1  0.62124100  0.14270340  0.15991230  1
  H+  H180  1  0.60766729  0.21962343  0.49433485  1
  H+  H181  1  0.77833789  0.64053774  0.34154936  1
  H+  H182  1  0.88484617  0.51785501  0.49921378  1
  H+  H183  1  0.61395625  0.63368816  0.67316119  1
  H+  H184  1  0.88981808  0.62568488  0.32711833  1
  H+  H185  1  0.12466207  0.77253977  0.32905869  1
  H+  H186  1  0.10908285  0.97569291  0.49018924  1
  H+  H187  1  0.12361449  0.88566551  0.82810263  1
  H+  H188  1  0.39696544  0.53762338  0.83561293  1
  H+  H189  1  0.08322385  0.66330658  0.39967660  1
  H+  H190  1  0.60373415  0.96676347  0.34268663  1
  H+  H191  1  0.86067061  0.22482228  0.15943251  1
  H+  H192  1  0.97257614  0.35490403  0.51758621  1
  H+  H193  1  0.13565208  0.98504648  0.19052276  1
  H+  H194  1  0.11115861  0.63396735  0.49481554  1
  H+  H195  1  0.64129062  0.36468459  0.98933394  1
  H+  H196  1  0.13324905  0.61384800  0.32501181  1
  H+  H197  1  0.13694784  0.86346393  0.49907134  1
  H+  H198  1  0.87942181  0.77562328  0.52046004  1
  H+  H199  1  0.90065442  0.87124702  0.98962023  1
  H+  H200  1  0.13563464  0.77338066  0.50053256  1
  H+  H201  1  0.86114227  0.19854843  0.33530271  1
  H+  H202  1  0.74959945  0.60930542  0.50234463  1
  H+  H203  1  0.29578169  0.90538318  0.17265958  1
  H+  H204  1  0.38760836  0.02383467  0.83962836  1
  H+  H205  1  0.87796367  0.52223858  -0.00448359  1
  H+  H206  1  0.88719210  0.61013035  0.49320630  1
  H+  H207  1  0.52323528  0.13774825  0.83041036  1
  H+  H208  1  0.77672287  0.95053303  0.10945038  1
  H+  H209  1  0.07413423  0.16030247  1.09159040  1
  H+  H210  1  0.62407597  0.39112184  0.15285220  1
  H+  H211  1  0.36804984  -0.02550523  0.67425233  1
  H+  H212  1  0.06386854  0.40186622  0.11326634  1
  H+  H213  1  0.22868225  0.12054117  0.64848907  1
  H+  H214  1  0.63994171  0.91211460  1.00974081  1
  H+  H215  1  0.20517792  0.34175645  0.13408741  1
  H+  H216  1  0.04293811  0.44386328  0.38245780  1
  H+  H217  1  0.22328425  0.62625715  0.65945015  1
  H+  H218  1  0.47221443  0.61583879  0.67056222  1
  H+  H219  1  0.35150919  0.43015084  -0.00130048  1
  H+  H220  1  0.23526643  0.37871288  0.68001302  1
  H+  H221  1  0.11176203  0.88536332  0.67092696  1
  H+  H222  1  0.53330248  0.14609494  0.15466555  1
  H+  H223  1  0.44939645  0.46274314  -0.00953722  1
  H+  H224  1  0.61561193  0.72292190  0.68035384  1
  H+  H225  1  0.22895507  0.35853773  -0.00595277  1
  H+  H226  1  0.31628577  0.40620963  0.16277067  1
  H+  H227  1  0.74569183  0.88358564  0.99658904  1
  H+  H228  1  0.36315185  0.11749589  0.68332865  1
  H+  H229  1  0.86010298  0.74792749  0.84468190  1
  H+  H230  1  0.85645267  0.38616658  0.82115460  1
  H+  H231  1  0.89739553  0.86146744  0.17668830  1
  H+  H232  1  0.01123873  0.83273288  0.15706803  1
  H+  H233  1  0.49140512  0.37200918  0.33130792  1
  H+  H234  1  0.65392257  0.79838664  1.00142165  1
  H+  H235  1  0.36842040  0.89069319  0.82535062  1
  H+  H236  1  0.52701190  0.38353116  0.99573559  1
  H+  H237  1  0.52155366  0.65302936  0.50024191  1
  H+  H238  1  0.17329745  0.10027265  0.54580717  1
  H+  H239  1  0.20650714  0.38210704  0.12301959  1
  H+  H240  1  0.98237151  0.85586745  0.67372377  1
  H+  H241  1  0.83958267  0.29902983  0.31665007  1
  H+  H242  1  0.16288177  0.58595905  0.56941399  1
  H+  H243  1  0.36160212  0.77362429  0.31635858  1
  H+  H244  1  0.53844464  0.66893299  0.99928669  1
  H+  H245  1  0.77215074  0.38827359  0.15814897  1
  H+  H246  1  0.52831349  0.64288235  0.34273537  1
  H+  H247  1  -0.02146708  0.11381822  -0.01840159  1
  H+  H248  1  0.23612563  0.37131591  0.52078892  1
  H+  H249  1  0.14910755  0.37269200  0.52511419  1
  H+  H250  1  0.61181107  0.88806809  0.15713513  1
  H+  H251  1  0.11797581  0.97057858  0.83144966  1
  H+  H252  1  0.27328418  0.87542439  0.48151186  1
  H+  H253  1  0.11363328  0.47790954  0.50721704  1
  H+  H254  1  0.17165675  0.83254820  0.24202909  1
  H+  H255  1  0.38450536  0.11072327  0.84388866  1
  H+  H256  1  0.85299551  -0.01267346  0.15645568  1
  H+  H257  1  0.61769293  0.97930790  0.81867976  1
  H+  H258  1  0.37733853  0.31829184  0.98562610  1
  H+  H259  1  0.85989458  0.92314749  0.64279886  1
  H+  H260  1  0.87731275  0.41465022  0.34170354  1
  H+  H261  1  0.12606476  0.35642516  0.35141440  1
  H+  H262  1  0.39713453  0.40172040  0.18621434  1
  H+  H263  1  -0.02953154  0.60276499  0.17091851  1
  H+  H264  1  0.60879819  0.97288302  0.49309495  1
  H+  H265  1  0.24417470  0.65446348  0.17230138  1
  H+  H266  1  0.84898216  0.97268663  0.49405076  1
  H+  H267  1  0.12389963  0.09915319  0.83898136  1
  H+  H268  1  0.72988308  0.11276238  0.17413113  1
  H+  H269  1  0.38417366  0.85415260  0.50027198  1
  H+  H270  1  0.40063087  0.87546039  0.16600089  1
  H+  H271  1  0.14501317  0.12874633  0.64617461  1
  H+  H272  1  0.42326023  0.07847148  0.93912195  1
  H+  H273  1  0.11525193  0.65123220  0.15269349  1
  H+  H274  1  0.58648003  0.17362149  0.73724962  1
  H+  H275  1  0.88191121  0.98682944  -0.00503750  1
  H+  H276  1  0.85962222  0.86406297  0.34411714  1
  H+  H277  1  0.61921746  0.72811597  0.15696228  1
  H+  H278  1  0.72316955  0.36623132  0.32688805  1
  H+  H279  1  0.10840744  0.22692430  0.67983123  1
  H+  H280  1  0.63592494  0.52486646  0.32542124  1
  H+  H281  1  0.12776773  0.76437892  0.98959013  1
  H+  H282  1  0.36381653  0.86986745  1.01144851  1
  H+  H283  1  0.71909692  0.86095415  0.17407576  1
  H+  H284  1  0.48332027  0.87113075  0.83150739  1
  H+  H285  1  0.14237531  0.00230359  0.15864711  1
  H+  H286  1  1.01321930  0.14170015  0.67978503  1
  H+  H287  1  0.37290887  0.20477701  0.00860931  1
  H+  H288  1  0.37915286  0.74103776  0.15587252  1
  H+  H289  1  0.83913815  0.91778313  0.75586203  1
  H+  H290  1  0.57950852  0.41255605  0.73146291  1
  H+  H291  1  0.66399277  0.07606551  0.26944115  1
  H+  H292  1  0.06702236  0.40732146  0.73310758  1
  H+  H293  1  0.43580275  0.34002801  0.26324787  1
  H+  H294  1  0.58427957  0.41523262  0.40132117  1
  H+  H295  1  0.83506855  0.15601674  0.43361377  1
  H+  H296  1  0.96108250  0.35719464  0.17452028  1
  H+  H297  1  0.74628356  0.12549330  -0.00488027  1
  H+  H298  1  0.66501091  0.33464519  0.23114269  1
  H+  H299  1  0.42920995  0.61052679  0.88836231  1
  H+  H300  1  0.17826088  0.34140314  0.61783644  1
  H+  H301  1  0.83307541  0.41726044  0.40390156  1
  H+  H302  1  0.23467430  0.62277686  0.85347320  1
  H+  H303  1  0.66644862  0.32778001  0.56448081  1
  H+  H304  1  0.42733843  0.59617515  0.27270153  1
  H+  H305  1  0.83864298  0.16499390  0.10057654  1
  H+  H306  1  0.34612921  0.17522704  0.10756237  1
  H+  H307  1  0.19221525  0.12988007  0.24461237  1
  H+  H308  1  0.48818061  0.13655152  0.32537010  1
  H+  H309  1  0.97162442  0.35873659  0.98875542  1
  H+  H310  1  0.47349212  0.86479022  0.65788315  1
  H+  H311  1  0.91168339  0.57543465  0.58995766  1
  H+  H312  1  0.59855421  0.65669496  0.77498399  1
  H+  H313  1  0.81985333  0.90313346  0.43908353  1
  H+  H314  1  0.85942281  0.97096768  0.81766647  1
  H+  H315  1  0.20762203  0.11098287  0.34610192  1
  H+  H316  1  0.89081744  0.11470763  0.63644224  1
  H+  H317  1  0.32003339  0.33826054  0.06626020  1
  H+  H318  1  0.90791661  0.06721227  0.23437187  1
  H+  H319  1  0.16774772  0.82988137  0.93245575  1
  H+  H320  1  0.32497298  0.14585624  0.73998101  1
  H+  H321  1  0.85015364  0.62064658  0.66277149  1
  H+  H322  1  0.34900928  0.32250920  0.07818151  1
  H+  H323  1  0.64991286  0.03092132  0.99974455  1
  H+  H324  1  0.85557898  0.63680893  0.84189834  1
  H+  H325  1  0.36930152  0.11783571  0.01944510  1
  H+  H326  1  0.07335856  0.61718654  0.78302644  1
  H+  H327  1  0.57732377  0.91760018  0.72846524  1
  H+  H328  1  0.11384757  0.86512671  0.00134652  1
  H+  H329  1  0.91038514  0.81888556  0.23733800  1
  H+  H330  1  0.41257148  0.83005056  0.56401131  1
  H+  H331  1  0.89546755  0.31408523  0.25613907  1
  H+  H332  1  0.32676364  0.65948683  0.43847506  1
  H+  H333  1  0.63733978  0.35966992  0.65909179  1
  H+  H334  1  0.40196035  0.36586731  0.51589538  1
  H+  H335  1  0.91649845  0.57821388  0.23264382  1
  H+  H336  1  0.44997047  0.47411696  0.45984658  1
  H+  H337  1  0.12205885  0.29870411  0.24657823  1
  H+  H338  1  0.06807177  0.69619804  0.72142453  1
  H+  H339  1  0.81461444  0.66819495  0.09096111  1
  H+  H340  1  0.08382399  0.23850389  0.96042657  1
  H+  H341  1  0.32795030  0.67426920  0.73483509  1
  H+  H342  1  0.86421880  0.47519339  0.16098983  1
  H+  H343  1  0.07163244  0.66444527  0.05959189  1
  H+  H344  1  0.60216508  0.17238798  0.06709549  1
  H+  H345  1  0.41693215  0.31873897  0.92122115  1
  H+  H346  1  0.83469704  0.41629783  0.06471531  1
  H+  H347  1  0.61459412  0.88763508  0.81652099  1
  H+  H348  1  0.43645993  0.08989822  0.60899393  1
  H+  H349  1  0.93153998  0.08304319  0.55478873  1
  H+  H350  1  0.67051205  0.33360703  0.93105495  1
  H+  H351  1  0.50805186  0.88796605  0.98923894  1
  H+  H352  1  0.06886814  0.86951826  0.06905396  1
  H+  H353  1  0.07304455  0.15314331  0.76090106  1
  H+  H354  1  0.90639010  0.32294718  0.88693165  1
  H+  H355  1  0.58790320  0.42493966  0.05406804  1
  H+  H356  1  0.41801398  0.31472357  0.56932946  1
  H+  H357  1  0.34628010  0.41722635  0.39785882  1
  H+  H358  1  0.08837321  0.40785485  0.45409589  1
  H+  H359  1  0.66282736  0.83360069  0.60458068  1
  H+  H360  1  0.83098126  0.42041379  0.76261361  1
  H+  H361  1  0.61108397  0.38395774  0.34014918  1
  H+  H362  1  0.90451848  0.31528037  0.57125003  1
  H+  H363  1  0.43718748  0.11642597  0.26451500  1
  H+  H364  1  0.13815054  0.33459745  0.87717733  1
  H+  H365  1  0.66832629  0.58627356  0.23147247  1
  H+  H366  1  0.06992176  0.91453443  0.39993271  1
  H+  H367  1  0.92048829  0.82750003  0.58095404  1
  H+  H368  1  0.59272048  0.17012885  0.39916176  1
  H+  H369  1  0.41538563  0.58918058  0.57642331  1
  H+  H370  1  0.59930519  0.93825976  0.06684294  1
  H+  H371  1  0.58077651  0.67872532  0.43963329  1
  H+  H372  1  0.85896809  0.37611916  0.49518496  1
  H+  H373  1  0.33268492  0.91578877  0.76661724  1
  H+  H374  1  0.43231143  0.84800042  0.89404876  1
  H+  H375  1  1.00902679  0.35929995  0.66985088  1
  H+  H376  1  0.85571699  0.93050802  0.05641227  1
  H+  H377  1  0.07045668  0.14854830  0.40755943  1
  H+  H378  1  0.35780002  0.05132185  0.52482431  1
  H+  H379  1  0.57915888  0.90735815  0.40234828  1
  H+  H380  1  0.18119057  0.62372819  0.22985499  1
  H+  H381  1  0.16403523  0.57832516  0.94362057  1
  H+  H382  1  0.63872707  0.27380597  0.32735232  1
  H+  H383  1  0.97192051  0.85835312  0.32524322  1
  O2-  O384  1  0.07511729  0.15760374  0.13696773  1
  O2-  O385  1  0.08376488  0.16422372  0.45261010  1
  O2-  O386  1  0.06614414  0.14149728  0.80713795  1
  O2-  O387  1  0.05754538  0.40184232  0.15762784  1
  O2-  O388  1  0.08299336  0.41325792  0.49777866  1
  O2-  O389  1  0.06116547  0.42603689  0.79371614  1
  O2-  O390  1  0.07074156  0.66342409  0.13374185  1
  O2-  O391  1  0.08271326  0.66507539  0.47797496  1
  O2-  O392  1  0.07320452  0.65411215  0.81544969  1
  O2-  O393  1  0.05512195  0.83084716  0.13096308  1
  O2-  O394  1  0.07926443  0.91348077  0.47880430  1
  O2-  O395  1  0.09321877  0.91413987  0.81138565  1
  O2-  O396  1  0.35287342  0.18550286  0.15281654  1
  O2-  O397  1  0.28609943  0.17594432  0.42331448  1
  O2-  O398  1  0.32323691  0.15727036  0.81823245  1
  O2-  O399  1  0.36853344  0.43707295  0.18686556  1
  O2-  O400  1  0.39116504  0.44871349  0.47481447  1
  O2-  O401  1  0.34578196  0.43328846  0.81580878  1
  O2-  O402  1  0.34559606  0.67857494  0.14281434  1
  O2-  O403  1  0.32690586  0.65895247  0.48422146  1
  O2-  O404  1  0.33169485  0.67441210  0.81385758  1
  O2-  O405  1  0.34985713  0.93374725  0.14867938  1
  O2-  O406  1  0.33168081  0.89374114  0.46559615  1
  O2-  O407  1  0.33386452  0.91777804  0.81220354  1
  O2-  O408  1  0.59601100  0.17530863  0.14054438  1
  O2-  O409  1  0.57941741  0.16047641  0.47672351  1
  O2-  O410  1  0.58375473  0.17157913  0.81487062  1
  O2-  O411  1  0.59351430  0.42092126  0.13618988  1
  O2-  O412  1  0.59431446  0.41665812  0.47623534  1
  O2-  O413  1  0.58006108  0.41617985  0.81582849  1
  O2-  O414  1  0.59154870  0.66738997  0.14162340  1
  O2-  O415  1  0.58122499  0.68761716  0.48419891  1
  O2-  O416  1  0.59485355  0.65721586  0.82042845  1
  O2-  O417  1  0.58781193  0.92376833  0.14175516  1
  O2-  O418  1  0.57995678  0.90915985  0.48080793  1
  O2-  O419  1  0.58286198  0.91901101  0.80447339  1
  O2-  O420  1  0.83601414  0.16344610  0.14561387  1
  O2-  O421  1  0.83435422  0.15673944  0.47913150  1
  O2-  O422  1  0.83462056  0.16651556  0.79950024  1
  O2-  O423  1  0.83219035  0.41489400  0.14243212  1
  O2-  O424  1  0.83022404  0.40625636  0.47740591  1
  O2-  O425  1  0.82900219  0.42022183  0.80826746  1
  O2-  O426  1  0.81465746  0.66860047  0.13734376  1
  O2-  O427  1  0.85675519  0.66949109  0.46580073  1
  O2-  O428  1  0.82143264  0.66655083  0.83580801  1
  O2-  O429  1  0.81202173  0.93276509  0.13200341  1
  O2-  O430  1  0.81042183  0.91089018  0.48291708  1
  O2-  O431  1  0.83642546  0.91134710  0.80093551  1
  O2-  O432  1  0.21339924  0.16570185  0.20717242  1
  O2-  O433  1  0.16320047  0.08629235  0.50135345  1
  O2-  O434  1  0.15835111  0.08026622  0.86344097  1
  O2-  O435  1  0.07872391  0.28114225  0.21471993  1
  O2-  O436  1  0.18153881  0.34620601  0.54211307  1
  O2-  O437  1  0.17092985  0.37254525  0.84118662  1
  O2-  O438  1  0.19233389  0.65275563  0.18969733  1
  O2-  O439  1  0.16038937  0.57734043  0.52329506  1
  O2-  O440  1  0.17718405  0.59150401  0.87352112  1
  O2-  O441  1  0.18365647  0.82551032  0.19685604  1
  O2-  O442  1  0.16923993  0.83475012  0.51354686  1
  O2-  O443  1  0.17424467  0.82716716  0.85774413  1
  O2-  O444  1  0.43995959  0.10360480  0.18088323  1
  O2-  O445  1  0.40077272  0.07780855  0.49296339  1
  O2-  O446  1  0.41909571  0.08369752  0.85592011  1
  O2-  O447  1  0.44180313  0.33872051  0.19603443  1
  O2-  O448  1  0.42667183  0.32874280  0.52503080  1
  O2-  O449  1  0.40940748  0.32988461  0.84848009  1
  O2-  O450  1  0.43227364  0.60476894  0.19515894  1
  O2-  O451  1  0.41753472  0.58909141  0.53062904  1
  O2-  O452  1  0.42843589  0.60150354  0.84378725  1
  O2-  O453  1  0.42838783  0.84129592  0.17813110  1
  O2-  O454  1  0.41591009  0.82622126  0.51882489  1
  O2-  O455  1  0.42357461  0.84237477  0.84919020  1
  O2-  O456  1  0.66977421  0.08539962  0.18972139  1
  O2-  O457  1  0.65748718  0.06873923  0.51142513  1
  O2-  O458  1  0.67483182  0.09004683  0.84257075  1
  O2-  O459  1  0.66757710  0.33678760  0.18572577  1
  O2-  O460  1  0.66691763  0.32537163  0.51893383  1
  O2-  O461  1  0.66563061  0.33601326  0.85393324  1
  O2-  O462  1  0.66998368  0.58704394  0.18535658  1
  O2-  O463  1  0.68873806  0.57318573  0.51429270  1
  O2-  O464  1  0.65967262  0.57625089  0.88462131  1
  O2-  O465  1  0.65771711  0.82648170  0.18627617  1
  O2-  O466  1  0.66336423  0.83969308  0.51970264  1
  O2-  O467  1  0.66371586  0.83699321  0.83528231  1
  O2-  O468  1  0.91100958  0.07326164  0.18836487  1
  O2-  O469  1  0.91709121  0.07648108  0.51166685  1
  O2-  O470  1  0.90027674  0.07283928  0.84534086  1
  O2-  O471  1  0.89773933  0.32310549  0.18755838  1
  O2-  O472  1  0.90976535  0.32127001  0.52628335  1
  O2-  O473  1  0.90457717  0.32647357  0.84209620  1
  O2-  O474  1  0.91166420  0.56946257  0.18787739  1
  O2-  O475  1  0.91609568  0.57831900  0.51322023  1
  O2-  O476  1  0.90958354  0.58272731  0.85548728  1
  O2-  O477  1  0.90963372  0.81701365  0.19017560  1
  O2-  O478  1  0.92344419  0.83176241  0.53576421  1
  O2-  O479  1  0.89725108  0.82058188  0.85267307  1
  O2-  O480  1  0.15953284  0.08007661  0.31792857  1
  O2-  O481  1  0.18776210  0.12427583  0.62078213  1
  O2-  O482  1  0.12401576  0.12344446  0.98228767  1
  O2-  O483  1  0.15751898  0.32484753  0.34746676  1
  O2-  O484  1  0.17188680  0.33932270  0.66334332  1
  O2-  O485  1  0.07761747  0.28021616  0.93234818  1
  O2-  O486  1  0.16546069  0.58700572  0.30590120  1
  O2-  O487  1  0.16469177  0.59794054  0.64142120  1
  O2-  O488  1  0.15418889  0.57239782  0.98973605  1
  O2-  O489  1  0.14524723  0.82841087  0.30864124  1
  O2-  O490  1  0.17135771  0.83996701  0.63603064  1
  O2-  O491  1  0.16117461  0.82731983  0.97829340  1
  O2-  O492  1  0.42962903  0.11402470  0.30914947  1
  O2-  O493  1  0.43116828  0.08309307  0.65302123  1
  O2-  O494  1  0.42549045  0.07446548  0.98402176  1
  O2-  O495  1  0.43055655  0.34194202  0.31076845  1
  O2-  O496  1  0.40567523  0.29921040  0.64779238  1
  O2-  O497  1  0.42448900  0.31467416  0.96677537  1
  O2-  O498  1  0.42465965  0.59002974  0.31822561  1
  O2-  O499  1  0.41309444  0.59166715  0.65403649  1
  O2-  O500  1  0.43773865  0.63315484  0.96828014  1
  O2-  O501  1  0.38935958  0.82449453  0.29018638  1
  O2-  O502  1  0.41241803  0.83479739  0.64317709  1
  O2-  O503  1  0.44873326  0.85304441  0.97218297  1
  O2-  O504  1  0.66159849  0.07327511  0.31480528  1
  O2-  O505  1  0.67643478  0.09578715  0.67046906  1
  O2-  O506  1  0.68156095  0.09522999  0.98219475  1
  O2-  O507  1  0.66339557  0.33476802  0.31156106  1
  O2-  O508  1  0.66927945  0.33156367  0.64316344  1
  O2-  O509  1  0.67104895  0.33308695  0.97685737  1
  O2-  O510  1  0.66518507  0.58369126  0.30782933  1
  O2-  O511  1  0.66096031  0.58058367  0.63935770  1
  O2-  O512  1  0.65909433  0.58659915  0.95156529  1
  O2-  O513  1  0.66624504  0.84910887  0.30832426  1
  O2-  O514  1  0.66336928  0.83488368  0.64951482  1
  O2-  O515  1  0.68297650  0.86104896  0.99408365  1
  O2-  O516  1  0.90102609  0.05728938  0.30892140  1
  O2-  O517  1  0.90701319  0.09765062  0.67391399  1
  O2-  O518  1  0.91495265  0.08343356  0.96955668  1
  O2-  O519  1  0.89527834  0.30824345  0.30329449  1
  O2-  O520  1  0.90633458  0.31534318  0.65538536  1
  O2-  O521  1  0.91200863  0.32859216  0.97369070  1
  O2-  O522  1  0.91944490  0.59311257  0.31305877  1
  O2-  O523  1  0.91089546  0.57304158  0.63572415  1
  O2-  O524  1  0.90327840  0.58276782  0.98004119  1
  O2-  O525  1  0.91128034  0.82398129  0.30845094  1
  O2-  O526  1  0.91802513  0.82346047  0.66039821  1
  O2-  O527  1  0.92566780  0.83511875  0.97383261  1
  O2-  O528  1  0.07630897  0.16465688  0.00799897  1
  O2-  O529  1  0.05505053  0.13378305  0.33766710  1
  O2-  O530  1  0.07589798  0.16485285  0.69065056  1
  O2-  O531  1  0.08243666  0.41011066  0.02394143  1
  O2-  O532  1  0.05502123  0.41106024  0.35265715  1
  O2-  O533  1  0.07009773  0.39401836  0.68558697  1
  O2-  O534  1  0.07146806  0.66371358  0.01349146  1
  O2-  O535  1  0.08338999  0.66246682  0.35413326  1
  O2-  O536  1  0.07468814  0.68487001  0.67890835  1
  O2-  O537  1  0.07812440  0.89054442  0.02381333  1
  O2-  O538  1  0.06737187  0.91429868  0.35448256  1
  O2-  O539  1  0.07624256  0.90707377  0.68962852  1
  O2-  O540  1  0.34254008  0.15233939  0.03314752  1
  O2-  O541  1  0.37201920  0.19794894  0.44411632  1
  O2-  O542  1  0.32927309  0.14541629  0.69457371  1
  O2-  O543  1  0.40237834  0.47001894  -0.02442229  1
  O2-  O544  1  0.33792705  0.40977143  0.35313536  1
  O2-  O545  1  0.32518106  0.43679425  0.70130404  1
  O2-  O546  1  0.32494652  0.68512123  0.02609903  1
  O2-  O547  1  0.32512474  0.66195895  0.36086910  1
  O2-  O548  1  0.32900265  0.67479761  0.68933008  1
  O2-  O549  1  0.31193005  0.84650417  0.03722227  1
  O2-  O550  1  0.33486765  0.92985343  0.29357675  1
  O2-  O551  1  0.33162876  0.91394938  0.68768609  1
  O2-  O552  1  0.60592865  0.17058490  0.02088546  1
  O2-  O553  1  0.59918445  0.17663674  0.35399556  1
  O2-  O554  1  0.58811234  0.17089176  0.69178044  1
  O2-  O555  1  0.58689101  0.42548267  0.00864855  1
  O2-  O556  1  0.58086869  0.41491894  0.35522142  1
  O2-  O557  1  0.57851227  0.40774581  0.68646446  1
  O2-  O558  1  0.59598145  0.68460873  0.01647299  1
  O2-  O559  1  0.58962008  0.67241126  0.35723029  1
  O2-  O560  1  0.58633321  0.66273661  0.69511712  1
  O2-  O561  1  0.60783084  0.94469553  0.02120633  1
  O2-  O562  1  0.58044043  0.90659134  0.35695975  1
  O2-  O563  1  0.57707755  0.91926854  0.68271782  1
  O2-  O564  1  0.83728107  0.16612139  0.01577825  1
  O2-  O565  1  0.82956495  0.14195014  0.35529599  1
  O2-  O566  1  0.83468044  0.16768467  0.73175949  1
  O2-  O567  1  0.83696120  0.41752981  0.01893447  1
  O2-  O568  1  0.83280580  0.42488948  0.35808006  1
  O2-  O569  1  0.83602748  0.41372888  0.68439134  1
  O2-  O570  1  0.82195342  0.66636900  0.01649976  1
  O2-  O571  1  0.83906253  0.67170954  0.35414229  1
  O2-  O572  1  0.81830272  0.64770626  0.67988445  1
  O2-  O573  1  0.85712842  0.92627668  0.01158899  1
  O2-  O574  1  0.82670088  0.89073366  0.36289994  1
  O2-  O575  1  0.83436812  0.93794542  0.67647308  1
