# generated using pymatgen
data_H2O
_symmetry_space_group_name_H-M   'P 1'
_cell_length_a   17.99542401
_cell_length_b   17.99286335
_cell_length_c   22.00460565
_cell_angle_alpha   90.00001420
_cell_angle_beta   90.00785245
_cell_angle_gamma   119.98909856
_symmetry_Int_Tables_number   1
_chemical_formula_structural   H2O
_chemical_formula_sum   'H384 O192'
_cell_volume   6170.98198554
_cell_formula_units_Z   192
loop_
 _symmetry_equiv_pos_site_id
 _symmetry_equiv_pos_as_xyz
  1  'x, y, z'
loop_
 _atom_type_symbol
 _atom_type_oxidation_number
  H+  1.0
  O2-  -2.0
loop_
 _atom_site_type_symbol
 _atom_site_label
 _atom_site_symmetry_multiplicity
 _atom_site_fract_x
 _atom_site_fract_y
 _atom_site_fract_z
 _atom_site_occupancy
  H+  H0  1  0.88997528  0.86608738  0.82845269  1
  H+  H1  1  0.83961291  0.17291480  0.06007533  1
  H+  H2  1  0.60383977  0.72276815  0.35937541  1
  H+  H3  1  0.27779707  0.37992882  0.50279094  1
  H+  H4  1  0.80976037  0.19007627  0.75131692  1
  H+  H5  1  0.85295043  0.10351511  0.63871609  1
  H+  H6  1  0.22358578  0.59987012  0.65814504  1
  H+  H7  1  0.83787440  0.18923568  0.38189392  1
  H+  H8  1  0.08996997  0.40080327  0.76584490  1
  H+  H9  1  0.88747742  0.98227767  0.82734644  1
  H+  H10  1  0.86320602  0.38587552  0.15350753  1
  H+  H11  1  0.28111393  0.89307309  0.68229193  1
  H+  H12  1  0.37038404  0.90197726  0.00798260  1
  H+  H13  1  0.09563026  0.73309719  0.65609645  1
  H+  H14  1  0.35852749  0.72404860  0.66869926  1
  H+  H15  1  0.62099129  0.86131851  0.33940663  1
  H+  H16  1  0.47138774  0.10450716  0.50811948  1
  H+  H17  1  0.11985706  0.64457983  1.01835007  1
  H+  H18  1  0.86620329  0.23918033  0.15514924  1
  H+  H19  1  0.38892966  0.50509151  0.51011414  1
  H+  H20  1  0.64517181  0.61313683  0.67060824  1
  H+  H21  1  0.61554856  0.23734561  0.34836325  1
  H+  H22  1  0.36067897  0.13826442  0.82884088  1
  H+  H23  1  0.77095986  0.89099355  1.01795728  1
  H+  H24  1  0.12973270  0.29980247  0.67919177  1
  H+  H25  1  0.68193127  0.59193325  0.26812224  1
  H+  H26  1  0.38230270  0.59034295  0.50718451  1
  H+  H27  1  0.02437730  0.88374780  0.16238782  1
  H+  H28  1  0.73482536  0.37579769  0.49713299  1
  H+  H29  1  0.87469126  0.73190935  0.66883418  1
  H+  H30  1  0.38542482  0.87193615  0.49953336  1
  H+  H31  1  0.88335713  0.51575817  0.17484265  1
  H+  H32  1  0.26338623  0.13054729  0.16356334  1
  H+  H33  1  1.02161905  0.63077905  0.16911307  1
  H+  H34  1  0.98194775  0.87148871  0.66189488  1
  H+  H35  1  0.60451693  0.59869070  0.81012902  1
  H+  H36  1  0.39390013  0.03069386  0.32521671  1
  H+  H37  1  0.86092849  0.71886875  0.01798163  1
  H+  H38  1  0.85235758  0.98210302  0.29642524  1
  H+  H39  1  0.32330687  0.46873150  1.02539335  1
  H+  H40  1  0.78691482  0.37068552  0.66773236  1
  H+  H41  1  0.36876695  0.45574100  0.35385016  1
  H+  H42  1  0.87787264  0.73958533  0.34243657  1
  H+  H43  1  0.70933042  0.59996880  0.17162183  1
  H+  H44  1  0.89463237  0.77476920  0.50297920  1
  H+  H45  1  0.14493625  0.78201343  1.00445710  1
  H+  H46  1  0.26214408  0.62746441  0.50875437  1
  H+  H47  1  0.27716856  0.89780470  0.33418562  1
  H+  H48  1  0.37872884  0.35661003  0.33991509  1
  H+  H49  1  0.88721863  0.76758282  0.83087829  1
  H+  H50  1  0.62041567  0.23791717  0.02233741  1
  H+  H51  1  0.62712155  0.84485383  0.66460210  1
  H+  H52  1  0.25971011  0.63319085  0.98963666  1
  H+  H53  1  0.23834039  0.61688565  0.32812872  1
  H+  H54  1  1.01719637  0.38418579  1.00446884  1
  H+  H55  1  0.63515087  0.93184018  0.82603024  1
  H+  H56  1  0.13960701  0.36497246  0.16870473  1
  H+  H57  1  0.89310102  0.11202850  0.99821600  1
  H+  H58  1  0.78915223  0.64960700  0.33565764  1
  H+  H59  1  0.36610053  0.14024400  0.49256839  1
  H+  H60  1  0.12939441  0.24175077  0.16084396  1
  H+  H61  1  0.36627499  0.37533925  0.50572115  1
  H+  H62  1  1.03827699  0.15517499  0.16140828  1
  H+  H63  1  0.15668647  0.82971713  0.90742738  1
  H+  H64  1  0.41684800  0.57632002  0.60153331  1
  H+  H65  1  0.81684491  0.90553641  0.19691328  1
  H+  H66  1  0.78077118  0.41380825  0.83725875  1
  H+  H67  1  0.61835593  0.49979433  0.51033244  1
  H+  H68  1  0.10486518  0.38070397  0.00856610  1
  H+  H69  1  0.23234732  0.62163598  0.16892804  1
  H+  H70  1  0.03521423  0.39592658  0.49450401  1
  H+  H71  1  0.11513251  0.88980198  0.01098308  1
  H+  H72  1  -0.13045979  0.49273272  0.48145239  1
  H+  H73  1  0.61550158  0.00822736  0.82247175  1
  H+  H74  1  0.47784245  0.61161345  0.66040059  1
  H+  H75  1  0.14186166  0.61726769  0.17734247  1
  H+  H76  1  0.09208849  0.85404795  0.67840291  1
  H+  H77  1  0.12429550  0.64481827  0.33385132  1
  H+  H78  1  0.58350399  0.61153364  0.17261697  1
  H+  H79  1  0.38431920  0.90580940  0.83225719  1
  H+  H80  1  0.35243874  0.22154368  0.82854856  1
  H+  H81  1  0.36321801  0.22893495  0.67632111  1
  H+  H82  1  0.37942393  0.39859703  -0.00606242  1
  H+  H83  1  0.69520462  0.85167315  0.31019187  1
  H+  H84  1  0.77655680  0.62382398  0.01834582  1
  H+  H85  1  0.10904953  0.62076241  0.67596718  1
  H+  H86  1  0.52562587  0.90117237  0.15116008  1
  H+  H87  1  0.61608625  0.41544078  0.35734203  1
  H+  H88  1  0.13283052  0.01718896  1.00357907  1
  H+  H89  1  0.11019397  0.13376030  0.33985278  1
  H+  H90  1  0.72379263  0.85849009  0.65717527  1
  H+  H91  1  0.17535387  0.83782032  0.26258738  1
  H+  H92  1  0.63292105  0.70700272  0.04745898  1
  H+  H93  1  0.51749582  0.87777690  0.50015201  1
  H+  H94  1  0.89361728  0.13703538  0.16614294  1
  H+  H95  1  0.89225588  0.50968333  0.66590227  1
  H+  H96  1  0.02570472  0.38711259  0.82199205  1
  H+  H97  1  0.03175567  0.88111669  0.48496673  1
  H+  H98  1  0.26280818  0.62038365  0.81631204  1
  H+  H99  1  0.41726058  0.36591479  0.90223758  1
  H+  H100  1  0.09043614  0.16499736  0.07291821  1
  H+  H101  1  0.62403973  0.76555379  0.50917468  1
  H+  H102  1  0.13783789  0.86220291  0.17012253  1
  H+  H103  1  0.19573405  0.14023271  0.56475807  1
  H+  H104  1  0.97807730  0.14460733  0.48752013  1
  H+  H105  1  0.63976446  0.31953996  0.47459791  1
  H+  H106  1  0.51264456  0.15180017  0.82997971  1
  H+  H107  1  0.37227471  0.35435605  0.66260423  1
  H+  H108  1  0.60176895  0.37420971  0.15258986  1
  H+  H109  1  0.71225879  0.14420092  0.83660895  1
  H+  H110  1  0.97976926  0.37244654  0.16822350  1
  H+  H111  1  0.11931105  0.50568093  0.98798355  1
  H+  H112  1  0.91288250  0.38123754  0.54747587  1
  H+  H113  1  0.88414656  0.75048708  0.17477354  1
  H+  H114  1  0.89933752  0.61921371  1.00161381  1
  H+  H115  1  0.61070812  0.98346003  0.31991850  1
  H+  H116  1  0.62049163  0.13323720  0.84289218  1
  H+  H117  1  0.77101083  0.37824111  0.14522564  1
  H+  H118  1  0.54206142  0.36122860  0.01170289  1
  H+  H119  1  0.38343456  0.86028580  0.65918005  1
  H+  H120  1  0.40753606  0.08176033  0.59956338  1
  H+  H121  1  0.13578083  0.11022985  1.00196250  1
  H+  H122  1  0.65659953  0.38921667  0.99449194  1
  H+  H123  1  0.37988172  1.01987593  0.50424901  1
  H+  H124  1  0.83496968  0.16887320  0.81417495  1
  H+  H125  1  0.63788996  0.26774845  0.65719000  1
  H+  H126  1  0.77906639  0.64286684  0.49417046  1
  H+  H127  1  0.39453964  0.03136976  0.84512414  1
  H+  H128  1  0.36455805  0.13469317  0.34052903  1
  H+  H129  1  0.10674394  0.87362940  0.84128655  1
  H+  H130  1  0.36504075  0.48009327  0.82284751  1
  H+  H131  1  0.59976106  0.24344244  0.82418325  1
  H+  H132  1  0.65897448  0.55101198  0.33430542  1
  H+  H133  1  0.67802653  0.55714715  0.75815505  1
  H+  H134  1  0.59500621  0.75070589  0.17168052  1
  H+  H135  1  0.85376660  0.97581182  0.65725703  1
  H+  H136  1  0.78505169  0.89355793  0.49038513  1
  H+  H137  1  0.88709568  0.28810696  0.31703515  1
  H+  H138  1  0.03713475  0.75236534  0.61349205  1
  H+  H139  1  0.47962488  0.87087504  0.99712258  1
  H+  H140  1  0.51359917  0.13921463  0.67204314  1
  H+  H141  1  0.03126497  0.64515373  0.01386006  1
  H+  H142  1  0.11114340  0.97670190  0.16583331  1
  H+  H143  1  0.77652652  0.14909253  0.15141766  1
  H+  H144  1  0.04042136  0.88618465  0.33444223  1
  H+  H145  1  0.88508080  0.65131805  0.83049737  1
  H+  H146  1  0.37260648  0.38966876  0.82220316  1
  H+  H147  1  0.58863350  0.92436438  0.06144749  1
  H+  H148  1  0.62415578  0.11276945  0.66571830  1
  H+  H149  1  -0.02274936  0.61091316  0.49050283  1
  H+  H150  1  0.42639146  0.72167892  0.37559433  1
  H+  H151  1  0.88529944  0.37699653  0.31926698  1
  H+  H152  1  0.71195609  0.08088973  0.53247026  1
  H+  H153  1  0.87893545  0.85298414  1.01306248  1
  H+  H154  1  0.60935430  0.11732920  0.50402606  1
  H+  H155  1  0.12457428  0.73409845  0.33359794  1
  H+  H156  1  0.13972248  0.02133780  0.32843290  1
  H+  H157  1  0.36307242  0.12839604  1.01383797  1
  H+  H158  1  0.78767677  0.18449051  0.47257818  1
  H+  H159  1  0.14116707  0.76444164  0.49913767  1
  H+  H160  1  0.72581459  0.37977564  0.32995837  1
  H+  H161  1  0.86370489  0.49110933  0.33039809  1
  H+  H162  1  0.38184296  0.58840686  0.35306179  1
  H+  H163  1  0.57113118  0.17392300  0.73235179  1
  H+  H164  1  0.63725573  0.47187101  0.68867087  1
  H+  H165  1  0.36049514  0.62869110  0.81767634  1
  H+  H166  1  0.26128200  0.40379422  0.68041575  1
  H+  H167  1  0.89468258  0.24478357  0.67060578  1
  H+  H168  1  0.13854646  0.36038691  0.85184997  1
  H+  H169  1  0.83648882  0.67145194  0.43255142  1
  H+  H170  1  0.99153586  0.63047830  0.84397122  1
  H+  H171  1  0.98089023  0.10803697  1.00572052  1
  H+  H172  1  0.79048179  0.63926370  0.81544311  1
  H+  H173  1  0.26269113  0.12291916  0.01140719  1
  H+  H174  1  0.77995952  0.13780757  0.00097406  1
  H+  H175  1  0.13993747  0.51079449  0.82727878  1
  H+  H176  1  0.60742035  -0.03491213  0.51230539  1
  H+  H177  1  0.20454263  0.35199728  1.01130846  1
  H+  H178  1  0.93909168  0.90112899  0.30524407  1
  H+  H179  1  0.62088985  0.49836823  1.01242083  1
  H+  H180  1  0.60941297  0.67918081  0.83910391  1
  H+  H181  1  0.13843738  0.77263068  0.17213955  1
  H+  H182  1  0.12649501  0.35972166  0.32247093  1
  H+  H183  1  -0.06240432  0.10933407  0.61356470  1
  H+  H184  1  0.88663357  0.12092090  0.32103656  1
  H+  H185  1  0.87460064  0.90034445  0.49433413  1
  H+  H186  1  0.14660235  0.86768650  0.32334051  1
  H+  H187  1  0.91677909  0.11274805  0.85667895  1
  H+  H188  1  0.89772859  0.29732082  0.50888489  1
  H+  H189  1  0.11493348  0.23975621  0.48999624  1
  H+  H190  1  0.90010276  0.05249617  0.16450565  1
  H+  H191  1  0.48191725  0.60999108  0.98836541  1
  H+  H192  1  0.62239041  0.41352523  0.50771517  1
  H+  H193  1  0.13892613  0.17730171  0.68692761  1
  H+  H194  1  0.46848103  0.60214956  0.83267401  1
  H+  H195  1  0.62881859  0.26656590  0.11618759  1
  H+  H196  1  0.23193840  0.87280684  0.99835299  1
  H+  H197  1  0.13754726  0.52211608  0.50250681  1
  H+  H198  1  0.47641081  0.13048399  1.01456348  1
  H+  H199  1  0.35511261  0.13253115  0.16229726  1
  H+  H200  1  0.98327428  0.86329219  0.83599727  1
  H+  H201  1  0.08855086  0.66511804  0.76791324  1
  H+  H202  1  0.14331396  0.07272255  0.64820569  1
  H+  H203  1  0.89870087  0.62876561  0.32746691  1
  H+  H204  1  0.45013359  0.59097756  0.19342720  1
  H+  H205  1  0.64159404  1.03572018  0.15768674  1
  H+  H206  1  0.64573138  0.63000660  0.51854094  1
  H+  H207  1  0.66110389  0.50907886  0.82005364  1
  H+  H208  1  0.33211292  0.16593541  0.73564003  1
  H+  H209  1  0.96735585  0.85508298  1.00614290  1
  H+  H210  1  0.35840706  0.48346609  0.67453737  1
  H+  H211  1  0.35495962  0.57819235  0.20377851  1
  H+  H212  1  0.52653152  0.63482456  0.50524785  1
  H+  H213  1  0.36626873  0.98222281  0.67054487  1
  H+  H214  1  0.89237796  0.86940273  0.65485183  1
  H+  H215  1  0.37899272  0.78013199  0.50198035  1
  H+  H216  1  0.47822060  0.41926581  -0.00572812  1
  H+  H217  1  0.47071758  0.35877401  0.84713256  1
  H+  H218  1  0.65084207  0.82241793  0.83047463  1
  H+  H219  1  0.38132098  0.26350589  0.17726698  1
  H+  H220  1  0.91947767  0.34554682  0.22742759  1
  H+  H221  1  0.88404942  0.29983838  0.82899309  1
  H+  H222  1  0.62182196  0.51036368  0.17480602  1
  H+  H223  1  0.47385988  0.35010639  0.17912836  1
  H+  H224  1  0.13921376  0.95379058  0.68495624  1
  H+  H225  1  0.13971505  0.11933302  0.17686536  1
  H+  H226  1  0.98511084  0.62218744  0.32487910  1
  H+  H227  1  0.39363994  1.03540235  0.00516916  1
  H+  H228  1  0.38762788  0.67522734  0.13452643  1
  H+  H229  1  0.77632514  0.15118553  0.32317286  1
  H+  H230  1  0.51957954  0.89900821  0.32124568  1
  H+  H231  1  0.88827870  0.61290762  0.49408445  1
  H+  H232  1  0.24140591  0.14334897  0.66755303  1
  H+  H233  1  0.48965624  0.88241961  0.84168717  1
  H+  H234  1  0.87559504  0.83371063  0.17273961  1
  H+  H235  1  0.15820233  0.06645786  0.91788273  1
  H+  H236  1  0.64527352  0.11172073  1.00866024  1
  H+  H237  1  0.36514316  0.89812378  0.33292531  1
  H+  H238  1  0.15229913  0.28030448  0.85770681  1
  H+  H239  1  0.15245939  0.14290604  0.50301806  1
  H+  H240  1  0.93404563  0.07556598  0.91629530  1
  H+  H241  1  0.64594310  0.38799425  0.68436336  1
  H+  H242  1  0.34640502  0.63069377  -0.01009869  1
  H+  H243  1  0.63679681  0.87793424  0.98885774  1
  H+  H244  1  1.02109328  0.39797978  0.33766844  1
  H+  H245  1  0.38791713  0.78397015  0.99206544  1
  H+  H246  1  0.14597119  0.37674930  0.50699305  1
  H+  H247  1  0.36617924  0.63725121  0.66903740  1
  H+  H248  1  0.12083185  0.63708619  0.82568673  1
  H+  H249  1  0.37801224  0.25701748  0.33045117  1
  H+  H250  1  0.86955011  0.41188700  0.84100576  1
  H+  H251  1  0.13973213  0.10441709  0.85162089  1
  H+  H252  1  0.61749046  -0.01676259  1.00093586  1
  H+  H253  1  0.68975397  0.82845829  0.16911228  1
  H+  H254  1  0.87481299  0.37018910  0.67531803  1
  H+  H255  1  1.04698101  0.13730102  0.84457740  1
  H+  H256  1  0.13092051  0.77175173  0.84619116  1
  H+  H257  1  0.11696365  0.48215814  0.15875247  1
  H+  H258  1  0.61362884  0.20658048  0.50871481  1
  H+  H259  1  0.27320844  0.88417282  0.48942635  1
  H+  H260  1  0.64313204  0.11894770  0.13367362  1
  H+  H261  1  0.39981280  0.27653179  0.50895353  1
  H+  H262  1  0.38093463  0.38384155  0.15996551  1
  H+  H263  1  0.11377499  0.63315304  0.48716381  1
  H+  H264  1  0.60513441  0.88590122  0.15215319  1
  H+  H265  1  0.37794852  0.11194322  0.65985969  1
  H+  H266  1  0.02128022  0.13430478  0.33878708  1
  H+  H267  1  0.88745864  0.36345908  0.98861329  1
  H+  H268  1  0.11850093  0.87744244  0.48529574  1
  H+  H269  1  0.87567481  0.48406721  1.00159131  1
  H+  H270  1  0.35215861  0.67348462  0.54342262  1
  H+  H271  1  0.89189147  0.59956559  0.66601022  1
  H+  H272  1  0.66771268  0.56635582  0.95711850  1
  H+  H273  1  0.01562118  0.61449827  0.67994144  1
  H+  H274  1  0.79331366  0.90345933  0.82260469  1
  H+  H275  1  0.50921575  0.85441429  0.67859404  1
  H+  H276  1  0.28516400  0.15655999  0.49213684  1
  H+  H277  1  0.12542070  1.00187923  0.85258683  1
  H+  H278  1  0.37572165  0.78037915  0.31330156  1
  H+  H279  1  0.36503448  0.46232518  0.16959698  1
  H+  H280  1  0.10894657  0.21918224  0.01171982  1
  H+  H281  1  0.36163022  -0.01342391  0.16299178  1
  H+  H282  1  0.61586484  0.61823575  1.02101730  1
  H+  H283  1  0.87415579  0.17648034  0.47550058  1
  H+  H284  1  0.85065403  0.61846145  0.16771168  1
  H+  H285  1  0.64143445  0.12796992  0.31434344  1
  H+  H286  1  0.27356099  0.89433351  0.15961385  1
  H+  H287  1  0.61592594  0.86465416  0.50958400  1
  H+  H288  1  0.16662366  0.08533267  0.23648435  1
  H+  H289  1  0.35743823  0.93824911  0.77355324  1
  H+  H290  1  0.93439485  0.30809204  0.61325119  1
  H+  H291  1  0.86520808  0.39952260  0.46975747  1
  H+  H292  1  0.66768353  0.10466805  0.25040524  1
  H+  H293  1  0.82688739  0.65127104  0.10755004  1
  H+  H294  1  0.92479861  0.10273176  0.26209200  1
  H+  H295  1  0.73931076  0.61988855  0.66882265  1
  H+  H296  1  0.92291630  0.34324035  0.89393548  1
  H+  H297  1  0.14105618  0.50657882  0.65715671  1
  H+  H298  1  0.84197438  0.92827234  0.72136902  1
  H+  H299  1  0.81684917  0.90059298  0.12140632  1
  H+  H300  1  0.67095784  0.33013973  0.59932042  1
  H+  H301  1  0.68398437  0.86488735  0.89564900  1
  H+  H302  1  0.32532755  0.41183149  0.08023939  1
  H+  H303  1  0.15790624  0.57461361  0.56570281  1
  H+  H304  1  0.09508096  0.91236370  0.39731564  1
  H+  H305  1  0.65905033  0.35994047  0.89364151  1
  H+  H306  1  0.64860347  0.06961608  0.58878323  1
  H+  H307  1  0.33220049  0.92059983  0.42891287  1
  H+  H308  1  0.85413859  0.67789952  0.73007465  1
  H+  H309  1  0.41212021  0.32885458  0.60779232  1
  H+  H310  1  0.33884297  0.93030211  0.06755904  1
  H+  H311  1  0.04628317  0.16322572  0.70071560  1
  H+  H312  1  0.08562164  0.91028936  0.77861415  1
  H+  H313  1  0.91430934  0.57738320  0.23485860  1
  H+  H314  1  0.48348046  0.12095993  0.32829530  1
  H+  H315  1  0.93594705  0.60317500  0.93951842  1
  H+  H316  1  0.63147489  0.78784875  0.97707154  1
  H+  H317  1  0.32168495  0.15523876  0.07660412  1
  H+  H318  1  0.42019637  0.09370173  0.90464649  1
  H+  H319  1  0.58947548  0.16780520  0.40190098  1
  H+  H320  1  0.88758701  0.27349156  0.98780052  1
  H+  H321  1  0.64821771  0.35092296  0.28394362  1
  H+  H322  1  0.16543977  0.33547379  0.22920638  1
  H+  H323  1  0.16213281  0.34616289  0.57084577  1
  H+  H324  1  0.61539033  0.39791533  0.78117242  1
  H+  H325  1  0.65865428  0.82868649  0.56986432  1
  H+  H326  1  0.83049558  0.43072680  0.38876948  1
  H+  H327  1  0.58386349  0.66787954  0.44323657  1
  H+  H328  1  0.89806845  0.54567137  0.85221684  1
  H+  H329  1  0.09118443  0.56222127  0.94923208  1
  H+  H330  1  0.42985776  0.85053726  0.90004762  1
  H+  H331  1  0.08525402  0.91883944  0.07084621  1
  H+  H332  1  0.22546432  0.11195683  0.32980896  1
  H+  H333  1  0.33508579  0.42110901  0.75650432  1
  H+  H334  1  0.38626472  0.79085930  0.15766647  1
  H+  H335  1  0.34219055  0.39269520  0.41149068  1
  H+  H336  1  0.38807293  0.88024416  0.16468092  1
  H+  H337  1  0.56194504  0.40740387  0.10079197  1
  H+  H338  1  0.17407843  0.56977648  0.88701413  1
  H+  H339  1  0.09082239  0.66760469  0.42588911  1
  H+  H340  1  0.40911496  0.83158440  0.59757295  1
  H+  H341  1  0.52231119  0.62653168  0.36002441  1
  H+  H342  1  0.40635964  0.56033360  0.29146410  1
  H+  H343  1  0.12913277  0.27287335  0.32215817  1
  H+  H344  1  0.40687036  0.83810542  0.25280722  1
  H+  H345  1  0.43312167  0.51517023  0.96567378  1
  H+  H346  1  0.32973450  0.65885847  0.75243691  1
  H+  H347  1  0.71254037  0.10836150  0.66630165  1
  H+  H348  1  0.66420370  0.09777670  0.93701302  1
  H+  H349  1  0.47487151  0.12048059  0.17221226  1
  H+  H350  1  0.67891727  0.59823181  0.57606904  1
  H+  H351  1  0.15859370  0.81725117  0.56041684  1
  H+  H352  1  0.57277669  0.89889405  0.73468183  1
  H+  H353  1  0.54206727  0.62732411  0.11468053  1
  H+  H354  1  0.40859155  0.32127951  0.27027095  1
  H+  H355  1  0.08687495  0.17863856  0.43036989  1
  H+  H356  1  0.59292279  0.45242673  0.41410561  1
  H+  H357  1  0.34998277  0.67448900  0.42037414  1
  H+  H358  1  0.64523095  0.26833247  0.18622297  1
  H+  H359  1  0.08224063  0.66408890  0.11043918  1
  H+  H360  1  0.88720270  0.06964612  0.51124495  1
  H+  H361  1  0.41317645  0.57959252  0.89306609  1
  H+  H362  1  0.15626594  0.32799992  0.94652394  1
  H+  H363  1  0.33647139  0.16582235  0.40109891  1
  H+  H364  1  0.56976982  0.48454505  0.89640442  1
  H+  H365  1  0.08644010  0.42229915  0.43033365  1
  H+  H366  1  0.81335371  0.10416814  0.71238886  1
  H+  H367  1  0.10990178  0.17738248  0.78687306  1
  H+  H368  1  0.61462483  0.72303777  0.67081685  1
  H+  H369  1  0.83969148  0.42120951  0.05883558  1
  H+  H370  1  0.86135481  0.97516838  0.02277377  1
  H+  H371  1  0.48376955  0.37137651  0.51697141  1
  H+  H372  1  0.32784267  0.67486485  0.08314274  1
  H+  H373  1  0.56735397  0.52493473  0.89658980  1
  H+  H374  1  0.03935622  0.35413622  0.67119481  1
  H+  H375  1  0.18374017  0.59122138  0.26655459  1
  H+  H376  1  0.92860058  0.83642570  0.56074578  1
  H+  H377  1  0.73849936  0.37999462  -0.01380717  1
  H+  H378  1  0.08293734  0.42374568  0.09867932  1
  H+  H379  1  0.93074358  0.83177390  0.25767161  1
  H+  H380  1  0.42466850  0.09449127  0.23603400  1
  H+  H381  1  0.82272057  0.88384702  0.30980946  1
  H+  H382  1  0.11456128  0.48160661  0.33898858  1
  H+  H383  1  0.58085984  0.66248083  0.73024927  1
  O2-  O384  1  0.09816466  0.17800124  0.14731039  1
  O2-  O385  1  0.08322887  0.17931865  0.47596474  1
  O2-  O386  1  0.10844186  0.16636898  0.83152302  1
  O2-  O387  1  0.08246256  0.42214607  0.14400049  1
  O2-  O388  1  0.09344715  0.42539598  0.47611597  1
  O2-  O389  1  0.08767583  0.41083774  0.80990650  1
  O2-  O390  1  0.08336218  0.66289473  0.15582493  1
  O2-  O391  1  0.08640449  0.66565610  0.47145419  1
  O2-  O392  1  0.09185858  0.66910467  0.81358843  1
  O2-  O393  1  0.08532784  0.91735583  0.14869800  1
  O2-  O394  1  0.09050707  0.90753406  0.46727543  1
  O2-  O395  1  0.07820819  0.90974122  0.82361911  1
  O2-  O396  1  0.32323493  0.15981489  0.14480581  1
  O2-  O397  1  0.34541323  0.17794246  0.47540297  1
  O2-  O398  1  0.32947445  0.16502056  0.80950933  1
  O2-  O399  1  0.37362733  0.42836196  0.13827795  1
  O2-  O400  1  0.33773964  0.40640236  0.48717587  1
  O2-  O401  1  0.34212760  0.42079253  0.80446041  1
  O2-  O402  1  0.33805845  0.68254498  0.12803731  1
  O2-  O403  1  0.32799878  0.65921294  0.50247565  1
  O2-  O404  1  0.32577174  0.65369127  0.79995943  1
  O2-  O405  1  0.33444564  0.92818578  0.14459109  1
  O2-  O406  1  0.33390634  0.91870168  0.47446537  1
  O2-  O407  1  0.35834684  0.94104108  0.81816709  1
  O2-  O408  1  0.60565361  0.13422890  0.06562595  1
  O2-  O409  1  0.58406151  0.15171654  0.48693857  1
  O2-  O410  1  0.57196897  0.18282545  0.81108648  1
  O2-  O411  1  0.56920775  0.40446422  0.14724421  1
  O2-  O412  1  0.58688047  0.43845791  0.49541853  1
  O2-  O413  1  0.61043609  0.39911641  0.82794211  1
  O2-  O414  1  0.54432575  0.63368131  0.15924813  1
  O2-  O415  1  0.58672710  0.67195532  0.49148250  1
  O2-  O416  1  0.57351266  0.63238693  0.81155522  1
  O2-  O417  1  0.58581651  0.92634617  0.13659988  1
  O2-  O418  1  0.58101675  0.90619914  0.49329841  1
  O2-  O419  1  0.59476948  0.94789328  0.80859996  1
  O2-  O420  1  0.83862485  0.17881985  0.13916154  1
  O2-  O421  1  0.84821030  0.21455649  0.46169256  1
  O2-  O422  1  0.81145424  0.20304044  0.79773522  1
  O2-  O423  1  0.83306279  0.41609790  0.13699021  1
  O2-  O424  1  0.83091093  0.42729038  0.46550191  1
  O2-  O425  1  0.84347425  0.44907608  0.84018091  1
  O2-  O426  1  0.82048390  0.64912815  0.15298721  1
  O2-  O427  1  0.83864792  0.66955171  0.47812622  1
  O2-  O428  1  0.85329558  0.67928612  0.81050522  1
  O2-  O429  1  0.80345717  0.86877386  0.16049213  1
  O2-  O430  1  0.84641893  0.93496391  0.48814490  1
  O2-  O431  1  0.85298052  0.92551577  0.80692947  1
  O2-  O432  1  0.16652070  0.08463168  0.19067715  1
  O2-  O433  1  0.19361403  0.12752308  0.52117905  1
  O2-  O434  1  0.15708650  0.06286260  0.87066178  1
  O2-  O435  1  0.17033766  0.33591462  0.18354693  1
  O2-  O436  1  0.17166864  0.34470634  0.52683911  1
  O2-  O437  1  0.17115035  0.33804951  0.87402747  1
  O2-  O438  1  0.17627908  0.58934814  0.18947722  1
  O2-  O439  1  0.16481380  0.58201359  0.52056991  1
  O2-  O440  1  0.17452190  0.57289781  0.84200409  1
  O2-  O441  1  0.17144594  0.83470071  0.18387948  1
  O2-  O442  1  0.17279265  0.82418367  0.51673048  1
  O2-  O443  1  0.14811509  0.82954272  0.86270532  1
  O2-  O444  1  0.41754611  0.09204950  0.19001885  1
  O2-  O445  1  0.41076411  0.07963461  0.52120513  1
  O2-  O446  1  0.41811800  0.09380312  0.85999798  1
  O2-  O447  1  0.41358965  0.32120967  0.19625913  1
  O2-  O448  1  0.42258764  0.33362510  0.52962080  1
  O2-  O449  1  0.41245434  0.34468388  0.85882737  1
  O2-  O450  1  0.39368145  0.55792596  0.21599593  1
  O2-  O451  1  0.41651242  0.56689851  0.52494539  1
  O2-  O452  1  0.40824122  0.57871700  0.84720077  1
  O2-  O453  1  0.41768594  0.84770500  0.17757672  1
  O2-  O454  1  0.41335557  0.83945570  0.51692281  1
  O2-  O455  1  0.42916774  0.84804101  0.85520678  1
  O2-  O456  1  0.66776916  0.09837216  0.16655254  1
  O2-  O457  1  0.65181933  0.06315315  0.53926815  1
  O2-  O458  1  0.65583740  0.10715505  0.85641184  1
  O2-  O459  1  0.65553032  0.30632777  0.15180971  1
  O2-  O460  1  0.67325228  0.34210455  0.51176015  1
  O2-  O461  1  0.66009475  0.35823376  0.84787311  1
  O2-  O462  1  0.64927089  0.57194811  0.18718668  1
  O2-  O463  1  0.67781085  0.59996754  0.53111576  1
  O2-  O464  1  0.67950569  0.56728669  0.80227962  1
  O2-  O465  1  0.62953202  0.81374724  0.17545712  1
  O2-  O466  1  0.65322140  0.82892785  0.52374625  1
  O2-  O467  1  0.69365156  0.87493108  0.85038771  1
  O2-  O468  1  0.92752231  0.10978143  0.18213960  1
  O2-  O469  1  0.91706614  0.12887336  0.49589966  1
  O2-  O470  1  0.94165880  0.07818319  0.86984325  1
  O2-  O471  1  0.91816327  0.34142713  0.18191705  1
  O2-  O472  1  0.93844665  0.34671833  0.53565792  1
  O2-  O473  1  0.92662160  0.35460289  0.84916865  1
  O2-  O474  1  0.91453878  0.57650477  0.18927576  1
  O2-  O475  1  0.91589718  0.57753050  0.50286221  1
  O2-  O476  1  0.93344058  0.60979779  0.86220940  1
  O2-  O477  1  0.91615115  0.81371103  0.18531579  1
  O2-  O478  1  0.92869626  0.83626984  0.51576998  1
  O2-  O479  1  0.91764383  0.83224441  0.84491030  1
  O2-  O480  1  0.16560075  0.08221872  0.31365166  1
  O2-  O481  1  0.18333445  0.13417025  0.65031690  1
  O2-  O482  1  0.16562814  0.07842736  0.98628177  1
  O2-  O483  1  0.15528923  0.33087423  0.30397509  1
  O2-  O484  1  0.15244787  0.35680682  0.65788356  1
  O2-  O485  1  0.14599282  0.32102692  0.99208405  1
  O2-  O486  1  0.17990202  0.59063934  0.31218583  1
  O2-  O487  1  0.16303986  0.56666243  0.64389449  1
  O2-  O488  1  0.14228939  0.56513675  0.96721758  1
  O2-  O489  1  0.17770554  0.83731257  0.30798769  1
  O2-  O490  1  0.09340687  0.78164943  0.63315347  1
  O2-  O491  1  0.17010086  0.84045982  0.98640152  1
  O2-  O492  1  0.42458705  0.09191719  0.31022662  1
  O2-  O493  1  0.40835943  0.08138586  0.64508723  1
  O2-  O494  1  0.41946877  0.09847744  0.99438614  1
  O2-  O495  1  0.40827284  0.31943498  0.31630446  1
  O2-  O496  1  0.40440253  0.32511402  0.65279055  1
  O2-  O497  1  0.43121919  0.41898792  0.96751696  1
  O2-  O498  1  0.41089950  0.55861624  0.33673311  1
  O2-  O499  1  0.41625530  0.58280379  0.64695875  1
  O2-  O500  1  0.42824208  0.56884889  0.96745766  1
  O2-  O501  1  0.40517980  0.83952293  0.29861520  1
  O2-  O502  1  0.40551073  0.82326297  0.64245040  1
  O2-  O503  1  0.41857801  0.84592696  0.98336612  1
  O2-  O504  1  0.67274896  0.10166055  0.29516178  1
  O2-  O505  1  0.65095790  0.07902783  0.65122037  1
  O2-  O506  1  0.67339154  0.08756214  0.98016844  1
  O2-  O507  1  0.66096320  0.34535975  0.32617574  1
  O2-  O508  1  0.67787728  0.32825260  0.64339151  1
  O2-  O509  1  0.67664009  0.35425863  0.97366440  1
  O2-  O510  1  0.69890367  0.60402884  0.31118870  1
  O2-  O511  1  0.67612139  0.58132994  0.66158142  1
  O2-  O512  1  0.66522287  0.56469134  1.00138594  1
  O2-  O513  1  0.65006464  0.82633703  0.34089848  1
  O2-  O514  1  0.66325089  0.82352189  0.64290787  1
  O2-  O515  1  0.66915419  0.84936943  0.97074155  1
  O2-  O516  1  0.91582078  0.08942479  0.30632200  1
  O2-  O517  1  0.87734567  0.06864819  0.62129437  1
  O2-  O518  1  0.92129646  0.07740569  0.98783217  1
  O2-  O519  1  0.91928810  0.35019482  0.30506035  1
  O2-  O520  1  0.93823022  0.30549022  0.65792034  1
  O2-  O521  1  0.91893875  0.33443277  0.97313568  1
  O2-  O522  1  0.92404859  0.59370415  0.31120238  1
  O2-  O523  1  0.92592663  0.57227929  0.65545574  1
  O2-  O524  1  0.93476226  0.59484891  0.98476224  1
  O2-  O525  1  0.93851617  0.84673336  0.30265894  1
  O2-  O526  1  0.92420966  0.83892819  0.64372557  1
  O2-  O527  1  0.90547496  0.82057988  0.99671848  1
  O2-  O528  1  0.08506361  0.15846652  0.02703160  1
  O2-  O529  1  0.08119181  0.16542415  0.35442127  1
  O2-  O530  1  0.10662874  0.20141364  0.71055864  1
  O2-  O531  1  0.07826977  0.41734062  0.01949420  1
  O2-  O532  1  0.07989915  0.42265796  0.35550988  1
  O2-  O533  1  0.10259460  0.39440929  0.68403420  1
  O2-  O534  1  0.09108875  0.67563380  0.03249508  1
  O2-  O535  1  0.09257130  0.67326110  0.34884893  1
  O2-  O536  1  0.07998112  0.65089518  0.69251463  1
  O2-  O537  1  0.08465853  0.92052774  0.02528115  1
  O2-  O538  1  0.09998455  0.91770586  0.35051988  1
  O2-  O539  1  0.08824312  0.90228045  0.69923792  1
  O2-  O540  1  0.32333737  0.15332835  0.02922187  1
  O2-  O541  1  0.33149896  0.16220385  0.35520530  1
  O2-  O542  1  0.33002969  0.16600505  0.68945124  1
  O2-  O543  1  0.30306270  0.40895612  0.03621285  1
  O2-  O544  1  0.34445679  0.39405880  0.36595518  1
  O2-  O545  1  0.32205042  0.42412227  0.69224531  1
  O2-  O546  1  0.31899840  0.66223311  0.00552565  1
  O2-  O547  1  0.36467293  0.68101296  0.37666013  1
  O2-  O548  1  0.33133350  0.66293757  0.68461201  1
  O2-  O549  1  0.34032836  0.93319786  0.02202223  1
  O2-  O550  1  0.33762298  0.92953124  0.35072973  1
  O2-  O551  1  0.34306480  0.92233954  0.68770138  1
  O2-  O552  1  0.58097987  0.20113576  0.05482751  1
  O2-  O553  1  0.58804981  0.17464143  0.35728416  1
  O2-  O554  1  0.57402914  0.16986963  0.68718619  1
  O2-  O555  1  0.55456840  0.41525849  0.03046999  1
  O2-  O556  1  0.59659744  0.45547540  0.36923225  1
  O2-  O557  1  0.62433703  0.41863138  0.71034905  1
  O2-  O558  1  0.58688168  0.65281855  0.03152947  1
  O2-  O559  1  0.57964482  0.66408809  0.37756804  1
  O2-  O560  1  0.58269413  0.66158584  0.68539170  1
  O2-  O561  1  0.58701229  0.92179532  0.01544678  1
  O2-  O562  1  0.57791889  0.92590477  0.33823486  1
  O2-  O563  1  0.55927456  0.85866791  0.70026396  1
  O2-  O564  1  0.84150515  0.16874344  0.01476885  1
  O2-  O565  1  0.83767206  0.18189693  0.33720110  1
  O2-  O566  1  0.81217836  0.14988451  0.68927596  1
  O2-  O567  1  0.84097537  0.42219700  0.01321263  1
  O2-  O568  1  0.82952785  0.42897568  0.34323345  1
  O2-  O569  1  0.84680133  0.40420159  0.68259111  1
  O2-  O570  1  0.83779443  0.65715504  0.03114297  1
  O2-  O571  1  0.84947652  0.67923058  0.35564688  1
  O2-  O572  1  0.84579931  0.67220295  0.68530245  1
  O2-  O573  1  0.82614955  0.91637132  0.04001211  1
  O2-  O574  1  0.82020104  0.92210762  0.27958007  1
  O2-  O575  1  0.83380401  0.91855159  0.67703360  1
