# generated using pymatgen
data_H2O
_symmetry_space_group_name_H-M   'P 1'
_cell_length_a   17.99026169
_cell_length_b   17.99077451
_cell_length_c   22.01268586
_cell_angle_alpha   89.98675845
_cell_angle_beta   90.00501473
_cell_angle_gamma   119.99299724
_symmetry_Int_Tables_number   1
_chemical_formula_structural   H2O
_chemical_formula_sum   'H384 O192'
_cell_volume   6170.51820980
_cell_formula_units_Z   192
loop_
 _symmetry_equiv_pos_site_id
 _symmetry_equiv_pos_as_xyz
  1  'x, y, z'
loop_
 _atom_type_symbol
 _atom_type_oxidation_number
  H+  1.0
  O2-  -2.0
loop_
 _atom_site_type_symbol
 _atom_site_label
 _atom_site_symmetry_multiplicity
 _atom_site_fract_x
 _atom_site_fract_y
 _atom_site_fract_z
 _atom_site_occupancy
  H+  H0  1  0.11993395  0.72215137  0.50452979  1
  H+  H1  1  0.46559266  0.11182647  0.17887034  1
  H+  H2  1  0.12143077  0.22407279  0.67710851  1
  H+  H3  1  0.36887125  0.13400222  0.34996792  1
  H+  H4  1  0.89568076  0.81801449  -0.05995504  1
  H+  H5  1  0.82951350  0.08535839  0.32405790  1
  H+  H6  1  0.13068431  0.27129789  0.17824351  1
  H+  H7  1  0.28958538  0.41073934  0.66942212  1
  H+  H8  1  0.14054498  0.27551564  0.84482488  1
  H+  H9  1  0.12385637  0.39928761  0.33835847  1
  H+  H10  1  0.65318323  0.98217123  0.01527032  1
  H+  H11  1  0.61455000  0.99336062  0.82054827  1
  H+  H12  1  0.86261420  0.47065341  1.01181043  1
  H+  H13  1  0.27733748  0.28780290  0.44578542  1
  H+  H14  1  0.28108837  0.64149719  0.16375118  1
  H+  H15  1  0.26133311  0.35333302  0.48124777  1
  H+  H16  1  0.79463911  0.63481180  0.49670251  1
  H+  H17  1  -0.01418688  0.87171775  0.66641602  1
  H+  H18  1  0.73797300  0.11916021  0.66106091  1
  H+  H19  1  0.88213676  0.14352928  0.50725899  1
  H+  H20  1  0.85165188  0.23153904  0.82810275  1
  H+  H21  1  0.88473388  0.63867476  0.49663704  1
  H+  H22  1  0.11010905  0.38742109  1.01078311  1
  H+  H23  1  0.48943625  0.64695252  0.48918548  1
  H+  H24  1  0.38312058  0.49840597  0.16234340  1
  H+  H25  1  0.58185409  0.11730745  -0.01810079  1
  H+  H26  1  0.64131089  0.10948408  0.88180984  1
  H+  H27  1  0.87514187  0.77087820  0.83952443  1
  H+  H28  1  0.84477712  0.95364303  0.33396760  1
  H+  H29  1  0.89248545  0.36261431  0.17774467  1
  H+  H30  1  0.77601323  0.38494749  0.65055315  1
  H+  H31  1  0.88471057  0.52682655  0.65841217  1
  H+  H32  1  0.76985452  0.89044481  0.16008890  1
  H+  H33  1  0.36528660  0.97121456  0.34081960  1
  H+  H34  1  0.64255258  1.02485092  0.66081019  1
  H+  H35  1  0.35294038  0.08908284  0.02449361  1
  H+  H36  1  0.03377457  0.64511723  0.17031625  1
  H+  H37  1  0.42474597  0.83933466  0.22669907  1
  H+  H38  1  0.62181827  0.74766366  0.31807940  1
  H+  H39  1  0.52160640  0.62225877  0.01030229  1
  H+  H40  1  0.87226298  0.48187086  0.80302417  1
  H+  H41  1  0.01167262  0.63926741  0.66475916  1
  H+  H42  1  0.14757815  0.86411679  0.50589912  1
  H+  H43  1  0.86737369  0.63378719  0.16146314  1
  H+  H44  1  0.48344555  0.85867300  0.31918616  1
  H+  H45  1  0.22890847  0.61618520  0.31712098  1
  H+  H46  1  0.86271375  0.64339881  0.81251284  1
  H+  H47  1  0.65807431  0.81404910  0.26262791  1
  H+  H48  1  0.92468105  0.08879485  0.57289349  1
  H+  H49  1  0.62061117  0.80494628  0.49845252  1
  H+  H50  1  0.78407427  0.40416000  0.35167462  1
  H+  H51  1  0.48127238  0.88224244  0.83404430  1
  H+  H52  1  0.89020411  0.61146042  1.00444361  1
  H+  H53  1  0.88171906  0.35616602  -0.00162716  1
  H+  H54  1  0.60085044  0.85394329  0.33444900  1
  H+  H55  1  0.42441976  0.59940060  0.89441285  1
  H+  H56  1  0.85951775  0.24544532  0.35715445  1
  H+  H57  1  0.03797113  0.89257185  0.34600587  1
  H+  H58  1  0.88050349  0.26693436  0.99534521  1
  H+  H59  1  0.25801936  0.59497972  1.01524690  1
  H+  H60  1  0.15127435  0.40208977  0.65358739  1
  H+  H61  1  0.08071610  0.40889298  0.10386070  1
  H+  H62  1  0.88989831  0.11828452  0.17618580  1
  H+  H63  1  0.62313378  0.07702241  0.33481217  1
  H+  H64  1  0.33640889  0.39369360  0.38737265  1
  H+  H65  1  0.87317952  0.47723472  0.50216607  1
  H+  H66  1  0.61928506  0.15446534  0.79865351  1
  H+  H67  1  -0.01594293  0.36921069  0.33191657  1
  H+  H68  1  0.48594508  0.61740262  0.17185555  1
  H+  H69  1  0.23529218  0.85896479  0.33572950  1
  H+  H70  1  0.91003504  0.33676868  0.89837495  1
  H+  H71  1  0.98569561  0.10552819  0.84577839  1
  H+  H72  1  0.27948504  0.02272987  0.97716496  1
  H+  H73  1  0.22461713  0.87120373  0.84359334  1
  H+  H74  1  0.12039878  0.48647980  0.33619634  1
  H+  H75  1  0.64946118  0.51156168  0.50866711  1
  H+  H76  1  0.77509741  0.64587302  0.66622339  1
  H+  H77  1  0.62977917  0.78041102  0.82473114  1
  H+  H78  1  0.88376251  0.61753144  0.65991435  1
  H+  H79  1  -0.02742368  0.36306678  0.84105269  1
  H+  H80  1  0.98977425  0.37095338  0.50359691  1
  H+  H81  1  0.23681821  0.13225184  0.12505333  1
  H+  H82  1  0.64904848  0.87814453  0.65695685  1
  H+  H83  1  0.14602175  0.02294605  0.50906572  1
  H+  H84  1  0.77386331  0.38132874  0.00276142  1
  H+  H85  1  0.79604192  0.65216989  0.34711548  1
  H+  H86  1  0.38174553  0.27027231  1.01997877  1
  H+  H87  1  0.88965579  0.24680515  0.50677951  1
  H+  H88  1  0.50798928  0.14279378  0.48209921  1
  H+  H89  1  0.38132151  0.12626344  0.50868556  1
  H+  H90  1  0.23788212  0.86404630  0.50377234  1
  H+  H91  1  0.96133851  0.84340164  0.99731528  1
  H+  H92  1  0.12081141  0.13573210  0.67327629  1
  H+  H93  1  0.36710404  0.88873967  0.16502285  1
  H+  H94  1  0.39942898  0.26223325  0.51556357  1
  H+  H95  1  0.23106310  0.11325922  0.66069381  1
  H+  H96  1  0.62975966  0.33687756  0.61810351  1
  H+  H97  1  0.49816967  0.87688118  -0.01552287  1
  H+  H98  1  0.21357713  0.61362656  0.67317834  1
  H+  H99  1  0.83327005  0.67794470  0.75658030  1
  H+  H100  1  0.48286098  0.63108106  0.65369378  1
  H+  H101  1  0.55848655  0.41415422  0.14661561  1
  H+  H102  1  0.13377135  0.27154996  0.50680765  1
  H+  H103  1  0.60637808  0.18433142  0.32729889  1
  H+  H104  1  0.77131377  0.62129097  0.00439665  1
  H+  H105  1  0.90612050  0.77687635  0.17341793  1
  H+  H106  1  0.83086477  0.16333274  0.10744689  1
  H+  H107  1  0.14854314  0.86145214  0.33960035  1
  H+  H108  1  0.57566578  0.65484161  0.50801217  1
  H+  H109  1  0.36806975  0.39325854  0.17234301  1
  H+  H110  1  0.64504310  0.62905214  0.65396449  1
  H+  H111  1  0.90584279  0.86659346  0.32513100  1
  H+  H112  1  0.46812657  0.60341406  0.31999884  1
  H+  H113  1  0.66135857  0.60170540  0.49094933  1
  H+  H114  1  0.38727072  0.34302428  0.50488963  1
  H+  H115  1  0.24090424  0.87047013  0.16787374  1
  H+  H116  1  0.67342590  0.59937800  0.88812006  1
  H+  H117  1  0.46603763  0.09793808  0.31926050  1
  H+  H118  1  0.03352933  0.88646432  0.50313521  1
  H+  H119  1  0.10712188  0.63968742  0.66885368  1
  H+  H120  1  0.38926597  0.29105724  0.81770459  1
  H+  H121  1  0.10227203  0.72490379  0.83912775  1
  H+  H122  1  0.38152487  0.49174930  0.67161352  1
  H+  H123  1  0.00286806  0.88214350  0.84767961  1
  H+  H124  1  0.60641814  0.70683224  0.00862411  1
  H+  H125  1  0.35730564  0.21697293  0.67700152  1
  H+  H126  1  0.09387884  0.88111636  1.00304730  1
  H+  H127  1  0.78350744  0.38871217  0.16522230  1
  H+  H128  1  0.63804500  0.31964790  0.36594847  1
  H+  H129  1  0.17012215  0.58368960  0.23308220  1
  H+  H130  1  0.64556027  0.53303487  0.19231126  1
  H+  H131  1  0.37070059  -0.02617585  0.49867071  1
  H+  H132  1  0.02982004  0.13938986  0.49679266  1
  H+  H133  1  0.39946306  0.78521452  0.67439992  1
  H+  H134  1  0.86533893  0.22739692  0.67130957  1
  H+  H135  1  0.35815097  0.16209363  0.83469535  1
  H+  H136  1  0.37330410  0.47571678  0.00857009  1
  H+  H137  1  0.86523737  0.98997325  0.16965072  1
  H+  H138  1  0.87181364  0.85852486  0.84399121  1
  H+  H139  1  0.61358547  0.84433903  0.99221570  1
  H+  H140  1  0.59700661  0.38217652  0.19624856  1
  H+  H141  1  0.89709997  0.53038671  0.33071758  1
  H+  H142  1  0.46773193  0.68629111  0.96613723  1
  H+  H143  1  0.42079719  0.04254762  0.86533060  1
  H+  H144  1  0.54760711  0.91800717  0.41986991  1
  H+  H145  1  -0.01819643  0.11633042  0.66448357  1
  H+  H146  1  0.38305587  0.66341074  0.82483232  1
  H+  H147  1  0.13923582  0.51552133  0.51464323  1
  H+  H148  1  0.12542445  0.52037809  1.00271344  1
  H+  H149  1  0.25143134  0.12372558  0.35180191  1
  H+  H150  1  0.12513754  0.36540926  0.17385744  1
  H+  H151  1  0.64229302  0.35635009  0.52456483  1
  H+  H152  1  0.89947120  0.62048589  0.32902156  1
  H+  H153  1  0.67517064  0.53408027  0.32787404  1
  H+  H154  1  0.13328507  0.86762619  0.84527561  1
  H+  H155  1  0.22469173  0.36846340  0.84119009  1
  H+  H156  1  0.38714700  0.61753270  0.66503987  1
  H+  H157  1  0.17311371  0.34676471  0.55833402  1
  H+  H158  1  0.64197375  0.12131600  0.65371084  1
  H+  H159  1  0.83658100  0.17363295  0.45156089  1
  H+  H160  1  0.78180238  0.89487236  0.66970114  1
  H+  H161  1  0.91807308  0.10576394  0.34754625  1
  H+  H162  1  0.14235872  0.52867746  0.17159814  1
  H+  H163  1  0.11773043  0.51868280  0.84800934  1
  H+  H164  1  0.05950810  0.15181727  0.33227648  1
  H+  H165  1  0.38563174  0.11016148  0.14646396  1
  H+  H166  1  0.36351540  0.89745199  0.83392958  1
  H+  H167  1  0.65610587  0.37903476  0.83180768  1
  H+  H168  1  0.63138510  0.24825555  0.79692721  1
  H+  H169  1  0.91188739  0.78160038  0.32981286  1
  H+  H170  1  0.50250735  0.90396549  0.48307255  1
  H+  H171  1  0.78475059  0.38599850  0.50525588  1
  H+  H172  1  0.53488679  0.90220960  0.67156620  1
  H+  H173  1  0.66484342  0.90788089  0.49916466  1
  H+  H174  1  1.03487260  0.88781450  0.16401326  1
  H+  H175  1  0.29275250  0.12821863  0.50686059  1
  H+  H176  1  0.40683353  0.07912972  0.92605599  1
  H+  H177  1  0.89224837  0.02773753  0.66368761  1
  H+  H178  1  0.39579585  0.76281784  0.52265063  1
  H+  H179  1  0.38758454  0.36184458  0.66277557  1
  H+  H180  1  0.73817385  0.61796477  0.17892372  1
  H+  H181  1  0.38084288  0.75284712  0.82117878  1
  H+  H182  1  0.11608700  0.24238751  0.01178509  1
  H+  H183  1  0.15728328  0.28931920  0.32573745  1
  H+  H184  1  0.98776930  0.60901139  0.51291195  1
  H+  H185  1  0.61751388  0.13204606  0.19042903  1
  H+  H186  1  0.56511011  0.38596236  0.34779093  1
  H+  H187  1  0.47156867  0.10716101  0.65644549  1
  H+  H188  1  0.88921022  0.36358226  0.65549991  1
  H+  H189  1  0.21961321  0.10028883  0.84836160  1
  H+  H190  1  0.12445733  0.14766556  0.16030329  1
  H+  H191  1  0.58920770  0.41972452  0.88396442  1
  H+  H192  1  0.64885001  0.26331361  0.96128129  1
  H+  H193  1  0.23083578  0.37241159  0.99737653  1
  H+  H194  1  0.52617673  0.64607294  0.81704766  1
  H+  H195  1  0.12338949  0.14203691  0.83686051  1
  H+  H196  1  0.12537658  1.02508583  0.86341349  1
  H+  H197  1  0.27829946  0.56706583  0.71892008  1
  H+  H198  1  0.62109448  0.21743586  0.63933364  1
  H+  H199  1  0.74437222  0.37652741  0.82045479  1
  H+  H200  1  0.79788610  0.90468516  -0.04302418  1
  H+  H201  1  0.14428360  0.87195474  0.16450272  1
  H+  H202  1  0.03599491  0.63872971  0.33135349  1
  H+  H203  1  0.86150908  0.12757761  0.01170769  1
  H+  H204  1  0.89535088  0.89851198  0.49608359  1
  H+  H205  1  0.15274895  0.13930785  0.00348566  1
  H+  H206  1  0.50764274  0.34241601  0.66017414  1
  H+  H207  1  0.86618418  -0.02554441  0.82919391  1
  H+  H208  1  0.37035411  0.64179432  0.16266793  1
  H+  H209  1  0.09426890  0.16841707  0.77503528  1
  H+  H210  1  0.36016300  0.12888072  0.67235605  1
  H+  H211  1  0.09734823  0.63188588  0.84153808  1
  H+  H212  1  0.03009408  0.13871724  0.17016591  1
  H+  H213  1  0.89699203  0.37339879  0.33282075  1
  H+  H214  1  0.73124817  0.11272040  0.18368276  1
  H+  H215  1  0.89863263  0.77277565  0.51349211  1
  H+  H216  1  0.72701595  1.13333343  -0.02043373  1
  H+  H217  1  0.12397577  0.64497342  0.17044529  1
  H+  H218  1  0.36274605  -0.02495163  0.67290644  1
  H+  H219  1  0.36145372  -0.02295897  0.16329905  1
  H+  H220  1  0.39071149  0.86896893  0.66949895  1
  H+  H221  1  0.03737236  0.64722412  0.02427342  1
  H+  H222  1  0.11644290  0.38770653  0.48709133  1
  H+  H223  1  0.97072325  0.96512539  0.05439054  1
  H+  H224  1  0.48317449  0.33766211  0.84270789  1
  H+  H225  1  0.62502655  0.64327522  0.16625801  1
  H+  H226  1  0.12712826  -0.01889321  0.35565406  1
  H+  H227  1  0.36542830  0.40356705  0.82570881  1
  H+  H228  1  0.11079953  0.73578806  0.65865633  1
  H+  H229  1  0.60946630  0.62108012  0.34647427  1
  H+  H230  1  0.84380301  0.42375271  0.40932831  1
  H+  H231  1  0.10320261  0.48252817  0.68141214  1
  H+  H232  1  0.35200260  0.96077145  0.00824946  1
  H+  H233  1  0.14151897  0.61654067  0.00538236  1
  H+  H234  1  0.89716945  0.87415773  0.66543606  1
  H+  H235  1  0.61691838  0.64924554  0.81557259  1
  H+  H236  1  0.52294186  0.37077222  -0.02550798  1
  H+  H237  1  0.71305888  0.08738468  0.34844960  1
  H+  H238  1  0.45236176  0.36260400  0.20667406  1
  H+  H239  1  0.98397650  0.12950649  1.00127780  1
  H+  H240  1  0.97769359  0.61935911  0.83079380  1
  H+  H241  1  0.61298689  0.37111710  -0.03358221  1
  H+  H242  1  0.61848604  0.97583855  0.16566885  1
  H+  H243  1  0.12093401  0.63410953  0.51090983  1
  H+  H244  1  0.13804687  0.61587965  0.32063033  1
  H+  H245  1  0.61138478  0.94767010  0.33777816  1
  H+  H246  1  0.53929730  0.12652343  -0.07835547  1
  H+  H247  1  0.14222813  0.86135397  0.64890061  1
  H+  H248  1  0.27718364  0.88326317  0.67267274  1
  H+  H249  1  0.77047127  0.89206622  0.82406895  1
  H+  H250  1  0.31565110  0.13435123  0.76969039  1
  H+  H251  1  0.64425939  0.86610276  0.16585545  1
  H+  H252  1  0.12473595  0.97929055  0.15261153  1
  H+  H253  1  0.14211480  0.79161153  0.99970572  1
  H+  H254  1  0.52756997  0.37843100  0.51111754  1
  H+  H255  1  0.10754963  0.38219234  0.83186206  1
  H+  H256  1  0.63683473  0.60065477  -0.01046739  1
  H+  H257  1  0.90112159  0.03323783  0.51035631  1
  H+  H258  1  0.77213104  0.20911951  0.39145314  1
  H+  H259  1  0.14277950  0.77557499  0.17220324  1
  H+  H260  1  0.38869027  0.53740648  0.83593430  1
  H+  H261  1  0.78480306  0.92546759  0.98131715  1
  H+  H262  1  0.12984319  -0.01383027  0.66621793  1
  H+  H263  1  0.36442085  0.88131930  0.49632574  1
  H+  H264  1  0.71895286  0.12727489  0.83442444  1
  H+  H265  1  0.72977476  0.62654203  0.82739377  1
  H+  H266  1  0.58571612  0.15564363  0.13220843  1
  H+  H267  1  0.92286135  0.58547898  0.23421651  1
  H+  H268  1  0.65527456  0.33840088  0.13494377  1
  H+  H269  1  0.68931858  0.33821305  0.91457718  1
  H+  H270  1  0.83564285  0.92086102  0.73232361  1
  H+  H271  1  0.63847417  0.51521967  0.97071129  1
  H+  H272  1  0.90678712  0.03506066  1.00570492  1
  H+  H273  1  0.38170501  0.61229571  0.99607762  1
  H+  H274  1  0.89862333  0.52758332  0.17416254  1
  H+  H275  1  0.22850050  0.45947446  0.61066560  1
  H+  H276  1  0.12613806  0.72656130  0.33570295  1
  H+  H277  1  0.61576342  0.48494125  0.83024775  1
  H+  H278  1  0.27357498  0.15090033  0.03858513  1
  H+  H279  1  0.64887964  0.77785473  0.16254816  1
  H+  H280  1  0.37063630  0.74100712  0.31842291  1
  H+  H281  1  0.85600939  0.71321026  0.00769313  1
  H+  H282  1  0.53162656  0.44993356  0.36230108  1
  H+  H283  1  0.02400652  0.38299264  0.16577971  1
  H+  H284  1  0.86612393  0.22713291  0.16539288  1
  H+  H285  1  0.36779995  0.38416273  0.01037494  1
  H+  H286  1  0.65533283  0.04028484  0.48415939  1
  H+  H287  1  0.61799748  0.74120946  0.66254504  1
  H+  H288  1  0.39724548  0.86810603  0.32236544  1
  H+  H289  1  0.67387661  0.85104261  0.59496678  1
  H+  H290  1  0.18763270  0.10852604  0.94837100  1
  H+  H291  1  0.10237705  0.68203854  0.07861722  1
  H+  H292  1  0.94706907  0.59576428  0.95562932  1
  H+  H293  1  0.14516610  0.15423621  0.34939848  1
  H+  H294  1  0.17172462  0.34230753  0.93754287  1
  H+  H295  1  0.32905698  0.66147030  0.74592623  1
  H+  H296  1  0.42084955  0.83070224  0.57548531  1
  H+  H297  1  0.94692363  0.97238105  0.45084424  1
  H+  H298  1  0.58529075  0.67943695  0.72095399  1
  H+  H299  1  0.08564580  0.18304086  0.07169602  1
  H+  H300  1  0.89234910  0.89083773  0.02283062  1
  H+  H301  1  0.15957118  0.58217310  0.61062562  1
  H+  H302  1  0.92430144  0.07642902  0.90342316  1
  H+  H303  1  0.59024580  0.65967648  0.10320328  1
  H+  H304  1  0.85695156  0.67674665  0.40552973  1
  H+  H305  1  0.64930191  0.15584446  0.06826317  1
  H+  H306  1  0.39370115  0.77960997  0.16724737  1
  H+  H307  1  0.92057779  0.33327751  0.23843116  1
  H+  H308  1  0.40694840  0.86786067  0.98981698  1
  H+  H309  1  0.61248603  0.10977558  0.06646267  1
  H+  H310  1  0.83198203  0.65841241  0.10247080  1
  H+  H311  1  0.39862180  0.07851855  0.26522732  1
  H+  H312  1  0.63502545  0.26841615  0.18362692  1
  H+  H313  1  0.93898748  0.83457894  0.23319340  1
  H+  H314  1  0.34976223  0.42677802  0.10235171  1
  H+  H315  1  0.56972803  0.46262394  0.07174660  1
  H+  H316  1  0.22889414  0.11665208  0.19438059  1
  H+  H317  1  0.61503960  0.90272801  0.81974279  1
  H+  H318  1  0.33785130  0.42891403  0.76391793  1
  H+  H319  1  0.33480951  0.92953484  0.77701885  1
  H+  H320  1  0.35000011  0.16096639  0.41552324  1
  H+  H321  1  0.13296514  0.93082454  0.72095200  1
  H+  H322  1  0.38906303  0.29273288  0.94939511  1
  H+  H323  1  0.89678066  0.36646691  0.50769713  1
  H+  H324  1  0.68803761  0.59732857  0.27381513  1
  H+  H325  1  0.65395233  0.34230118  0.29659760  1
  H+  H326  1  0.09097853  0.91687720  0.44215774  1
  H+  H327  1  0.14947017  0.11392489  0.50630317  1
  H+  H328  1  0.01683639  0.37921369  0.01194823  1
  H+  H329  1  0.86847431  0.73338503  0.66814299  1
  H+  H330  1  0.40167931  0.33164959  0.34506662  1
  H+  H331  1  0.41132672  0.07300323  0.59786819  1
  H+  H332  1  0.87063875  0.39191250  0.81340349  1
  H+  H333  1  0.60046487  0.18058757  0.70955038  1
  H+  H334  1  0.23243924  0.59560803  0.52829509  1
  H+  H335  1  0.56866850  0.15121413  0.39388170  1
  H+  H336  1  0.67530502  0.59165380  0.59994357  1
  H+  H337  1  0.06610790  0.90320508  0.06545670  1
  H+  H338  1  0.58581120  0.37147560  0.70555585  1
  H+  H339  1  0.68859366  0.82920473  0.97447295  1
  H+  H340  1  0.32160416  0.62834062  0.07252151  1
  H+  H341  1  0.33807288  0.68717640  0.37806202  1
  H+  H342  1  0.59470842  0.93491252  0.73050274  1
  H+  H343  1  0.24599330  0.37549998  0.31762252  1
  H+  H344  1  0.92482763  0.83415138  0.57288584  1
  H+  H345  1  0.17373231  0.82914619  0.59063646  1
  H+  H346  1  0.82768710  0.41094741  0.71502749  1
  H+  H347  1  0.59887473  0.92099744  0.06979412  1
  H+  H348  1  0.18961763  0.09068486  0.29309873  1
  H+  H349  1  0.90994450  0.08529965  0.23776031  1
  H+  H350  1  0.37094114  0.33264938  0.25008637  1
  H+  H351  1  0.34660765  0.91541024  0.40192414  1
  H+  H352  1  0.91996242  0.58149106  0.56770053  1
  H+  H353  1  0.42141693  0.58577237  0.23113187  1
  H+  H354  1  0.34772217  0.91131026  0.06825899  1
  H+  H355  1  0.64252483  0.82815185  0.88714489  1
  H+  H356  1  0.86078641  0.92820131  0.11062868  1
  H+  H357  1  0.42934053  0.84765964  0.89702405  1
  H+  H358  1  0.16813046  0.34071201  0.23797537  1
  H+  H359  1  0.60270179  0.22310700  0.48697821  1
  H+  H360  1  0.40689010  0.32331595  0.60279968  1
  H+  H361  1  0.82397015  0.16921746  0.77117094  1
  H+  H362  1  0.39924244  0.60038898  0.56860773  1
  H+  H363  1  0.08957750  0.42602603  0.43040806  1
  H+  H364  1  0.38918289  0.62032783  0.31354357  1
  H+  H365  1  0.54991318  0.41431795  0.07087359  1
  H+  H366  1  0.83613215  0.41238208  0.10336436  1
  H+  H367  1  0.02270081  0.38742872  0.67561023  1
  H+  H368  1  0.07893465  0.41227815  0.77204705  1
  H+  H369  1  0.56696826  0.65147611  0.39847166  1
  H+  H370  1  0.08976297  0.17052262  0.43661892  1
  H+  H371  1  0.88755402  0.56795315  0.87130984  1
  H+  H372  1  0.16097480  0.84136553  0.93705185  1
  H+  H373  1  0.84110227  0.90683968  0.39460453  1
  H+  H374  1  0.05689959  0.92772927  0.79027504  1
  H+  H375  1  0.17326630  0.08628904  0.59939233  1
  H+  H376  1  0.67485188  0.07323935  0.24475343  1
  H+  H377  1  0.15005321  0.57762670  0.90696153  1
  H+  H378  1  0.47632635  0.05710569  0.53940720  1
  H+  H379  1  0.92699959  0.33516821  0.60085819  1
  H+  H380  1  0.52857090  0.88795484  0.15956673  1
  H+  H381  1  0.86589949  0.13843580  0.67337033  1
  H+  H382  1  0.33665693  0.63333617  0.46643528  1
  H+  H383  1  0.57447143  0.40090166  0.44925077  1
  O2-  O384  1  0.08931025  0.17623012  0.15432195  1
  O2-  O385  1  0.09046298  0.16866136  0.48180348  1
  O2-  O386  1  0.09462441  0.17337632  0.81981522  1
  O2-  O387  1  0.08447114  0.41009561  0.14997596  1
  O2-  O388  1  0.08717179  0.42078503  0.47607216  1
  O2-  O389  1  0.07474212  0.40985398  0.81706795  1
  O2-  O390  1  0.09547930  0.67839256  0.15732939  1
  O2-  O391  1  0.08505909  0.65894764  0.49941126  1
  O2-  O392  1  0.06759231  0.66384636  0.82665090  1
  O2-  O393  1  0.09511003  0.91701410  0.14450427  1
  O2-  O394  1  0.09402229  0.91920357  0.48801059  1
  O2-  O395  1  0.06429312  0.91743748  0.83268426  1
  O2-  O396  1  0.37061628  0.14427511  0.07871679  1
  O2-  O397  1  0.35399765  0.15965366  0.49413088  1
  O2-  O398  1  0.30704205  0.11861550  0.81340594  1
  O2-  O399  1  0.34955045  0.43296264  0.14794282  1
  O2-  O400  1  0.30702629  0.34776006  0.45876412  1
  O2-  O401  1  0.33291785  0.42930451  0.80962203  1
  O2-  O402  1  0.34070885  0.67212223  0.14701840  1
  O2-  O403  1  0.34334194  0.64195934  0.51057709  1
  O2-  O404  1  0.35547183  0.69271216  0.80470817  1
  O2-  O405  1  0.33172042  0.91495730  0.15146983  1
  O2-  O406  1  0.33684533  0.91301248  0.48009487  1
  O2-  O407  1  0.33290535  0.92892046  0.82186662  1
  O2-  O408  1  0.58599785  0.16271289  0.17638083  1
  O2-  O409  1  0.55872798  0.18559410  0.45746094  1
  O2-  O410  1  0.60205259  0.19165210  0.77620079  1
  O2-  O411  1  0.56771160  0.41612431  0.19083250  1
  O2-  O412  1  0.58722956  0.40556951  0.49323051  1
  O2-  O413  1  0.59042092  0.42216762  0.83833925  1
  O2-  O414  1  0.59325825  0.67021538  0.14807240  1
  O2-  O415  1  0.55069937  0.67292049  0.47611185  1
  O2-  O416  1  0.58531416  0.67791443  0.79945308  1
  O2-  O417  1  0.59095399  0.91759334  0.14712111  1
  O2-  O418  1  0.53288778  0.94765528  0.45132953  1
  O2-  O419  1  0.58600129  0.93347195  0.80331989  1
  O2-  O420  1  0.83529710  0.16526088  0.15272429  1
  O2-  O421  1  0.85505308  0.18076799  0.49551161  1
  O2-  O422  1  0.81614229  0.17062465  0.81537081  1
  O2-  O423  1  0.84240670  0.41611307  0.14880783  1
  O2-  O424  1  0.84303012  0.41548594  0.48697775  1
  O2-  O425  1  0.84243720  0.41983003  0.79083848  1
  O2-  O426  1  0.83443364  0.66207331  0.14779362  1
  O2-  O427  1  0.85502539  0.67092835  0.48302769  1
  O2-  O428  1  0.83273069  0.67607774  0.80238558  1
  O2-  O429  1  0.83711392  0.92859357  0.15303014  1
  O2-  O430  1  0.89244679  0.94526457  0.47271344  1
  O2-  O431  1  0.83071510  0.91506234  0.81042585  1
  O2-  O432  1  0.19263056  0.10450456  0.15866632  1
  O2-  O433  1  0.17909534  0.08451623  0.52315546  1
  O2-  O434  1  0.16496090  0.08722994  0.87038846  1
  O2-  O435  1  0.15799330  0.33418609  0.19151320  1
  O2-  O436  1  0.16745541  0.33520878  0.51387614  1
  O2-  O437  1  0.16684156  0.33653170  0.85970720  1
  O2-  O438  1  0.17306977  0.58832768  0.18680596  1
  O2-  O439  1  0.17063759  0.57094931  0.53759136  1
  O2-  O440  1  0.14261630  0.57843978  0.86233926  1
  O2-  O441  1  0.17567339  0.84065502  0.17998753  1
  O2-  O442  1  0.17698895  0.83268163  0.52033989  1
  O2-  O443  1  0.16344391  0.83684134  0.85760385  1
  O2-  O444  1  0.40256527  0.08424979  0.18129277  1
  O2-  O445  1  0.42858370  0.06601709  0.52908661  1
  O2-  O446  1  0.44837121  0.09330303  0.89186573  1
  O2-  O447  1  0.38968615  0.33979629  0.20654019  1
  O2-  O448  1  0.42278718  0.32421146  0.52757161  1
  O2-  O449  1  0.42268043  0.29540994  0.85370714  1
  O2-  O450  1  0.42402467  0.58514368  0.18371009  1
  O2-  O451  1  0.38898109  0.59439230  0.52294879  1
  O2-  O452  1  0.42481245  0.59798864  0.84902532  1
  O2-  O453  1  0.42477522  0.84103712  0.18082391  1
  O2-  O454  1  0.41657262  0.82377566  0.53065865  1
  O2-  O455  1  0.42221767  0.84928668  0.85105469  1
  O2-  O456  1  0.67136648  0.08084693  0.19993069  1
  O2-  O457  1  0.69114582  0.01743733  0.46859739  1
  O2-  O458  1  0.65392742  0.09543906  0.84109879  1
  O2-  O459  1  0.66172757  0.33280091  0.17860199  1
  O2-  O460  1  0.67325862  0.32423301  0.53526682  1
  O2-  O461  1  0.68562724  0.34527325  0.83920373  1
  O2-  O462  1  0.68037118  0.59558573  0.19968678  1
  O2-  O463  1  0.68488043  0.57492225  0.51716811  1
  O2-  O464  1  0.66914014  0.59840749  0.84296206  1
  O2-  O465  1  0.67997783  0.83918662  0.17680467  1
  O2-  O466  1  0.66261208  0.85737334  0.51968736  1
  O2-  O467  1  0.65682703  0.83925908  0.84354313  1
  O2-  O468  1  0.91825540  0.08621475  0.19308515  1
  O2-  O469  1  0.92576988  0.09299887  0.52692427  1
  O2-  O470  1  0.92619426  0.06642885  0.85961958  1
  O2-  O471  1  0.92144670  0.33103301  0.19306200  1
  O2-  O472  1  0.92982481  0.33745169  0.52133121  1
  O2-  O473  1  0.91087466  0.33870391  0.85332438  1
  O2-  O474  1  0.92613233  0.58792629  0.18844044  1
  O2-  O475  1  0.92319299  0.57776754  0.52269564  1
  O2-  O476  1  0.90813697  0.58273812  0.82977841  1
  O2-  O477  1  0.94112069  0.83664518  0.18789203  1
  O2-  O478  1  0.92747175  0.83392322  0.52749211  1
  O2-  O479  1  0.89975712  0.82695508  0.86190354  1
  O2-  O480  1  0.18737894  0.09559488  0.33702802  1
  O2-  O481  1  0.16970289  0.08443813  0.64510639  1
  O2-  O482  1  0.19364562  0.11977194  0.99283776  1
  O2-  O483  1  0.18292603  0.34764492  0.30726799  1
  O2-  O484  1  0.19905916  0.40216524  0.62873319  1
  O2-  O485  1  0.17054251  0.34368600  0.98314486  1
  O2-  O486  1  0.16734209  0.58114234  0.30548873  1
  O2-  O487  1  0.15410140  0.58851513  0.65574000  1
  O2-  O488  1  0.16283161  0.57968550  0.98735266  1
  O2-  O489  1  0.17484998  0.82985447  0.32155628  1
  O2-  O490  1  0.16782358  0.82543914  0.63731052  1
  O2-  O491  1  0.15680929  0.84749723  0.98163734  1
  O2-  O492  1  0.40436373  0.07544054  0.30979981  1
  O2-  O493  1  0.41011595  0.07724845  0.64512048  1
  O2-  O494  1  0.34041880  0.04887656  0.98648890  1
  O2-  O495  1  0.34738298  0.32206810  0.32614061  1
  O2-  O496  1  0.40605113  0.32128251  0.64840664  1
  O2-  O497  1  0.40662998  0.31841246  0.98999582  1
  O2-  O498  1  0.41283544  0.58428631  0.29867578  1
  O2-  O499  1  0.42003217  0.59564154  0.64183432  1
  O2-  O500  1  0.43627084  0.62390654  0.97095068  1
  O2-  O501  1  0.42340709  0.83712872  0.30107649  1
  O2-  O502  1  0.42530934  0.84159933  0.65527375  1
  O2-  O503  1  0.43936925  0.84300634  0.96887373  1
  O2-  O504  1  0.66376903  0.05775099  0.32087162  1
  O2-  O505  1  0.67608714  0.08761099  0.64459794  1
  O2-  O506  1  0.73994538  0.09543049  1.00399935  1
  O2-  O507  1  0.66097797  0.36746895  0.33701091  1
  O2-  O508  1  0.67376130  0.32106720  0.60268607  1
  O2-  O509  1  0.67939975  0.32721232  0.95972098  1
  O2-  O510  1  0.68724321  0.59230538  0.31980601  1
  O2-  O511  1  0.67771956  0.59942010  0.64432680  1
  O2-  O512  1  0.67158704  0.57917575  0.96858314  1
  O2-  O513  1  0.64969646  0.80899855  0.30680524  1
  O2-  O514  1  0.67767746  0.84729836  0.64054686  1
  O2-  O515  1  0.62603009  0.80167222  0.97105940  1
  O2-  O516  1  0.87648589  0.07435692  0.31564596  1
  O2-  O517  1  0.92229189  0.08862699  0.64803398  1
  O2-  O518  1  0.92207733  0.09186022  0.98889001  1
  O2-  O519  1  0.92190517  0.33736002  0.31934291  1
  O2-  O520  1  0.92185530  0.33324743  0.64597723  1
  O2-  O521  1  0.91253679  0.32730894  0.98155273  1
  O2-  O522  1  0.92402769  0.58685964  0.30996077  1
  O2-  O523  1  0.91735227  0.58886888  0.64653031  1
  O2-  O524  1  0.92571741  0.58243642  0.99714191  1
  O2-  O525  1  0.94179481  0.84073563  0.31237626  1
  O2-  O526  1  0.92647439  0.84235751  0.65066506  1
  O2-  O527  1  0.89753362  0.81384447  0.98530334  1
  O2-  O528  1  0.08407030  0.18150904  0.02671255  1
  O2-  O529  1  0.11098581  0.18481208  0.35677163  1
  O2-  O530  1  0.08977501  0.16464640  0.69085855  1
  O2-  O531  1  0.07593524  0.41144106  0.02952910  1
  O2-  O532  1  0.09040960  0.42566770  0.35343223  1
  O2-  O533  1  0.08325774  0.42110171  0.69122440  1
  O2-  O534  1  0.09947226  0.67941657  0.03334103  1
  O2-  O535  1  0.09644012  0.66288433  0.34394518  1
  O2-  O536  1  0.07606640  0.67363815  0.67675454  1
  O2-  O537  1  0.05427646  0.90018473  0.02136392  1
  O2-  O538  1  0.09510094  0.91990358  0.36756478  1
  O2-  O539  1  0.10405910  0.92489806  0.68227100  1
  O2-  O540  1  0.31504630  0.18267607  0.07337931  1
  O2-  O541  1  0.34313133  0.16498856  0.37089123  1
  O2-  O542  1  0.32706935  0.15548927  0.68978382  1
  O2-  O543  1  0.34208262  0.41865580  0.02690569  1
  O2-  O544  1  0.34626634  0.40137812  0.34229717  1
  O2-  O545  1  0.34723921  0.43171180  0.68779611  1
  O2-  O546  1  0.30722680  0.59299724  0.03493366  1
  O2-  O547  1  0.33800891  0.67888949  0.33444908  1
  O2-  O548  1  0.30638827  0.62596565  0.70367686  1
  O2-  O549  1  0.35771415  0.91237374  0.02432429  1
  O2-  O550  1  0.34546508  0.91241076  0.35637881  1
  O2-  O551  1  0.33569276  0.91527565  0.69016469  1
  O2-  O552  1  0.59737244  0.14850164  -0.05651723  1
  O2-  O553  1  0.56963393  0.13224243  0.35001791  1
  O2-  O554  1  0.59482873  0.16374194  0.66361689  1
  O2-  O555  1  0.58279977  0.40444161  -0.04054918  1
  O2-  O556  1  0.52277297  0.39306158  0.37179808  1
  O2-  O557  1  0.56601864  0.34915736  0.66490729  1
  O2-  O558  1  0.58184517  0.64756536  0.02524861  1
  O2-  O559  1  0.56925552  0.64252533  0.35414947  1
  O2-  O560  1  0.58418340  0.67944916  0.67545988  1
  O2-  O561  1  0.60704703  0.92343661  0.02462927  1
  O2-  O562  1  0.57161718  0.88689400  0.34850339  1
  O2-  O563  1  0.59639626  0.93423604  0.68428173  1
  O2-  O564  1  0.82648055  0.15480374  0.02763574  1
  O2-  O565  1  0.81493095  0.19319313  0.38031978  1
  O2-  O566  1  0.83205824  0.16644396  0.68539874  1
  O2-  O567  1  0.83010765  0.40948862  0.02501217  1
  O2-  O568  1  0.84392006  0.42496736  0.36365543  1
  O2-  O569  1  0.83350543  0.41657513  0.66950997  1
  O2-  O570  1  0.83016655  0.65200093  0.02259529  1
  O2-  O571  1  0.85686816  0.67822563  0.35991148  1
  O2-  O572  1  0.83695068  0.67218044  0.68143015  1
  O2-  O573  1  0.90944664  0.94408248  0.04842897  1
  O2-  O574  1  0.84162491  0.90148265  0.35012716  1
  O2-  O575  1  0.84149715  0.92427168  0.68683578  1
