# generated using pymatgen
data_H2O
_symmetry_space_group_name_H-M   'P 1'
_cell_length_a   17.99140341
_cell_length_b   17.99163945
_cell_length_c   21.99828956
_cell_angle_alpha   89.97755897
_cell_angle_beta   90.01096296
_cell_angle_gamma   120.01673249
_symmetry_Int_Tables_number   1
_chemical_formula_structural   H2O
_chemical_formula_sum   'H384 O192'
_cell_volume   6165.69508158
_cell_formula_units_Z   192
loop_
 _symmetry_equiv_pos_site_id
 _symmetry_equiv_pos_as_xyz
  1  'x, y, z'
loop_
 _atom_type_symbol
 _atom_type_oxidation_number
  H+  1.0
  O2-  -2.0
loop_
 _atom_site_type_symbol
 _atom_site_label
 _atom_site_symmetry_multiplicity
 _atom_site_fract_x
 _atom_site_fract_y
 _atom_site_fract_z
 _atom_site_occupancy
  H+  H0  1  0.41441145  0.32750297  0.23296388  1
  H+  H1  1  0.39265726  0.51656053  0.17319825  1
  H+  H2  1  0.28151436  0.86530688  0.30863314  1
  H+  H3  1  0.88450817  0.20522013  -0.00051238  1
  H+  H4  1  0.12048941  0.22349790  0.01381657  1
  H+  H5  1  0.84146641  0.16713615  0.73520296  1
  H+  H6  1  0.34805358  0.22141487  0.69172897  1
  H+  H7  1  0.59119891  0.97519180  1.00693255  1
  H+  H8  1  0.13375453  0.60850762  0.66308150  1
  H+  H9  1  0.86072427  0.89047691  0.52188969  1
  H+  H10  1  0.64267150  0.51682759  0.32922453  1
  H+  H11  1  0.36984254  0.59326221  0.84039124  1
  H+  H12  1  0.35010524  0.63267881  -0.00784858  1
  H+  H13  1  0.33686082  0.84776592  0.68610210  1
  H+  H14  1  -0.01084895  0.63711411  0.49175291  1
  H+  H15  1  0.86039747  0.88210007  0.29987308  1
  H+  H16  1  0.13012145  0.97316593  0.17070001  1
  H+  H17  1  0.41410429  0.82745842  0.22129148  1
  H+  H18  1  0.15979891  0.64114047  0.49076016  1
  H+  H19  1  0.61456545  0.96375865  0.33772652  1
  H+  H20  1  0.86705852  0.22675372  0.67608840  1
  H+  H21  1  0.88593637  0.35802861  0.66686676  1
  H+  H22  1  0.86579188  0.72513487  0.34357732  1
  H+  H23  1  0.43608002  0.17387401  0.27716843  1
  H+  H24  1  0.35368094  0.38534435  0.48688239  1
  H+  H25  1  0.89588107  0.36578564  0.30848168  1
  H+  H26  1  0.03882908  0.66975396  0.34630359  1
  H+  H27  1  0.35880070  0.37721181  0.82890560  1
  H+  H28  1  0.88175884  0.52063119  0.84751935  1
  H+  H29  1  0.88827420  0.03000353  0.51849579  1
  H+  H30  1  1.01885163  0.14346701  0.49052108  1
  H+  H31  1  0.86568025  0.07526522  0.84901202  1
  H+  H32  1  0.77667936  0.40350645  0.17270484  1
  H+  H33  1  0.88555968  0.06190036  0.91630227  1
  H+  H34  1  0.52196042  0.38157336  0.16231328  1
  H+  H35  1  0.10011654  0.87817504  0.68171372  1
  H+  H36  1  0.33071533  0.01646894  0.38481211  1
  H+  H37  1  0.97974435  0.33878379  0.16672528  1
  H+  H38  1  0.22071372  0.85784117  -0.00452776  1
  H+  H39  1  0.63228542  0.77011793  0.51383663  1
  H+  H40  1  0.66303549  0.09075908  0.73485354  1
  H+  H41  1  0.85298825  0.13708086  0.34604102  1
  H+  H42  1  0.13244616  0.27056380  0.32398627  1
  H+  H43  1  0.89081110  0.11632697  0.66118846  1
  H+  H44  1  0.72291777  0.09218184  0.15867856  1
  H+  H45  1  0.77659683  0.63534136  0.16121724  1
  H+  H46  1  0.39654874  0.15254730  0.65644266  1
  H+  H47  1  0.88862215  0.36502695  0.51699573  1
  H+  H48  1  0.22708219  0.36246836  0.99432544  1
  H+  H49  1  0.88401745  0.59027506  0.69672702  1
  H+  H50  1  0.33622021  0.82190955  0.32029414  1
  H+  H51  1  0.84731565  0.50966544  0.54032813  1
  H+  H52  1  0.61044740  0.88668329  0.50193331  1
  H+  H53  1  0.25299338  0.62244063  0.82303331  1
  H+  H54  1  0.52356286  0.61493024  0.16710843  1
  H+  H55  1  0.35944050  0.21976062  0.83494855  1
  H+  H56  1  0.89664994  0.52693834  1.00711366  1
  H+  H57  1  0.15251592  0.77497227  0.17383247  1
  H+  H58  1  0.13565503  0.36520661  0.84002404  1
  H+  H59  1  0.38482844  0.77251915  0.16140231  1
  H+  H60  1  0.46724890  0.68588062  0.61366177  1
  H+  H61  1  0.08936653  0.41489587  0.09464984  1
  H+  H62  1  0.14798058  0.86043649  0.17884223  1
  H+  H63  1  0.27438542  0.13129936  0.16337095  1
  H+  H64  1  1.01484671  0.88662613  0.68216564  1
  H+  H65  1  0.60090881  0.62216917  0.83248343  1
  H+  H66  1  0.63611240  0.26945754  0.67267509  1
  H+  H67  1  0.63274491  0.02790041  0.50466326  1
  H+  H68  1  -0.02137901  0.86838391  0.00700395  1
  H+  H69  1  0.89089561  0.77460397  0.85457238  1
  H+  H70  1  0.52133711  0.15825527  0.67226127  1
  H+  H71  1  0.10775283  0.71439024  0.68222699  1
  H+  H72  1  0.16501273  0.07559063  0.90422539  1
  H+  H73  1  0.88768148  0.98700625  0.16607818  1
  H+  H74  1  0.22422752  0.36441108  0.83854425  1
  H+  H75  1  0.03344216  0.64139166  0.16065619  1
  H+  H76  1  0.48106993  0.11363218  0.84660126  1
  H+  H77  1  0.51489621  0.37530881  1.01307771  1
  H+  H78  1  0.88614477  0.11804586  0.50792114  1
  H+  H79  1  0.72421089  0.11582461  0.50383455  1
  H+  H80  1  0.88908161  0.19560298  0.83796055  1
  H+  H81  1  0.14480126  0.27939572  0.17672419  1
  H+  H82  1  0.59962903  -0.02959522  0.12215925  1
  H+  H83  1  0.39398364  0.60263706  0.32613764  1
  H+  H84  1  0.66575596  0.33032970  0.26108923  1
  H+  H85  1  0.10011176  0.13221949  0.33274800  1
  H+  H86  1  0.86468437  0.20630308  0.15268210  1
  H+  H87  1  0.14690521  -0.10509240  0.51363660  1
  H+  H88  1  0.39062871  0.36253418  0.67173978  1
  H+  H89  1  0.86246661  0.46024237  0.68787866  1
  H+  H90  1  0.89363553  0.11118189  0.16601213  1
  H+  H91  1  0.61947650  0.83984869  0.84686294  1
  H+  H92  1  0.82621260  0.90785976  0.24200457  1
  H+  H93  1  1.00369585  0.38931131  0.83088613  1
  H+  H94  1  1.03033538  0.14338672  0.17100303  1
  H+  H95  1  0.11055077  0.98599500  0.33546179  1
  H+  H96  1  0.35987798  0.25093633  0.50232868  1
  H+  H97  1  0.40174134  0.05920500  0.50193740  1
  H+  H98  1  0.11557134  0.39337102  0.49569443  1
  H+  H99  1  0.51617575  0.88041203  0.68082750  1
  H+  H100  1  0.63307888  0.35750043  0.16967226  1
  H+  H101  1  0.08181213  0.91058313  0.77548414  1
  H+  H102  1  0.27992919  0.62605907  0.33721332  1
  H+  H103  1  0.75473468  0.86773915  0.81924868  1
  H+  H104  1  0.27781214  0.38852832  0.16214828  1
  H+  H105  1  0.61750507  0.60917129  0.16759595  1
  H+  H106  1  0.86412131  0.63625587  0.83119858  1
  H+  H107  1  0.73970115  0.64125565  -0.00493687  1
  H+  H108  1  0.88125517  0.87590992  0.66624703  1
  H+  H109  1  0.61967131  0.23108602  0.83299116  1
  H+  H110  1  0.02033166  0.63519038  0.00945545  1
  H+  H111  1  0.88319942  0.38974404  0.02962919  1
  H+  H112  1  0.64597250  0.27561780  0.98602065  1
  H+  H113  1  0.33552686  0.98712314  0.64583425  1
  H+  H114  1  0.58379484  0.82255301  0.18992182  1
  H+  H115  1  0.39065921  0.11280624  0.84338806  1
  H+  H116  1  0.39913480  0.64357750  0.15020932  1
  H+  H117  1  0.50521636  0.89713573  0.11849791  1
  H+  H118  1  0.39217931  0.51350929  0.32317533  1
  H+  H119  1  0.20767625  0.11332600  0.31744715  1
  H+  H120  1  0.65929269  0.76151193  -0.00951719  1
  H+  H121  1  0.88001306  0.02199532  0.30891214  1
  H+  H122  1  0.75761100  0.38371820  0.83326411  1
  H+  H123  1  0.49568577  0.63964851  0.66205807  1
  H+  H124  1  0.14487156  0.36830388  0.17033916  1
  H+  H125  1  0.92469561  0.82510067  0.26502312  1
  H+  H126  1  0.11659519  0.47102207  0.33824464  1
  H+  H127  1  0.83222342  0.17015493  0.43685033  1
  H+  H128  1  0.72401027  0.61093742  0.84237857  1
  H+  H129  1  0.63594307  0.21246578  0.44336874  1
  H+  H130  1  0.23877309  0.60895909  0.50457596  1
  H+  H131  1  0.20684005  0.83760015  0.67737313  1
  H+  H132  1  0.96638508  0.11049869  0.32566931  1
  H+  H133  1  0.39454793  0.02647962  0.14602847  1
  H+  H134  1  0.52185856  0.53267485  0.03786078  1
  H+  H135  1  0.00740800  0.38491717  0.67515328  1
  H+  H136  1  0.14152207  0.76528550  0.84494086  1
  H+  H137  1  0.91058001  0.54303816  0.31582762  1
  H+  H138  1  0.97495695  0.86293179  0.32764933  1
  H+  H139  1  0.27328011  0.88858129  0.83760848  1
  H+  H140  1  0.63634914  0.08976253  0.30716067  1
  H+  H141  1  0.72375634  0.85364830  0.31137110  1
  H+  H142  1  0.59659542  0.13306199  0.68021292  1
  H+  H143  1  0.35830498  0.47723001  1.00606426  1
  H+  H144  1  0.86037877  0.28413504  0.85586247  1
  H+  H145  1  0.38237584  0.83981714  0.50275428  1
  H+  H146  1  0.36788324  0.13871867  0.14930063  1
  H+  H147  1  0.11994938  0.38815146  0.00180735  1
  H+  H148  1  0.36260394  0.76407223  -0.01133741  1
  H+  H149  1  0.86830280  0.67414734  0.65223375  1
  H+  H150  1  0.82393155  0.91932866  0.73213025  1
  H+  H151  1  0.13826430  0.80414095  0.51833054  1
  H+  H152  1  0.53830831  0.14293276  0.31872019  1
  H+  H153  1  0.32019748  0.11883503  0.36540566  1
  H+  H154  1  0.77131364  0.89047965  0.52216326  1
  H+  H155  1  0.63257664  0.27110896  0.51925311  1
  H+  H156  1  0.72368211  0.86583404  0.66423151  1
  H+  H157  1  0.11123213  0.72341367  0.00742954  1
  H+  H158  1  0.38769878  0.35988124  0.32713108  1
  H+  H159  1  0.11257655  0.47091191  0.15520702  1
  H+  H160  1  0.86511608  0.72927106  0.50273644  1
  H+  H161  1  0.63206751  0.36034047  0.51595858  1
  H+  H162  1  0.91769394  0.83496769  0.57698539  1
  H+  H163  1  0.65512665  0.13333235  0.86227200  1
  H+  H164  1  0.36620565  0.16680561  0.49514326  1
  H+  H165  1  0.98279739  0.35049355  1.00033117  1
  H+  H166  1  0.84407615  -0.04933849  0.83111435  1
  H+  H167  1  0.14351755  0.60601615  0.31866226  1
  H+  H168  1  0.87349994  0.37678514  0.85406402  1
  H+  H169  1  0.61152227  0.72727650  0.68549702  1
  H+  H170  1  0.37955265  -0.00771061  0.64413927  1
  H+  H171  1  0.46169480  0.85461183  0.84979474  1
  H+  H172  1  0.65195511  0.27705914  0.32213071  1
  H+  H173  1  0.13693690  1.01893254  -0.00006430  1
  H+  H174  1  0.60388073  0.79686160  0.25445306  1
  H+  H175  1  0.11785992  -0.03098789  0.83493024  1
  H+  H176  1  0.78523354  0.14189151  0.84308679  1
  H+  H177  1  0.85246502  0.43077856  0.24976333  1
  H+  H178  1  0.61566340  0.38050886  0.33891577  1
  H+  H179  1  0.36635619  0.85922350  -0.00719530  1
  H+  H180  1  0.54344628  0.14401606  0.13272770  1
  H+  H181  1  0.59821386  0.95440521  0.83935251  1
  H+  H182  1  0.15059528  0.08097555  0.14819576  1
  H+  H183  1  0.11053606  0.47336016  0.99700120  1
  H+  H184  1  0.13141629  0.27799284  0.50126058  1
  H+  H185  1  0.46476908  0.60565066  0.99193665  1
  H+  H186  1  0.86229998  0.22888548  0.34575021  1
  H+  H187  1  0.38420392  0.26853296  0.17272897  1
  H+  H188  1  0.27065729  0.62870841  0.67191183  1
  H+  H189  1  0.63703136  0.60757823  0.50844123  1
  H+  H190  1  0.21538527  0.75207334  0.46803872  1
  H+  H191  1  0.36895777  0.71679250  0.49462035  1
  H+  H192  1  0.27235390  0.89066121  0.15587712  1
  H+  H193  1  0.63571355  0.50908110  0.17440403  1
  H+  H194  1  0.14033272  0.52428741  0.50044151  1
  H+  H195  1  0.61868392  0.71700564  0.34435393  1
  H+  H196  1  0.97637874  0.86838900  0.51707910  1
  H+  H197  1  0.97917559  0.35965318  0.32543805  1
  H+  H198  1  0.21785658  0.10503368  0.66913710  1
  H+  H199  1  0.36483872  0.38367992  0.16100819  1
  H+  H200  1  1.08495185  0.42037767  0.43525116  1
  H+  H201  1  0.12859545  0.01584323  0.66581795  1
  H+  H202  1  0.22447197  0.60926025  0.16511156  1
  H+  H203  1  0.52467463  0.62911560  0.49351537  1
  H+  H204  1  0.62054220  0.47724130  0.49352910  1
  H+  H205  1  0.90100467  0.62501086  0.33364326  1
  H+  H206  1  0.11139789  0.13411767  0.67347140  1
  H+  H207  1  0.72797236  0.61153858  0.50816492  1
  H+  H208  1  0.63626254  0.52025624  0.84968569  1
  H+  H209  1  0.10522367  0.48059979  0.67604078  1
  H+  H210  1  0.72649891  0.11264508  0.68174905  1
  H+  H211  1  0.21052751  0.60958810  0.97745952  1
  H+  H212  1  0.87740611  0.78535733  0.67189222  1
  H+  H213  1  0.11416098  0.38177936  0.34167439  1
  H+  H214  1  0.59919406  0.06354056  0.99203139  1
  H+  H215  1  0.36488270  0.63828507  0.67106108  1
  H+  H216  1  0.64569958  0.27470858  0.16419139  1
  H+  H217  1  0.11205188  0.88277893  1.01295964  1
  H+  H218  1  0.85983251  0.98156254  0.67187211  1
  H+  H219  1  0.38109023  0.51366966  0.50346263  1
  H+  H220  1  0.66235544  0.07113667  0.91193909  1
  H+  H221  1  0.09744801  0.64502927  0.77947704  1
  H+  H222  1  0.64640372  0.51812670  0.66508510  1
  H+  H223  1  0.47869193  0.85593708  0.50735378  1
  H+  H224  1  0.37089591  0.47610548  0.67998145  1
  H+  H225  1  0.90387198  0.86695045  0.17610746  1
  H+  H226  1  0.27086332  0.38019678  0.33299200  1
  H+  H227  1  0.92121503  0.83712312  0.94648535  1
  H+  H228  1  1.02301628  0.62273378  0.68754420  1
  H+  H229  1  0.14281763  0.27064852  0.65382910  1
  H+  H230  1  0.38457653  0.76584300  0.66351133  1
  H+  H231  1  0.99650321  0.60323314  0.50561656  1
  H+  H232  1  0.53288815  0.87182686  0.34468217  1
  H+  H233  1  0.47328774  0.35831882  0.84549717  1
  H+  H234  1  0.76936872  0.63144710  0.67126134  1
  H+  H235  1  0.85133327  0.60009007  0.53683595  1
  H+  H236  1  0.64304868  0.60587137  0.32872012  1
  H+  H237  1  0.35918264  0.88909119  0.15108627  1
  H+  H238  1  0.64162915  0.85615923  0.34023184  1
  H+  H239  1  0.64252318  0.10589025  0.15725892  1
  H+  H240  1  0.33687387  0.41440683  0.73809542  1
  H+  H241  1  0.60554282  0.96963880  0.69040392  1
  H+  H242  1  0.87195814  0.73508013  0.01374149  1
  H+  H243  1  0.60423109  0.37819277  1.01048764  1
  H+  H244  1  0.63214100  0.86042582  0.67015660  1
  H+  H245  1  0.27130497  0.12790949  0.83779344  1
  H+  H246  1  0.40870556  0.74667868  0.31425580  1
  H+  H247  1  0.26681851  -0.12660938  0.48032457  1
  H+  H248  1  0.85677163  0.98092229  0.01855578  1
  H+  H249  1  0.10803789  0.14527174  0.49405668  1
  H+  H250  1  0.23173638  0.35823095  0.65369246  1
  H+  H251  1  0.37770818  0.26676271  0.99537798  1
  H+  H252  1  0.76237332  0.37791219  0.51112420  1
  H+  H253  1  0.57387794  0.13362756  0.38156103  1
  H+  H254  1  0.49184695  0.38218849  0.50583853  1
  H+  H255  1  0.49223653  0.14223103  0.49279980  1
  H+  H256  1  0.13939442  0.10990861  1.00032255  1
  H+  H257  1  0.61772895  0.38395511  0.68618129  1
  H+  H258  1  0.31662396  0.99976991  0.35273384  1
  H+  H259  1  0.12263204  0.60933817  -0.01391948  1
  H+  H260  1  0.03768105  0.88498355  0.16848325  1
  H+  H261  1  0.38217335  0.26961629  0.33104233  1
  H+  H262  1  0.86078026  0.22592660  0.49874984  1
  H+  H263  1  0.35942327  0.46716759  0.82942991  1
  H+  H264  1  0.42010908  0.57928915  0.56182518  1
  H+  H265  1  0.61329564  0.38544394  0.83643032  1
  H+  H266  1  0.62619327  0.13793558  0.49243762  1
  H+  H267  1  0.26845777  0.13213094  0.00725080  1
  H+  H268  1  0.11279660  -0.00386429  0.50252016  1
  H+  H269  1  0.22238325  0.13002107  0.51669529  1
  H+  H270  1  0.35379793  0.97179451  0.00068320  1
  H+  H271  1  0.86708903  0.89717707  0.01500247  1
  H+  H272  1  0.37551609  0.10195513  0.99608855  1
  H+  H273  1  0.37738988  0.86702473  0.84776884  1
  H+  H274  1  0.41573675  0.82577709  0.60446455  1
  H+  H275  1  0.10804544  0.83770203  0.35918253  1
  H+  H276  1  0.48603226  0.79232463  0.26642638  1
  H+  H277  1  0.66315001  0.33560326  0.78734872  1
  H+  H278  1  0.72969819  0.85784880  0.99583351  1
  H+  H279  1  0.46424460  0.60036308  0.84144347  1
  H+  H280  1  0.86785444  0.64249566  0.01128410  1
  H+  H281  1  0.12051789  0.22105287  0.82874687  1
  H+  H282  1  0.26258637  0.38305808  0.48935933  1
  H+  H283  1  0.98307636  0.85775556  0.85459750  1
  H+  H284  1  0.89462270  0.77312656  0.17293866  1
  H+  H285  1  0.09894975  0.17077305  0.07547147  1
  H+  H286  1  0.90060313  0.63421816  0.17459159  1
  H+  H287  1  0.14151680  0.10682481  0.84176118  1
  H+  H288  1  0.58887827  0.66160028  0.43717448  1
  H+  H289  1  0.72656941  0.18545993  0.96041876  1
  H+  H290  1  0.92235540  0.30687773  0.22637102  1
  H+  H291  1  0.66649102  0.33127303  0.61428711  1
  H+  H292  1  0.89409329  0.56686553  0.62882355  1
  H+  H293  1  0.83859458  0.91652413  0.11525327  1
  H+  H294  1  0.83900343  0.66876074  0.44326313  1
  H+  H295  1  0.16115141  0.57718978  0.60224352  1
  H+  H296  1  0.16633829  0.33090325  0.93546315  1
  H+  H297  1  0.92267029  0.09120822  0.60096200  1
  H+  H298  1  0.67856616  0.60988630  0.93472196  1
  H+  H299  1  0.93807880  0.61402484  0.23510448  1
  H+  H300  1  0.52589827  0.37989429  0.34145291  1
  H+  H301  1  0.39890580  0.83003073  0.92252639  1
  H+  H302  1  0.83596166  0.66956710  0.10107624  1
  H+  H303  1  0.31739099  0.64461743  0.76780273  1
  H+  H304  1  0.65317366  0.33034657  0.92857242  1
  H+  H305  1  0.53087001  0.62707465  0.34122141  1
  H+  H306  1  0.56792779  0.90175857  0.77707323  1
  H+  H307  1  0.02585305  0.13973822  0.67374186  1
  H+  H308  1  0.38029251  0.35782333  -0.00478660  1
  H+  H309  1  0.08892177  0.66353657  0.09920754  1
  H+  H310  1  0.32889951  0.16645766  0.06634922  1
  H+  H311  1  0.16807648  0.33406800  0.56295588  1
  H+  H312  1  0.33439154  0.41935260  0.06691511  1
  H+  H313  1  0.36396086  0.97894394  0.83299549  1
  H+  H314  1  0.40879254  0.07482996  0.93750809  1
  H+  H315  1  0.13724991  0.61246564  0.16771398  1
  H+  H316  1  0.80457591  0.86031983  0.41449983  1
  H+  H317  1  0.09537033  0.16671851  0.76809058  1
  H+  H318  1  0.39174086  0.07766744  0.29737021  1
  H+  H319  1  0.31072214  0.18025688  0.40974213  1
  H+  H320  1  0.31112267  0.87837722  0.74701367  1
  H+  H321  1  0.13954786  0.59611318  0.88935803  1
  H+  H322  1  0.61075693  0.61047410  0.01132749  1
  H+  H323  1  0.32493715  0.66001222  0.05237313  1
  H+  H324  1  0.66786722  0.57043221  0.23535385  1
  H+  H325  1  0.58300858  0.41903645  0.78093308  1
  H+  H326  1  0.12499097  0.69237015  0.43166941  1
  H+  H327  1  0.14188948  0.73407186  0.33707651  1
  H+  H328  1  0.79083323  0.40117069  0.30633202  1
  H+  H329  1  0.15780328  0.07739323  0.25348590  1
  H+  H330  1  0.29913010  0.85313347  0.41582904  1
  H+  H331  1  0.07723229  0.16514391  0.39480625  1
  H+  H332  1  0.65002229  0.04771295  0.24786823  1
  H+  H333  1  0.16069759  0.09061556  0.57474245  1
  H+  H334  1  0.40996923  0.32735690  0.90260184  1
  H+  H335  1  0.57454708  0.62388710  0.10152798  1
  H+  H336  1  0.32762114  0.41153647  0.39326985  1
  H+  H337  1  0.97623285  0.60271252  0.84837467  1
  H+  H338  1  0.58842709  0.41301409  0.43523786  1
  H+  H339  1  0.67318626  0.57278542  0.60280384  1
  H+  H340  1  0.06610404  0.42242046  0.74222436  1
  H+  H341  1  0.32555993  0.91161815  0.06092425  1
  H+  H342  1  0.92242957  0.33564353  0.60482934  1
  H+  H343  1  0.77271172  0.37197007  0.68378529  1
  H+  H344  1  0.09171554  0.91543172  0.07518906  1
  H+  H345  1  0.83649822  0.66964047  0.77299350  1
  H+  H346  1  0.86476635  0.49710473  0.17403981  1
  H+  H347  1  0.92170796  0.09317187  0.23160488  1
  H+  H348  1  0.41618918  0.31441137  0.62127560  1
  H+  H349  1  0.83361194  0.41541879  0.78197558  1
  H+  H350  1  0.57011874  0.66061337  0.74161369  1
  H+  H351  1  0.57921313  0.40886534  0.10068638  1
  H+  H352  1  0.43405791  0.14170008  0.59256928  1
  H+  H353  1  0.40818983  0.57790422  0.93030950  1
  H+  H354  1  0.77990298  0.63355143  0.34405561  1
  H+  H355  1  0.44430498  0.40713440  0.55533957  1
  H+  H356  1  0.44499965  0.72372232  0.10795927  1
  H+  H357  1  0.08723995  0.48186894  0.82593638  1
  H+  H358  1  0.81997794  0.90661385  0.40782056  1
  H+  H359  1  0.16162666  0.83487999  0.61418691  1
  H+  H360  1  0.08438201  0.93612765  0.44349292  1
  H+  H361  1  0.15879633  0.82614368  0.93775812  1
  H+  H362  1  0.17383698  0.57915443  0.25948031  1
  H+  H363  1  0.97936011  0.36857915  0.51109539  1
  H+  H364  1  0.62195320  0.17973979  0.08528464  1
  H+  H365  1  0.83722025  0.14501844  0.09341565  1
  H+  H366  1  0.52881969  0.38378914  0.68682049  1
  H+  H367  1  0.91366717  0.57892785  0.94354231  1
  H+  H368  1  0.82773232  0.42266545  0.45634273  1
  H+  H369  1  0.59832185  0.70956105  0.83471882  1
  H+  H370  1  0.66184509  0.81639864  0.90242720  1
  H+  H371  1  0.86548242  0.42914280  0.08872680  1
  H+  H372  1  0.42555695  0.57836549  0.23276977  1
  H+  H373  1  0.16667700  0.33498247  0.26624847  1
  H+  H374  1  0.36589348  0.62552656  0.49269911  1
  H+  H375  1  0.91449594  0.32720765  0.94769395  1
  H+  H376  1  0.13370843  0.85153176  0.84195617  1
  H+  H377  1  0.33767413  0.65544963  0.39807081  1
  H+  H378  1  0.44066017  0.09410964  0.19886458  1
  H+  H379  1  0.65436444  0.82594915  0.57550666  1
  H+  H380  1  0.12098271  0.14754657  0.18164772  1
  H+  H381  1  0.58417527  0.91505044  0.44033043  1
  H+  H382  1  0.58286441  0.16249273  0.77998322  1
  H+  H383  1  0.32109639  0.15402161  0.74542977  1
  O2-  O384  1  0.09391444  0.17595490  0.16010763  1
  O2-  O385  1  0.07938239  0.17390437  0.47386619  1
  O2-  O386  1  0.10086674  0.16307598  0.81273627  1
  O2-  O387  1  0.08921270  0.41151302  0.14017758  1
  O2-  O388  1  0.08675944  0.42595846  0.48082145  1
  O2-  O389  1  0.06250016  0.42132501  0.81232809  1
  O2-  O390  1  0.09321932  0.66375413  0.14483880  1
  O2-  O391  1  0.15568969  0.69847129  0.47187124  1
  O2-  O392  1  0.09534617  0.64448110  0.82521102  1
  O2-  O393  1  0.09795528  0.91255690  0.15342092  1
  O2-  O394  1  0.08605973  0.93470996  0.48847995  1
  O2-  O395  1  0.08752295  0.90781203  0.82047278  1
  O2-  O396  1  0.33506706  0.16964775  0.14532069  1
  O2-  O397  1  0.32876146  0.19167636  0.48648392  1
  O2-  O398  1  0.33168484  0.15875012  0.82086342  1
  O2-  O399  1  0.33853781  0.41819149  0.14624670  1
  O2-  O400  1  0.32325027  0.41475532  0.47215554  1
  O2-  O401  1  0.32919860  0.40757596  0.81174291  1
  O2-  O402  1  0.38865128  0.68441486  0.12529822  1
  O2-  O403  1  0.33490949  0.65626932  0.47855522  1
  O2-  O404  1  0.30954384  0.63101983  0.81186355  1
  O2-  O405  1  0.33110604  0.92107612  0.13543506  1
  O2-  O406  1  0.29622005  0.84511620  0.46074685  1
  O2-  O407  1  0.33298635  0.91641913  0.82117155  1
  O2-  O408  1  0.60707231  0.17636081  0.13040211  1
  O2-  O409  1  0.59916344  0.17671745  0.47637176  1
  O2-  O410  1  0.58965953  0.16617049  0.82478816  1
  O2-  O411  1  0.58261185  0.41225312  0.14760697  1
  O2-  O412  1  0.58693125  0.41465498  0.48084729  1
  O2-  O413  1  0.58028325  0.41626900  0.82624995  1
  O2-  O414  1  0.58354374  0.63784943  0.14792595  1
  O2-  O415  1  0.58670527  0.66195596  0.48266788  1
  O2-  O416  1  0.56656898  0.64889879  0.81855857  1
  O2-  O417  1  0.56096839  0.91764513  0.09876061  1
  O2-  O418  1  0.57961531  0.91614143  0.48577527  1
  O2-  O419  1  0.56451997  0.89650681  0.82285564  1
  O2-  O420  1  0.83239925  0.14432856  0.13823480  1
  O2-  O421  1  0.82917329  0.16622721  0.48348411  1
  O2-  O422  1  0.83630500  0.15951831  0.81552771  1
  O2-  O423  1  0.84059874  0.43391838  0.17242487  1
  O2-  O424  1  0.82536950  0.41141977  0.49983456  1
  O2-  O425  1  0.82760824  0.42065641  0.82631188  1
  O2-  O426  1  0.83679814  0.67008120  0.14722494  1
  O2-  O427  1  0.83368335  0.66812046  0.48834750  1
  O2-  O428  1  0.83171639  0.66486548  0.81758641  1
  O2-  O429  1  0.85575061  0.92329840  0.15885471  1
  O2-  O430  1  0.83452870  0.92739935  0.52315789  1
  O2-  O431  1  0.81298645  0.90264092  0.80200610  1
  O2-  O432  1  0.17831411  0.07748972  0.18533218  1
  O2-  O433  1  0.16127117  0.09624713  0.52906692  1
  O2-  O434  1  0.16881397  0.07380507  0.85884635  1
  O2-  O435  1  0.17670841  0.34154075  0.18951346  1
  O2-  O436  1  0.16475647  0.33856346  0.51674310  1
  O2-  O437  1  0.16498415  0.33571708  0.85610988  1
  O2-  O438  1  0.16766515  0.58074809  0.18368941  1
  O2-  O439  1  0.17584078  0.58635757  0.51619978  1
  O2-  O440  1  0.13799709  0.59516250  0.84275088  1
  O2-  O441  1  0.18294010  0.83358610  0.19125258  1
  O2-  O442  1  0.17837845  0.86438889  0.52752266  1
  O2-  O443  1  0.16695850  0.82486566  0.85947655  1
  O2-  O444  1  0.43109105  0.08980349  0.15472935  1
  O2-  O445  1  0.43214974  0.12134356  0.50693072  1
  O2-  O446  1  0.41892093  0.08009315  0.85767654  1
  O2-  O447  1  0.41501418  0.33000221  0.18778719  1
  O2-  O448  1  0.43323486  0.36274189  0.52544391  1
  O2-  O449  1  0.41083859  0.32707330  0.85684889  1
  O2-  O450  1  0.42854266  0.57844291  0.18697113  1
  O2-  O451  1  0.41660003  0.57518190  0.51652857  1
  O2-  O452  1  0.40369753  0.56734234  0.85750734  1
  O2-  O453  1  0.40065066  0.82967326  0.17789865  1
  O2-  O454  1  0.41740034  0.81812687  0.52209172  1
  O2-  O455  1  0.40221688  0.83175487  0.86571732  1
  O2-  O456  1  0.66098468  0.06432640  0.17008292  1
  O2-  O457  1  0.66210502  0.08998892  0.51555180  1
  O2-  O458  1  0.69589119  0.11813025  0.88205459  1
  O2-  O459  1  0.66653272  0.33096943  0.18585668  1
  O2-  O460  1  0.66158306  0.33119944  0.53486080  1
  O2-  O461  1  0.66841949  0.33473645  0.83145880  1
  O2-  O462  1  0.66557167  0.57101821  0.18955765  1
  O2-  O463  1  0.66657395  0.57533827  0.52123933  1
  O2-  O464  1  0.66507727  0.58291007  0.86015802  1
  O2-  O465  1  0.55778207  0.78129391  0.22306204  1
  O2-  O466  1  0.65601874  0.82940419  0.52989712  1
  O2-  O467  1  0.65159240  0.81014382  0.85712626  1
  O2-  O468  1  0.93027950  0.09017543  0.18673710  1
  O2-  O469  1  0.92265861  0.09464703  0.52346161  1
  O2-  O470  1  0.88696978  0.04463075  0.87363367  1
  O2-  O471  1  0.92080451  0.30052526  0.18163620  1
  O2-  O472  1  0.92123979  0.33642763  0.53002697  1
  O2-  O473  1  0.90346839  0.34273681  0.86680778  1
  O2-  O474  1  0.93379074  0.60692049  0.19015288  1
  O2-  O475  1  0.85105613  0.55700081  0.56531251  1
  O2-  O476  1  0.91676861  0.58246061  0.86148866  1
  O2-  O477  1  0.92987282  0.83187935  0.19073132  1
  O2-  O478  1  0.91655449  0.83118468  0.53146178  1
  O2-  O479  1  0.92585363  0.83079634  0.87431340  1
  O2-  O480  1  0.14970126  0.07781928  0.30029234  1
  O2-  O481  1  0.15950419  0.07619002  0.64989190  1
  O2-  O482  1  0.16725059  0.07804378  0.98222852  1
  O2-  O483  1  0.16593291  0.33262368  0.31199008  1
  O2-  O484  1  0.17428398  0.32916275  0.63509624  1
  O2-  O485  1  0.16593856  0.33220290  0.98082047  1
  O2-  O486  1  0.17559503  0.57848724  0.30539236  1
  O2-  O487  1  0.16024547  0.57402972  0.64714397  1
  O2-  O488  1  0.15004176  0.58065683  0.96290188  1
  O2-  O489  1  0.14381938  0.89935203  0.35003402  1
  O2-  O490  1  0.14884739  0.81980984  0.65751507  1
  O2-  O491  1  0.15834958  0.82582442  0.98317613  1
  O2-  O492  1  0.44466845  0.12456004  0.28014031  1
  O2-  O493  1  0.44974924  0.16679707  0.63339996  1
  O2-  O494  1  0.40028023  0.06636863  0.98211665  1
  O2-  O495  1  0.41816395  0.32830891  0.31443488  1
  O2-  O496  1  0.41928227  0.32731992  0.66465138  1
  O2-  O497  1  0.40987747  0.32750445  0.97957313  1
  O2-  O498  1  0.42573462  0.57488238  0.30936958  1
  O2-  O499  1  0.44346680  0.62930215  0.63253619  1
  O2-  O500  1  0.40581525  0.58219304  0.97633291  1
  O2-  O501  1  0.44571884  0.80222932  0.29290068  1
  O2-  O502  1  0.41635062  0.82714164  0.64964678  1
  O2-  O503  1  0.39474380  0.82579740  0.97545896  1
  O2-  O504  1  0.64546815  0.04324808  0.29314908  1
  O2-  O505  1  0.66324181  0.08218207  0.69105920  1
  O2-  O506  1  0.72770003  0.20587204  1.00224181  1
  O2-  O507  1  0.67240598  0.33582259  0.30691352  1
  O2-  O508  1  0.67080628  0.33149369  0.65945355  1
  O2-  O509  1  0.65396101  0.33202115  0.97287649  1
  O2-  O510  1  0.67383218  0.57639961  0.31240179  1
  O2-  O511  1  0.68043656  0.57665125  0.64757206  1
  O2-  O512  1  0.68582408  0.63445005  0.97666102  1
  O2-  O513  1  0.66058883  0.81866696  0.31943533  1
  O2-  O514  1  0.66112254  0.83043341  0.65274152  1
  O2-  O515  1  0.67219280  0.81858367  0.97778520  1
  O2-  O516  1  0.90766646  0.08557560  0.30788802  1
  O2-  O517  1  0.92179297  0.08694747  0.64656838  1
  O2-  O518  1  0.89738997  0.10309949  0.99320381  1
  O2-  O519  1  0.92062011  0.32706848  0.30775080  1
  O2-  O520  1  0.92253780  0.33365165  0.65090458  1
  O2-  O521  1  0.92048559  0.31330697  0.99033224  1
  O2-  O522  1  0.94152953  0.60729949  0.31627454  1
  O2-  O523  1  0.91350226  0.56671154  0.67263361  1
  O2-  O524  1  0.91745461  0.58531962  0.98854210  1
  O2-  O525  1  0.91674431  0.82683137  0.31049783  1
  O2-  O526  1  0.91233927  0.84356882  0.65451133  1
  O2-  O527  1  0.91776460  0.83876268  0.99271207  1
  O2-  O528  1  0.10052199  0.16572986  0.03093358  1
  O2-  O529  1  0.07394109  0.16547314  0.34931775  1
  O2-  O530  1  0.08714313  0.17044337  0.68737078  1
  O2-  O531  1  0.08796144  0.41699751  0.01753778  1
  O2-  O532  1  0.08531711  0.41356339  0.35743077  1
  O2-  O533  1  0.06931351  0.42105070  0.69522003  1
  O2-  O534  1  0.08243497  0.66225535  0.02224236  1
  O2-  O535  1  0.09512334  0.71097522  0.36677581  1
  O2-  O536  1  0.08554424  0.65435922  0.69768335  1
  O2-  O537  1  0.08585119  0.91596287  0.02989566  1
  O2-  O538  1  0.08274070  0.93017678  0.36035360  1
  O2-  O539  1  0.07584032  0.91415268  0.69652034  1
  O2-  O540  1  0.33014887  0.16531416  0.02092461  1
  O2-  O541  1  0.30979663  0.16720438  0.36524010  1
  O2-  O542  1  0.31826907  0.15874625  0.69981218  1
  O2-  O543  1  0.33256981  0.41719953  0.02149821  1
  O2-  O544  1  0.33191359  0.40960826  0.34808469  1
  O2-  O545  1  0.34144500  0.41583917  0.69185087  1
  O2-  O546  1  0.31656628  0.65959335  0.00797943  1
  O2-  O547  1  0.33978931  0.65324351  0.35279406  1
  O2-  O548  1  0.32956048  0.66158474  0.68892025  1
  O2-  O549  1  0.32348308  0.90846942  0.01512562  1
  O2-  O550  1  0.28803246  0.82671794  0.33657289  1
  O2-  O551  1  0.28822274  0.84479650  0.70898560  1
  O2-  O552  1  0.63741800  0.17578190  0.01266797  1
  O2-  O553  1  0.59221705  0.15990681  0.34137808  1
  O2-  O554  1  0.57431157  0.16945604  0.69596859  1
  O2-  O555  1  0.57382113  0.40574089  0.03027903  1
  O2-  O556  1  0.58610719  0.41003000  0.35702759  1
  O2-  O557  1  0.58949715  0.41647339  0.70063113  1
  O2-  O558  1  0.55390506  0.59530729  0.03659011  1
  O2-  O559  1  0.59027247  0.65554935  0.35820825  1
  O2-  O560  1  0.57198756  0.66606824  0.69630236  1
  O2-  O561  1  0.59391839  1.01126737  -0.02758108  1
  O2-  O562  1  0.59002340  0.90917090  0.36331922  1
  O2-  O563  1  0.57421026  0.90739731  0.70085564  1
  O2-  O564  1  0.85067419  0.14179145  0.01064942  1
  O2-  O565  1  0.83130032  0.17179824  0.36589267  1
  O2-  O566  1  0.83543956  0.16594147  0.69022417  1
  O2-  O567  1  0.87932571  0.43902880  0.04501235  1
  O2-  O568  1  0.85288436  0.43287412  0.29567165  1
  O2-  O569  1  0.83345712  0.39796371  0.69901468  1
  O2-  O570  1  0.83832364  0.67310605  0.02722273  1
  O2-  O571  1  0.83938711  0.66573526  0.36088533  1
  O2-  O572  1  0.83264023  0.66985387  0.68693672  1
  O2-  O573  1  0.83104646  0.92044394  0.03171481  1
  O2-  O574  1  0.82715956  0.91035301  0.28690735  1
  O2-  O575  1  0.82677614  0.92046820  0.68554144  1
