# generated using pymatgen
data_H2O
_symmetry_space_group_name_H-M   'P 1'
_cell_length_a   17.99031255
_cell_length_b   17.98760921
_cell_length_c   21.99648675
_cell_angle_alpha   89.98594093
_cell_angle_beta   90.01139468
_cell_angle_gamma   120.00750225
_symmetry_Int_Tables_number   1
_chemical_formula_structural   H2O
_chemical_formula_sum   'H384 O192'
_cell_volume   6164.00885372
_cell_formula_units_Z   192
loop_
 _symmetry_equiv_pos_site_id
 _symmetry_equiv_pos_as_xyz
  1  'x, y, z'
loop_
 _atom_type_symbol
 _atom_type_oxidation_number
  H+  1.0
  O2-  -2.0
loop_
 _atom_site_type_symbol
 _atom_site_label
 _atom_site_symmetry_multiplicity
 _atom_site_fract_x
 _atom_site_fract_y
 _atom_site_fract_z
 _atom_site_occupancy
  H+  H0  1  0.36946477  0.60880384  0.67260514  1
  H+  H1  1  0.12344092  0.11843040  0.50910158  1
  H+  H2  1  0.97655702  0.86327348  0.99261889  1
  H+  H3  1  0.98875339  0.61492986  0.83859784  1
  H+  H4  1  0.36101731  0.72361453  0.15585369  1
  H+  H5  1  0.61395403  0.47512909  0.15606176  1
  H+  H6  1  0.13005876  0.27202055  0.99879376  1
  H+  H7  1  0.68878437  0.34143770  0.92297562  1
  H+  H8  1  0.21663508  0.11294368  0.50721302  1
  H+  H9  1  0.11617159  0.85709423  0.50471352  1
  H+  H10  1  0.43915543  0.59799355  0.99661765  1
  H+  H11  1  0.63340115  0.35015514  0.66805105  1
  H+  H12  1  0.60935072  0.14754212  0.32775910  1
  H+  H13  1  0.35620580  0.48671273  0.82205889  1
  H+  H14  1  0.46681630  0.69655431  0.55228401  1
  H+  H15  1  0.84843581  0.12520080  0.66728262  1
  H+  H16  1  0.26075736  0.62721599  0.48709817  1
  H+  H17  1  0.01997630  0.38761915  0.00649479  1
  H+  H18  1  0.26987468  0.88347152  0.66645642  1
  H+  H19  1  0.48434681  0.85998962  0.15041061  1
  H+  H20  1  0.22339666  0.61668713  0.99232317  1
  H+  H21  1  0.89248620  0.61286090  -0.00916231  1
  H+  H22  1  0.67525828  0.85071308  0.26080504  1
  H+  H23  1  0.13080118  0.27288975  0.17674633  1
  H+  H24  1  0.12505122  1.01963780  0.33193405  1
  H+  H25  1  0.57403099  0.67308563  -0.02848280  1
  H+  H26  1  0.63935091  0.60638884  0.18242596  1
  H+  H27  1  0.73347745  0.36672695  0.83590493  1
  H+  H28  1  0.35359578  1.01404424  0.34656319  1
  H+  H29  1  0.88863194  0.36419034  -0.00061478  1
  H+  H30  1  0.63541487  0.05019571  0.61592030  1
  H+  H31  1  0.38481867  0.12183139  -0.00664068  1
  H+  H32  1  0.48486013  0.88599564  0.65608574  1
  H+  H33  1  0.37110244  1.01687709  0.68275132  1
  H+  H34  1  0.16154610  0.33395213  0.90248286  1
  H+  H35  1  -0.02355462  0.86372896  0.16456462  1
  H+  H36  1  0.77605230  0.63621541  0.15828503  1
  H+  H37  1  1.00445479  0.88091961  0.48629554  1
  H+  H38  1  0.10970397  0.47700511  0.00675278  1
  H+  H39  1  0.59098751  0.62256732  0.48562725  1
  H+  H40  1  0.88370973  0.78632394  0.50828958  1
  H+  H41  1  0.08091982  0.91467346  0.06039124  1
  H+  H42  1  0.76251422  0.61811971  0.33804325  1
  H+  H43  1  0.22504801  0.86664921  0.98475531  1
  H+  H44  1  1.00728223  0.63642542  0.33676056  1
  H+  H45  1  0.34333802  0.12296996  0.49267639  1
  H+  H46  1  0.05365835  0.39603832  0.10012073  1
  H+  H47  1  0.57478964  0.16312389  0.43028067  1
  H+  H48  1  0.92398066  0.58522101  0.56500164  1
  H+  H49  1  0.35550175  0.22916483  0.34729333  1
  H+  H50  1  0.12817911  0.10734599  0.16594534  1
  H+  H51  1  0.83604694  0.41873153  0.39893778  1
  H+  H52  1  0.10856728  0.97442303  0.15072185  1
  H+  H53  1  0.33797826  0.90083879  0.35403334  1
  H+  H54  1  0.63728850  0.77441380  0.50278166  1
  H+  H55  1  0.35936436  0.61205066  0.99385785  1
  H+  H56  1  1.02361812  0.14585551  0.16497787  1
  H+  H57  1  0.76194349  0.12960417  0.50144423  1
  H+  H58  1  0.47400642  0.10942896  0.84483768  1
  H+  H59  1  0.63939341  0.87163031  0.32169391  1
  H+  H60  1  0.87925302  0.11272306  0.50976289  1
  H+  H61  1  0.71895897  0.11292253  0.33228667  1
  H+  H62  1  0.74384062  0.89342115  0.00396942  1
  H+  H63  1  0.51435098  0.36921393  0.67804661  1
  H+  H64  1  0.01409581  0.13332643  0.50124272  1
  H+  H65  1  0.11359933  0.63996149  0.00235402  1
  H+  H66  1  0.98148194  0.62154343  0.16799812  1
  H+  H67  1  0.91535095  0.83566426  0.22392038  1
  H+  H68  1  0.88381321  0.11681581  0.33257865  1
  H+  H69  1  0.77249626  0.66129697  0.51712942  1
  H+  H70  1  0.88860605  0.11711411  0.99338879  1
  H+  H71  1  0.59761125  0.45756542  0.67414832  1
  H+  H72  1  0.52557764  0.38604927  0.15782401  1
  H+  H73  1  0.86740663  0.47489814  0.49280531  1
  H+  H74  1  0.62668178  0.10491742  0.51305640  1
  H+  H75  1  0.13177180  0.35735079  0.50128131  1
  H+  H76  1  0.63458814  0.26223515  0.66911556  1
  H+  H77  1  0.85476904  0.22469852  0.34596812  1
  H+  H78  1  0.74822755  0.88245667  0.16548667  1
  H+  H79  1  0.38218501  0.35982825  0.66029978  1
  H+  H80  1  0.13612565  1.02652506  -0.00683242  1
  H+  H81  1  0.02561988  0.14176795  0.00579808  1
  H+  H82  1  0.88506575  0.36648461  0.32812392  1
  H+  H83  1  0.86423555  0.47774666  0.33829442  1
  H+  H84  1  0.58099041  0.17508936  0.23487504  1
  H+  H85  1  0.58569562  0.62504018  0.66731508  1
  H+  H86  1  0.79751530  0.39857797  0.15681362  1
  H+  H87  1  0.45930631  0.10918962  0.69080466  1
  H+  H88  1  0.26851276  0.64316283  0.67366556  1
  H+  H89  1  0.16454009  0.64160408  0.82871786  1
  H+  H90  1  0.13311622  0.36507634  0.84414778  1
  H+  H91  1  0.37261322  0.07096232  0.25466978  1
  H+  H92  1  0.88502144  0.35958304  0.50397689  1
  H+  H93  1  0.83062128  0.87876082  0.82822636  1
  H+  H94  1  0.76098232  0.87347782  0.67402340  1
  H+  H95  1  0.66198551  0.29852988  0.18075219  1
  H+  H96  1  0.65506693  0.27760834  0.98574091  1
  H+  H97  1  0.87031104  0.47768221  0.82514839  1
  H+  H98  1  0.35642285  0.37639944  0.48724616  1
  H+  H99  1  0.64100057  0.01576967  0.16945579  1
  H+  H100  1  0.67945772  0.58913986  0.63519846  1
  H+  H101  1  0.35919093  0.72842810  0.68333722  1
  H+  H102  1  1.02596032  0.63319870  0.67170622  1
  H+  H103  1  0.90266835  0.11637536  0.83269554  1
  H+  H104  1  0.87183829  0.89571452  0.00890122  1
  H+  H105  1  0.77504329  0.89388043  0.33623902  1
  H+  H106  1  0.38583662  0.20764048  0.87594222  1
  H+  H107  1  0.08908147  0.67267949  0.42153644  1
  H+  H108  1  0.11119672  0.73282414  0.15828431  1
  H+  H109  1  0.52174875  0.65152694  0.48538859  1
  H+  H110  1  0.22097831  0.35646557  0.49814005  1
  H+  H111  1  0.14016003  0.38152200  0.32530829  1
  H+  H112  1  0.60207599  0.76437816  0.83291945  1
  H+  H113  1  0.89708551  0.78427101  0.66483221  1
  H+  H114  1  0.31718917  0.62324654  0.30737521  1
  H+  H115  1  0.11166852  0.72613800  0.67097439  1
  H+  H116  1  0.36750856  0.88325856  0.83683488  1
  H+  H117  1  0.89017004  0.61775971  0.16768001  1
  H+  H118  1  0.91646223  0.33367263  0.27140401  1
  H+  H119  1  0.97084494  0.35120991  0.65695517  1
  H+  H120  1  0.11449176  0.52847609  0.17690776  1
  H+  H121  1  0.62569414  1.01641831  0.51077569  1
  H+  H122  1  0.35940785  0.73068058  0.00633508  1
  H+  H123  1  0.87957738  0.86399569  0.32072905  1
  H+  H124  1  0.43641340  0.09816853  0.20054692  1
  H+  H125  1  0.40074563  0.31095080  0.83927889  1
  H+  H126  1  0.10841071  0.88456590  0.15534385  1
  H+  H127  1  0.63805011  0.77116100  0.65940427  1
  H+  H128  1  0.12558945  0.77523179  0.50995713  1
  H+  H129  1  1.08032246  0.16686898  0.77020785  1
  H+  H130  1  0.38729114  0.36638417  0.17308765  1
  H+  H131  1  0.36882443  1.01092670  0.50383921  1
  H+  H132  1  0.10595220  0.22325928  0.49679238  1
  H+  H133  1  0.88061046  0.48925476  0.15300947  1
  H+  H134  1  0.85577710  0.97916749  0.82232799  1
  H+  H135  1  0.36755228  0.72181452  0.32571542  1
  H+  H136  1  0.77276313  0.38079751  0.67605215  1
  H+  H137  1  0.34716475  0.13749779  0.16409779  1
  H+  H138  1  0.53173662  0.40578923  0.41363797  1
  H+  H139  1  0.34598500  -0.03505010  0.17818295  1
  H+  H140  1  1.01485674  0.12861316  0.34505151  1
  H+  H141  1  0.08003043  0.41554520  0.39939171  1
  H+  H142  1  0.21646704  0.09537999  0.82860106  1
  H+  H143  1  0.11776126  0.35383188  0.17494583  1
  H+  H144  1  0.73797757  0.61851492  0.83267483  1
  H+  H145  1  0.61474219  0.14102575  0.00557003  1
  H+  H146  1  0.11967933  -0.02017581  0.82857482  1
  H+  H147  1  0.87274263  0.73052790  0.83456747  1
  H+  H148  1  0.78136170  0.62768261  0.53050264  1
  H+  H149  1  0.72164382  0.86671350  0.50340147  1
  H+  H150  1  0.10663617  0.13651252  0.67435474  1
  H+  H151  1  0.01671063  0.37672385  0.49262150  1
  H+  H152  1  0.35181024  0.46906181  0.67314621  1
  H+  H153  1  0.02127804  0.38790318  0.33946765  1
  H+  H154  1  0.77804125  0.38562529  0.49631823  1
  H+  H155  1  0.10928833  0.22362630  0.83070783  1
  H+  H156  1  0.90520737  0.24218108  0.81798279  1
  H+  H157  1  0.64296698  0.10451276  0.18241609  1
  H+  H158  1  0.41320359  0.61618578  0.33423394  1
  H+  H159  1  0.37263648  -0.01722706  0.84179576  1
  H+  H160  1  0.38650054  0.27819132  0.17239569  1
  H+  H161  1  0.34084137  0.15821963  0.59037070  1
  H+  H162  1  0.98165645  0.61328076  0.99197765  1
  H+  H163  1  0.39560771  0.39506944  0.83732228  1
  H+  H164  1  0.61337506  0.22337848  0.83605957  1
  H+  H165  1  0.31501110  0.16204337  0.43685013  1
  H+  H166  1  0.35965475  0.46597935  0.48570873  1
  H+  H167  1  0.38006981  0.61042565  0.17260780  1
  H+  H168  1  0.94171739  0.88364006  0.85100558  1
  H+  H169  1  0.40791817  0.07295546  0.56102016  1
  H+  H170  1  0.41414550  0.58102014  0.23109456  1
  H+  H171  1  0.43839549  0.34509043  0.27199439  1
  H+  H172  1  0.12607398  0.36159354  0.99874973  1
  H+  H173  1  0.98891414  0.60733262  0.51075325  1
  H+  H174  1  0.89594508  0.61115500  0.66169197  1
  H+  H175  1  0.98099821  0.37596726  0.85684357  1
  H+  H176  1  0.10451093  0.88912604  0.33290382  1
  H+  H177  1  0.77474952  0.13839926  0.01073270  1
  H+  H178  1  0.11096022  0.88802272  -0.00068888  1
  H+  H179  1  0.35988824  0.88512128  0.16600875  1
  H+  H180  1  0.95762512  0.41478825  0.15761998  1
  H+  H181  1  0.27023954  0.39293871  0.82760781  1
  H+  H182  1  0.87716073  0.60965378  0.31744950  1
  H+  H183  1  0.84970880  -0.06373510  0.10165763  1
  H+  H184  1  0.59304426  -0.00333277  0.84561960  1
  H+  H185  1  0.36773328  0.76753304  0.83797200  1
  H+  H186  1  0.87006880  0.48201452  1.00366560  1
  H+  H187  1  0.47716257  0.36222886  0.99503960  1
  H+  H188  1  0.58439703  0.88487107  0.80748804  1
  H+  H189  1  0.37501760  0.86283925  0.50445500  1
  H+  H190  1  0.34236192  0.20364049  0.87874323  1
  H+  H191  1  0.63742562  0.89637987  0.14373142  1
  H+  H192  1  0.59611568  0.48486072  0.31835074  1
  H+  H193  1  0.36217262  0.88885855  0.66657347  1
  H+  H194  1  0.87879472  -0.01071919  1.00621302  1
  H+  H195  1  0.91247355  0.84246253  0.60510793  1
  H+  H196  1  0.60786502  0.82282762  0.88875685  1
  H+  H197  1  0.88761280  0.51784489  0.65919181  1
  H+  H198  1  1.01410166  0.88844428  0.32853282  1
  H+  H199  1  0.58405238  0.41820582  0.06033265  1
  H+  H200  1  0.63738271  0.03358242  1.02186292  1
  H+  H201  1  0.59876431  0.12689833  0.84176036  1
  H+  H202  1  0.33933949  0.09059501  0.81856422  1
  H+  H203  1  0.13481458  0.02625452  0.65822388  1
  H+  H204  1  0.47642328  0.86437230  0.98823613  1
  H+  H205  1  0.88758897  0.77241449  0.99625414  1
  H+  H206  1  0.60806986  0.97814682  0.34205011  1
  H+  H207  1  0.60768800  0.23772921  0.32782199  1
  H+  H208  1  0.62071777  0.73465805  0.33073552  1
  H+  H209  1  0.13549991  0.77593956  0.98740808  1
  H+  H210  1  0.50024546  0.36697324  0.47942187  1
  H+  H211  1  0.61546716  0.63877489  0.82201867  1
  H+  H212  1  0.96011964  0.75844430  0.44938392  1
  H+  H213  1  0.21922547  0.85764085  0.17699803  1
  H+  H214  1  0.12787050  0.78008798  0.32894760  1
  H+  H215  1  0.11639657  0.11358246  0.34173885  1
  H+  H216  1  0.24316987  0.38072154  0.01070704  1
  H+  H217  1  0.85733614  0.98123904  0.49202756  1
  H+  H218  1  0.65673921  0.79290072  0.16498224  1
  H+  H219  1  0.49087006  0.85847690  0.32083282  1
  H+  H220  1  0.64372486  0.36745581  0.84148542  1
  H+  H221  1  0.65181526  0.38028716  0.16788674  1
  H+  H222  1  0.12585513  0.73442405  0.82263351  1
  H+  H223  1  0.59099849  0.11603384  0.68388450  1
  H+  H224  1  0.10527860  0.22368007  0.67226911  1
  H+  H225  1  0.87299515  0.86964992  0.50891442  1
  H+  H226  1  0.24544445  0.38997710  0.32606519  1
  H+  H227  1  0.13194187  0.86353354  0.66361703  1
  H+  H228  1  0.35858029  0.97940313  -0.00473732  1
  H+  H229  1  0.38281173  0.27147896  0.64761547  1
  H+  H230  1  0.88055663  1.01902912  0.66387593  1
  H+  H231  1  0.78424646  0.63521369  0.00015381  1
  H+  H232  1  0.88872521  0.36437604  0.84411671  1
  H+  H233  1  0.89208943  0.12520451  0.17881451  1
  H+  H234  1  0.51414279  0.88252539  0.49229679  1
  H+  H235  1  0.09588652  0.63571709  0.33437469  1
  H+  H236  1  0.58275261  0.48662090  0.48987859  1
  H+  H237  1  0.59094004  0.68378206  0.21793380  1
  H+  H238  1  0.17535675  0.72136602  0.45785762  1
  H+  H239  1  0.88152367  0.64426113  0.83196848  1
  H+  H240  1  0.13291867  0.60433356  0.49965972  1
  H+  H241  1  0.20773689  0.61676245  0.33044090  1
  H+  H242  1  0.64768948  0.91237570  1.04441696  1
  H+  H243  1  0.57734845  0.66242339  0.76386922  1
  H+  H244  1  0.46147684  0.85464256  0.82575663  1
  H+  H245  1  0.50615955  0.63836252  0.67584957  1
  H+  H246  1  0.53566784  0.40302355  0.83194994  1
  H+  H247  1  0.87851770  0.26432148  0.65770250  1
  H+  H248  1  0.75344000  0.37261657  -0.00893691  1
  H+  H249  1  0.22520144  0.11424310  0.64574622  1
  H+  H250  1  0.86444678  0.98218096  0.33851948  1
  H+  H251  1  0.33490782  0.47902221  1.00958166  1
  H+  H252  1  0.15384475  0.83196534  0.60241829  1
  H+  H253  1  0.04646131  0.87966568  0.83032755  1
  H+  H254  1  0.11496210  0.14206855  0.00723760  1
  H+  H255  1  0.64453668  0.27812339  0.51041296  1
  H+  H256  1  0.75299835  0.15551130  0.80910969  1
  H+  H257  1  0.21696780  0.11034364  0.16130673  1
  H+  H258  1  0.36663149  0.23221174  0.00372188  1
  H+  H259  1  0.49834014  0.61530914  0.32132202  1
  H+  H260  1  0.72811193  0.13820441  0.77998570  1
  H+  H261  1  0.22332497  0.35565550  0.65553518  1
  H+  H262  1  0.85889249  0.88218148  0.68034029  1
  H+  H263  1  0.86222213  0.38200933  0.67240541  1
  H+  H264  1  0.26002543  0.88746243  0.49997114  1
  H+  H265  1  0.13524416  0.50283506  0.83306136  1
  H+  H266  1  0.96895193  0.10891941  0.66383894  1
  H+  H267  1  0.26807881  0.63637645  0.15965501  1
  H+  H268  1  0.35158726  0.47491502  0.16029353  1
  H+  H269  1  0.36676633  0.47904810  0.33294352  1
  H+  H270  1  0.80002101  0.65020259  0.68685052  1
  H+  H271  1  0.61488103  0.47436935  1.00015709  1
  H+  H272  1  0.87499433  0.77267499  0.31629655  1
  H+  H273  1  0.85153821  0.21944069  0.49792556  1
  H+  H274  1  0.15602850  0.87211855  0.83597293  1
  H+  H275  1  0.66092469  0.62047347  0.98362452  1
  H+  H276  1  0.10598196  0.46628479  0.49311466  1
  H+  H277  1  0.47523633  0.12280599  -0.00925897  1
  H+  H278  1  0.72785540  0.37653381  0.32869659  1
  H+  H279  1  0.38826442  0.64172574  0.51022792  1
  H+  H280  1  0.27650206  0.14199902  0.00533904  1
  H+  H281  1  0.11740426  0.38226786  0.65480008  1
  H+  H282  1  0.65587607  0.80714696  0.00201812  1
  H+  H283  1  0.02543676  0.89829210  0.67425250  1
  H+  H284  1  0.27442420  0.88663416  0.83833647  1
  H+  H285  1  0.64901039  0.52908435  0.83300339  1
  H+  H286  1  0.51310340  0.13134528  0.48703173  1
  H+  H287  1  0.47181240  0.61127458  0.83551833  1
  H+  H288  1  0.07202399  0.15350904  0.40675771  1
  H+  H289  1  0.77959004  0.13391422  0.16658222  1
  H+  H290  1  0.86312409  0.68101480  0.74167444  1
  H+  H291  1  0.28476144  0.64992306  0.77912555  1
  H+  H292  1  0.08940804  0.92645128  0.73164495  1
  H+  H293  1  0.83820346  0.16782975  0.10808390  1
  H+  H294  1  0.41653082  0.34242255  0.93843743  1
  H+  H295  1  0.57120272  0.94046063  0.75281158  1
  H+  H296  1  0.32599120  0.66957114  0.06657082  1
  H+  H297  1  0.63800698  0.05936278  0.95125446  1
  H+  H298  1  0.31988760  0.08990217  0.75022109  1
  H+  H299  1  0.44215863  0.83147609  0.21590176  1
  H+  H300  1  0.91384454  0.33040817  0.94011186  1
  H+  H301  1  0.35866516  0.89075289  -0.00633033  1
  H+  H302  1  0.87221358  0.18411253  0.75829684  1
  H+  H303  1  0.52173799  0.63818184  0.16911194  1
  H+  H304  1  0.83006690  0.92225528  0.43149461  1
  H+  H305  1  0.87423706  0.89839595  0.15918800  1
  H+  H306  1  0.32338949  0.41042676  0.73188238  1
  H+  H307  1  0.66694710  0.55825895  0.23194732  1
  H+  H308  1  0.89668797  0.83147351  0.91046098  1
  H+  H309  1  0.10055410  0.41298416  0.71603916  1
  H+  H310  1  0.60356820  0.54250061  0.59012197  1
  H+  H311  1  0.06130449  0.44573337  0.78847155  1
  H+  H312  1  0.60372451  0.88210174  0.49437055  1
  H+  H313  1  0.83845506  0.41578639  0.76654397  1
  H+  H314  1  0.83846884  0.66509225  0.06267960  1
  H+  H315  1  0.41947997  0.83056639  0.92831568  1
  H+  H316  1  0.37369100  0.77364280  0.50093681  1
  H+  H317  1  0.75814132  0.12067744  0.67714510  1
  H+  H318  1  0.33515704  0.17272978  0.09927587  1
  H+  H319  1  0.40507433  0.58632315  0.89013935  1
  H+  H320  1  0.58681391  0.41345111  0.77061692  1
  H+  H321  1  0.15573696  0.08445445  0.57235137  1
  H+  H322  1  0.91212450  0.32761844  0.56382809  1
  H+  H323  1  0.82150778  0.91216308  0.74953785  1
  H+  H324  1  0.40795181  0.33139507  0.56378551  1
  H+  H325  1  0.21616688  0.11612350  0.33707233  1
  H+  H326  1  0.90953497  0.66439200  0.47717957  1
  H+  H327  1  0.58509151  0.66923875  0.04236586  1
  H+  H328  1  0.97679626  0.09799895  0.84191428  1
  H+  H329  1  0.44775558  0.10637207  0.33433493  1
  H+  H330  1  0.57756378  0.15901575  0.74295758  1
  H+  H331  1  0.68151665  0.07707140  0.86109488  1
  H+  H332  1  0.42017774  0.83718875  0.60114832  1
  H+  H333  1  0.08587183  0.67232597  0.06201683  1
  H+  H334  1  0.08169239  0.17470885  0.10413634  1
  H+  H335  1  0.13889772  0.52563744  0.65227370  1
  H+  H336  1  0.86265193  0.72827741  0.15522097  1
  H+  H337  1  0.86377597  0.22650978  0.01072568  1
  H+  H338  1  0.11376240  0.64512989  0.15736906  1
  H+  H339  1  0.40341564  0.85301544  0.30117829  1
  H+  H340  1  0.40070470  0.58774478  0.61056334  1
  H+  H341  1  0.92815612  0.58386782  0.89794698  1
  H+  H342  1  0.91423899  0.58167586  0.26102298  1
  H+  H343  1  0.17164562  0.83477466  0.89899912  1
  H+  H344  1  0.16638635  0.32507480  0.59375463  1
  H+  H345  1  0.35998455  0.12957385  0.65454338  1
  H+  H346  1  0.31231555  0.41880176  0.07486650  1
  H+  H347  1  0.16675659  0.08538621  0.93424118  1
  H+  H348  1  0.09356345  0.67270098  0.76336152  1
  H+  H349  1  0.55497473  0.16391808  0.16426850  1
  H+  H350  1  0.26058603  0.38627432  0.16137599  1
  H+  H351  1  0.31206322  0.91907685  0.43531710  1
  H+  H352  1  0.82246007  0.16342431  0.40477551  1
  H+  H353  1  0.41345047  0.08152344  0.90525678  1
  H+  H354  1  0.90921309  0.08041690  0.56834306  1
  H+  H355  1  0.66929941  0.57176734  0.50942185  1
  H+  H356  1  0.68258944  0.58549644  0.92403747  1
  H+  H357  1  0.67699832  0.32928084  0.57216596  1
  H+  H358  1  0.05770909  0.89764188  0.42242254  1
  H+  H359  1  0.13585008  0.61383806  0.65550087  1
  H+  H360  1  0.89598876  0.03753237  0.17942441  1
  H+  H361  1  0.66392273  0.07537645  0.27171549  1
  H+  H362  1  0.36896491  0.26295274  0.50827537  1
  H+  H363  1  0.16867907  0.34825462  0.26311770  1
  H+  H364  1  0.91842948  0.09353785  0.27186751  1
  H+  H365  1  0.15582423  0.83237096  0.23372993  1
  H+  H366  1  0.32711407  0.41453186  0.39072285  1
  H+  H367  1  0.15868269  0.58781164  0.23293584  1
  H+  H368  1  0.16296126  0.57983855  0.56180761  1
  H+  H369  1  0.17423530  0.59287569  0.92980930  1
  H+  H370  1  0.67467716  0.83255266  0.60055248  1
  H+  H371  1  0.59190990  0.67250214  0.38800952  1
  H+  H372  1  0.34556138  0.13573171  0.34841564  1
  H+  H373  1  0.13518430  0.11016977  0.83654353  1
  H+  H374  1  0.84057929  0.66997606  0.38610429  1
  H+  H375  1  0.21594790  0.87295784  0.33559600  1
  H+  H376  1  0.12406118  0.52337911  0.32913683  1
  H+  H377  1  0.58930471  0.18936510  0.05499948  1
  H+  H378  1  0.32171583  0.65790710  0.42761775  1
  H+  H379  1  0.84104734  0.42354638  0.06553592  1
  H+  H380  1  0.91691268  0.08596379  0.93299395  1
  H+  H381  1  0.66981165  0.46639230  0.30617133  1
  H+  H382  1  0.57762507  0.91332067  0.39946952  1
  H+  H383  1  0.67913926  0.35987169  0.26612935  1
  O2-  O384  1  0.08443479  0.17660650  0.14932880  1
  O2-  O385  1  0.07541845  0.16016293  0.48610366  1
  O2-  O386  1  0.08277010  0.16349923  0.81541673  1
  O2-  O387  1  0.03340643  0.36711466  0.14068189  1
  O2-  O388  1  0.07738705  0.40651101  0.47669933  1
  O2-  O389  1  0.09237513  0.44129821  0.82326436  1
  O2-  O390  1  0.08275681  0.67315207  0.14008652  1
  O2-  O391  1  0.11412709  0.68251320  0.46480454  1
  O2-  O392  1  0.09757898  0.67319532  0.80904093  1
  O2-  O393  1  0.07717079  0.91195010  0.13691729  1
  O2-  O394  1  0.04793596  0.87267691  0.46433095  1
  O2-  O395  1  0.09963881  0.92027580  0.81010493  1
  O2-  O396  1  0.32964581  0.17595581  0.14437770  1
  O2-  O397  1  0.31199618  0.15465880  0.48290468  1
  O2-  O398  1  0.29875029  0.09473403  0.79029677  1
  O2-  O399  1  0.31972138  0.41537121  0.14314303  1
  O2-  O400  1  0.32719839  0.40761982  0.46981473  1
  O2-  O401  1  0.32829588  0.42406604  0.80889747  1
  O2-  O402  1  0.32768633  0.66167126  0.14342127  1
  O2-  O403  1  0.32155585  0.66324111  0.47213835  1
  O2-  O404  1  0.28533068  0.65948329  0.82404989  1
  O2-  O405  1  0.32059426  0.90745709  0.15949030  1
  O2-  O406  1  0.31906806  0.91501781  0.48274302  1
  O2-  O407  1  0.33893815  0.91890870  0.82614531  1
  O2-  O408  1  0.60229804  0.17994482  0.19253288  1
  O2-  O409  1  0.57434262  0.16042520  0.47485704  1
  O2-  O410  1  0.57723751  0.16286443  0.82255044  1
  O2-  O411  1  0.58546257  0.41437352  0.14154037  1
  O2-  O412  1  0.55274758  0.40591539  0.45639877  1
  O2-  O413  1  0.59459828  0.42178437  0.81576315  1
  O2-  O414  1  0.58567196  0.67214889  0.17423822  1
  O2-  O415  1  0.57967164  0.66837280  0.46983660  1
  O2-  O416  1  0.57871904  0.66288326  0.80932318  1
  O2-  O417  1  0.59947077  0.92005830  0.12760524  1
  O2-  O418  1  0.57473240  0.91263932  0.47727212  1
  O2-  O419  1  0.55734525  0.92048375  0.79732261  1
  O2-  O420  1  0.83996199  0.16840952  0.15307152  1
  O2-  O421  1  0.82126602  0.15828051  0.48386473  1
  O2-  O422  1  0.90974561  0.19794649  0.79436197  1
  O2-  O423  1  0.85586988  0.42841314  0.13810378  1
  O2-  O424  1  0.83772696  0.41503814  0.47747853  1
  O2-  O425  1  0.83769072  0.41614992  0.81230733  1
  O2-  O426  1  0.83516988  0.66728251  0.14080069  1
  O2-  O427  1  0.90222179  0.70733109  0.45353123  1
  O2-  O428  1  0.85116324  0.67382577  0.81465299  1
  O2-  O429  1  0.84651272  0.93296737  0.14718937  1
  O2-  O430  1  0.82630624  0.92053472  0.47707235  1
  O2-  O431  1  0.81805878  0.91867010  0.80512680  1
  O2-  O432  1  0.15622416  0.07282165  0.17331244  1
  O2-  O433  1  0.15557900  0.08689681  0.52466824  1
  O2-  O434  1  0.16169290  0.07601797  0.85154624  1
  O2-  O435  1  0.15798377  0.33533318  0.19057709  1
  O2-  O436  1  0.16196204  0.32622548  0.51572155  1
  O2-  O437  1  0.16156203  0.33300080  0.85719685  1
  O2-  O438  1  0.16091677  0.58695802  0.18768347  1
  O2-  O439  1  0.16098123  0.57302034  0.51619086  1
  O2-  O440  1  0.19543824  0.61064175  0.84516420  1
  O2-  O441  1  0.15639514  0.82981505  0.18845819  1
  O2-  O442  1  0.15093469  0.83457003  0.52532221  1
  O2-  O443  1  0.18070732  0.83750335  0.85268174  1
  O2-  O444  1  0.37521413  0.07076343  0.20828643  1
  O2-  O445  1  0.40050667  0.07453285  0.51710905  1
  O2-  O446  1  0.41361479  0.07229408  0.85966308  1
  O2-  O447  1  0.41970752  0.33894846  0.18760243  1
  O2-  O448  1  0.40023935  0.32504806  0.51855837  1
  O2-  O449  1  0.43182697  0.37054784  0.85290276  1
  O2-  O450  1  0.41094778  0.57963791  0.18570631  1
  O2-  O451  1  0.43382943  0.63887350  0.53517049  1
  O2-  O452  1  0.40974083  0.58410625  0.84580626  1
  O2-  O453  1  0.42868285  0.83016782  0.17208740  1
  O2-  O454  1  0.40675267  0.83276429  0.51723625  1
  O2-  O455  1  0.40721550  0.82755254  0.85122343  1
  O2-  O456  1  0.66984399  0.07022604  0.19335986  1
  O2-  O457  1  0.65505881  0.07437913  0.53021464  1
  O2-  O458  1  0.62128699  0.04980438  0.87333286  1
  O2-  O459  1  0.69149009  0.36132171  0.18553100  1
  O2-  O460  1  0.68289806  0.33536145  0.52735904  1
  O2-  O461  1  0.67500148  0.33703468  0.85545895  1
  O2-  O462  1  0.67166522  0.57577044  0.18808553  1
  O2-  O463  1  0.60710774  0.54424354  0.51543431  1
  O2-  O464  1  0.67754907  0.59035994  0.84706768  1
  O2-  O465  1  0.68474618  0.85365726  0.17758689  1
  O2-  O466  1  0.66210829  0.83317276  0.52037005  1
  O2-  O467  1  0.61553447  0.82327471  0.84490365  1
  O2-  O468  1  0.92497276  0.09703469  0.19596421  1
  O2-  O469  1  0.91212295  0.08374258  0.52287900  1
  O2-  O470  1  0.91478339  0.07266377  0.85284089  1
  O2-  O471  1  1.01247653  0.42417346  0.17562865  1
  O2-  O472  1  0.91366535  0.32690345  0.51840612  1
  O2-  O473  1  0.91914105  0.33636192  0.86324941  1
  O2-  O474  1  0.92068888  0.58781420  0.18326889  1
  O2-  O475  1  0.92861215  0.58735163  0.51946495  1
  O2-  O476  1  0.92771870  0.58517897  0.85222342  1
  O2-  O477  1  0.91472227  0.83491057  0.17852168  1
  O2-  O478  1  0.90511911  0.84284848  0.52789216  1
  O2-  O479  1  0.88970362  0.83204472  0.86394688  1
  O2-  O480  1  0.15411457  0.08425998  0.32347756  1
  O2-  O481  1  0.16121963  0.08580114  0.63997897  1
  O2-  O482  1  0.16655689  0.08778056  0.97938089  1
  O2-  O483  1  0.17578356  0.35656358  0.30907476  1
  O2-  O484  1  0.16296062  0.32553866  0.63918444  1
  O2-  O485  1  0.15997532  0.33409227  0.98412471  1
  O2-  O486  1  0.14987603  0.58364781  0.31269641  1
  O2-  O487  1  0.16811127  0.58640172  0.63814224  1
  O2-  O488  1  0.16461138  0.58445945  0.97414213  1
  O2-  O489  1  0.15710601  0.84027698  0.31428880  1
  O2-  O490  1  0.15687690  0.82892997  0.64770482  1
  O2-  O491  1  0.16282141  0.83521534  0.97006362  1
  O2-  O492  1  0.38524604  0.07785263  0.32736205  1
  O2-  O493  1  0.39561218  0.08166730  0.68698330  1
  O2-  O494  1  0.41487585  0.09060076  0.97713868  1
  O2-  O495  1  0.44599999  0.33019606  0.31439832  1
  O2-  O496  1  0.41623883  0.33502056  0.64231340  1
  O2-  O497  1  0.41521502  0.33000180  0.98206620  1
  O2-  O498  1  0.43382632  0.58431448  0.31013562  1
  O2-  O499  1  0.39864859  0.57844979  0.65505957  1
  O2-  O500  1  0.38232310  0.57337680  0.97849314  1
  O2-  O501  1  0.43428760  0.82153912  0.29781980  1
  O2-  O502  1  0.42431279  0.84049255  0.64608919  1
  O2-  O503  1  0.41740067  0.83089882  0.97390944  1
  O2-  O504  1  0.65858549  0.08239912  0.31633671  1
  O2-  O505  1  0.63647446  0.05394627  0.66126087  1
  O2-  O506  1  0.65490053  0.08269543  0.99335486  1
  O2-  O507  1  0.66982230  0.35573665  0.31089740  1
  O2-  O508  1  0.66746251  0.32312089  0.65494813  1
  O2-  O509  1  0.69239500  0.33838122  0.97015250  1
  O2-  O510  1  0.65775435  0.51435249  0.30430481  1
  O2-  O511  1  0.61726598  0.55332697  0.63523014  1
  O2-  O512  1  0.68498375  0.58485333  0.96969752  1
  O2-  O513  1  0.67130781  0.84358428  0.30570578  1
  O2-  O514  1  0.67995740  0.83034821  0.64558510  1
  O2-  O515  1  0.68066018  0.86935586  0.99678112  1
  O2-  O516  1  0.91582568  0.08830024  0.31765374  1
  O2-  O517  1  0.90931159  0.07778951  0.64677345  1
  O2-  O518  1  0.92189858  0.08970134  0.97822822  1
  O2-  O519  1  0.91589553  0.33445172  0.31578496  1
  O2-  O520  1  0.91043638  0.32539318  0.64335099  1
  O2-  O521  1  0.91722276  0.33169840  0.98564508  1
  O2-  O522  1  0.91060503  0.58064468  0.30664472  1
  O2-  O523  1  0.92122416  0.57834856  0.64346882  1
  O2-  O524  1  0.92115932  0.58064273  0.97574017  1
  O2-  O525  1  0.90872591  0.83367195  0.30331001  1
  O2-  O526  1  0.91792560  0.84423876  0.65074402  1
  O2-  O527  1  0.91388801  0.83305408  0.98062275  1
  O2-  O528  1  0.08557545  0.17341265  0.02225078  1
  O2-  O529  1  0.07481829  0.15206239  0.36161793  1
  O2-  O530  1  0.07473820  0.16446880  0.68992887  1
  O2-  O531  1  0.08035547  0.41734218  0.02312852  1
  O2-  O532  1  0.08246048  0.42090770  0.35376489  1
  O2-  O533  1  0.08942172  0.41433522  0.67278195  1
  O2-  O534  1  0.08383710  0.67109075  0.01637399  1
  O2-  O535  1  0.06850176  0.66730147  0.35211958  1
  O2-  O536  1  0.08661807  0.66552025  0.68647215  1
  O2-  O537  1  0.07995067  0.91748889  0.01455601  1
  O2-  O538  1  0.07308181  0.91996399  0.34682111  1
  O2-  O539  1  0.08724090  0.92797323  0.68639809  1
  O2-  O540  1  0.33693323  0.17053859  0.01999410  1
  O2-  O541  1  0.31717774  0.16979073  0.36248029  1
  O2-  O542  1  0.33182389  0.16151262  0.63375279  1
  O2-  O543  1  0.30693417  0.41907097  0.02766390  1
  O2-  O544  1  0.32190009  0.42032353  0.34606454  1
  O2-  O545  1  0.32421923  0.40773008  0.68621333  1
  O2-  O546  1  0.32518466  0.66990052  0.02083476  1
  O2-  O547  1  0.32880460  0.66201680  0.34172853  1
  O2-  O548  1  0.32311310  0.66821836  0.69752395  1
  O2-  O549  1  0.32345896  0.91696299  0.00320380  1
  O2-  O550  1  0.30596971  0.92754851  0.36858602  1
  O2-  O551  1  0.33008268  0.91743613  0.68036863  1
  O2-  O552  1  0.59079179  0.18181735  0.01125811  1
  O2-  O553  1  0.57173742  0.17369061  0.32733232  1
  O2-  O554  1  0.57119719  0.15616961  0.69788033  1
  O2-  O555  1  0.58021167  0.41507250  0.01533446  1
  O2-  O556  1  0.49212772  0.41188343  0.34561292  1
  O2-  O557  1  0.57504024  0.40012238  0.69307961  1
  O2-  O558  1  0.61629454  0.69058454  0.00416149  1
  O2-  O559  1  0.59273481  0.67321251  0.34281093  1
  O2-  O560  1  0.56877177  0.66496762  0.68541697  1
  O2-  O561  1  0.63207862  0.95337862  0.06645223  1
  O2-  O562  1  0.58012502  0.91577433  0.35374258  1
  O2-  O563  1  0.58862900  0.96279307  0.68073114  1
  O2-  O564  1  0.83519778  0.16511146  0.02399444  1
  O2-  O565  1  0.82341547  0.16372338  0.35920411  1
  O2-  O566  1  0.82098535  0.15800695  0.68240168  1
  O2-  O567  1  0.83758464  0.42071755  0.01911763  1
  O2-  O568  1  0.83560472  0.41719011  0.35333470  1
  O2-  O569  1  0.83485556  0.41458006  0.68856155  1
  O2-  O570  1  0.84402762  0.66780103  0.01719596  1
  O2-  O571  1  0.82407972  0.66140334  0.34224740  1
  O2-  O572  1  0.86138375  0.68099122  0.69537163  1
  O2-  O573  1  0.84633354  0.93018657  0.02439849  1
  O2-  O574  1  0.83465283  0.92095604  0.35290896  1
  O2-  O575  1  0.82377043  0.90856138  0.69502037  1
