# generated using pymatgen
data_H2O
_symmetry_space_group_name_H-M   'P 1'
_cell_length_a   17.99756760
_cell_length_b   17.99398985
_cell_length_c   22.00960533
_cell_angle_alpha   90.02333905
_cell_angle_beta   90.01121863
_cell_angle_gamma   120.00209078
_symmetry_Int_Tables_number   1
_chemical_formula_structural   H2O
_chemical_formula_sum   'H384 O192'
_cell_volume   6172.69671445
_cell_formula_units_Z   192
loop_
 _symmetry_equiv_pos_site_id
 _symmetry_equiv_pos_as_xyz
  1  'x, y, z'
loop_
 _atom_type_symbol
 _atom_type_oxidation_number
  H+  1.0
  O2-  -2.0
loop_
 _atom_site_type_symbol
 _atom_site_label
 _atom_site_symmetry_multiplicity
 _atom_site_fract_x
 _atom_site_fract_y
 _atom_site_fract_z
 _atom_site_occupancy
  H+  H0  1  0.94076012  0.93328664  0.22849860  1
  H+  H1  1  0.13206989  0.60835247  0.99801134  1
  H+  H2  1  1.02192046  0.62969019  0.33103716  1
  H+  H3  1  0.09103214  0.64577718  0.68003277  1
  H+  H4  1  0.88808410  0.48006909  0.48095976  1
  H+  H5  1  0.79335737  0.39561555  0.48506711  1
  H+  H6  1  0.74532597  0.10095430  0.67564885  1
  H+  H7  1  0.07694649  0.91196241  0.07939705  1
  H+  H8  1  0.28506600  0.39102033  0.32651409  1
  H+  H9  1  0.08059279  0.71068516  0.49729550  1
  H+  H10  1  0.89976059  0.08817413  0.52146084  1
  H+  H11  1  0.86541913  0.79501649  0.51197748  1
  H+  H12  1  0.60505478  0.46788396  0.83285820  1
  H+  H13  1  0.73255769  0.60645507  0.16421833  1
  H+  H14  1  0.36973251  0.63211078  0.33121267  1
  H+  H15  1  0.21096819  0.84146959  0.36726337  1
  H+  H16  1  0.18960190  0.60114873  0.65930752  1
  H+  H17  1  1.01732135  0.38680747  0.15494253  1
  H+  H18  1  0.87432982  0.60756550  0.16718408  1
  H+  H19  1  0.86454889  1.01739890  0.83449215  1
  H+  H20  1  0.63703373  0.02514016  0.86095721  1
  H+  H21  1  0.14498165  0.27128709  0.31407882  1
  H+  H22  1  0.48392746  0.11233290  0.83006988  1
  H+  H23  1  0.85488135  0.12615547  0.16095672  1
  H+  H24  1  0.39383665  0.53228700  0.16924088  1
  H+  H25  1  0.27126065  0.62859274  1.01164901  1
  H+  H26  1  0.61749614  0.64077466  0.86464975  1
  H+  H27  1  0.03598973  0.12834635  0.49412722  1
  H+  H28  1  0.52030313  0.64854021  0.48819130  1
  H+  H29  1  0.55931458  0.90982387  0.50124373  1
  H+  H30  1  0.52179629  0.61708736  0.00709707  1
  H+  H31  1  0.63569150  0.02054509  1.00323241  1
  H+  H32  1  0.10828775  0.47065043  0.00664026  1
  H+  H33  1  0.95665930  0.08914660  0.14959047  1
  H+  H34  1  0.22095440  0.35610563  0.83911118  1
  H+  H35  1  0.63881846  0.28328444  0.32296598  1
  H+  H36  1  0.12784824  0.12237950  0.68234478  1
  H+  H37  1  0.62567097  0.89280627  0.86325762  1
  H+  H38  1  0.96329610  0.61666354  0.65712233  1
  H+  H39  1  0.36037414  0.46906867  0.00566673  1
  H+  H40  1  0.07149966  0.39756178  0.40000475  1
  H+  H41  1  0.52469450  0.14132921  0.48491159  1
  H+  H42  1  0.08119336  0.91484677  0.76568111  1
  H+  H43  1  0.86605604  0.10556679  0.82957639  1
  H+  H44  1  0.84597381  0.69301990  0.81945170  1
  H+  H45  1  0.09907285  0.87068334  0.50930907  1
  H+  H46  1  0.61537945  0.72340072  0.15500441  1
  H+  H47  1  0.11277980  0.64061345  0.16038582  1
  H+  H48  1  0.17432469  0.25230220  0.67831007  1
  H+  H49  1  0.93488828  0.86760598  0.92121712  1
  H+  H50  1  0.85515350  0.24245464  0.83093931  1
  H+  H51  1  0.11016945  0.09945683  0.84714056  1
  H+  H52  1  0.98817965  0.89647497  0.85928051  1
  H+  H53  1  0.28210861  0.64187221  0.33433166  1
  H+  H54  1  0.41260191  0.85418277  0.48027554  1
  H+  H55  1  0.43081471  0.08122240  0.59874554  1
  H+  H56  1  0.86423342  0.14446976  0.30899494  1
  H+  H57  1  0.38953333  0.03552549  0.49776545  1
  H+  H58  1  0.66776766  0.86631928  0.68536503  1
  H+  H59  1  0.13334153  0.26363840  0.84017932  1
  H+  H60  1  0.71961960  0.11842124  0.85894195  1
  H+  H61  1  0.60079928  0.13209207  0.01873873  1
  H+  H62  1  0.28310885  0.12367882  0.67107689  1
  H+  H63  1  0.63956302  0.00187573  0.49730306  1
  H+  H64  1  0.84738633  0.85767674  1.00970611  1
  H+  H65  1  0.34288231  0.88438449  0.01932652  1
  H+  H66  1  0.39151837  0.01518907  0.65401571  1
  H+  H67  1  0.63529730  0.97294161  0.69766435  1
  H+  H68  1  0.31433456  0.83705626  0.47121116  1
  H+  H69  1  0.62893125  0.59365594  0.99362656  1
  H+  H70  1  0.60824304  0.14643859  0.32338674  1
  H+  H71  1  0.81333748  0.89598013  0.09028164  1
  H+  H72  1  0.10269546  0.87996705  1.01853442  1
  H+  H73  1  0.96667615  0.84642852  1.00986455  1
  H+  H74  1  0.39767003  0.62133064  0.84317422  1
  H+  H75  1  0.86812890  0.88828787  0.85159035  1
  H+  H76  1  0.85266834  0.21728388  0.16153759  1
  H+  H77  1  0.90685417  0.02210971  0.67815936  1
  H+  H78  1  0.89353807  0.59279243  0.90212867  1
  H+  H79  1  0.14999478  0.29049691  0.15825699  1
  H+  H80  1  0.14717421  0.02619415  0.33040507  1
  H+  H81  1  0.12242386  0.53184800  0.50882256  1
  H+  H82  1  0.66778890  0.77907925  0.68406736  1
  H+  H83  1  0.37751111  0.26586902  0.99234540  1
  H+  H84  1  0.18784009  0.31104833  0.58899858  1
  H+  H85  1  0.11006432  0.39268571  0.15563164  1
  H+  H86  1  0.22635307  0.93677759  0.88146575  1
  H+  H87  1  1.01923261  0.88969695  0.17604687  1
  H+  H88  1  0.91322070  0.09332243  0.92864529  1
  H+  H89  1  0.12239132  0.88460477  0.35077718  1
  H+  H90  1  0.39823765  0.30649357  0.47121824  1
  H+  H91  1  0.16744503  0.83248691  0.24935803  1
  H+  H92  1  0.71906657  0.35646116  0.99760993  1
  H+  H93  1  0.87804543  0.52724081  0.66795292  1
  H+  H94  1  0.08215988  0.15280602  0.77276565  1
  H+  H95  1  0.89429740  0.75381735  0.33881213  1
  H+  H96  1  0.63203260  0.52801078  0.49772720  1
  H+  H97  1  0.63517276  0.74669680  0.34209373  1
  H+  H98  1  0.28233032  0.40180763  0.15683336  1
  H+  H99  1  0.36033737  0.47694046  0.83901873  1
  H+  H100  1  0.34757315  0.87277410  0.65639224  1
  H+  H101  1  0.36463649  0.14271407  0.34908125  1
  H+  H102  1  0.07078867  0.73591385  0.82682603  1
  H+  H103  1  0.96770335  0.35824471  0.84578504  1
  H+  H104  1  0.88257195  0.61089480  0.99985319  1
  H+  H105  1  0.77196122  0.14621296  0.01090410  1
  H+  H106  1  0.27481032  0.64015049  0.16078053  1
  H+  H107  1  0.85895224  -0.09500524  0.42681552  1
  H+  H108  1  0.12146771  0.21885189  0.49751301  1
  H+  H109  1  0.63515440  0.88040362  0.32099513  1
  H+  H110  1  0.90432857  0.62209780  0.32518966  1
  H+  H111  1  0.14111440  0.01282188  0.66266108  1
  H+  H112  1  0.14549030  0.02253091  0.51455217  1
  H+  H113  1  0.76324259  0.86582704  0.99699568  1
  H+  H114  1  0.47354430  0.96192588  -0.00921788  1
  H+  H115  1  0.84965533  0.91405813  0.74779908  1
  H+  H116  1  0.89307992  0.86640225  0.66866489  1
  H+  H117  1  0.28081682  0.14147845  0.50781795  1
  H+  H118  1  0.39187942  0.76747542  0.32690796  1
  H+  H119  1  0.84598053  0.88072987  0.15673644  1
  H+  H120  1  0.54195406  0.39913963  0.47302796  1
  H+  H121  1  0.55072829  0.42887965  0.76511697  1
  H+  H122  1  0.55177437  0.88108420  0.70657917  1
  H+  H123  1  0.28411330  0.88573637  0.82286413  1
  H+  H124  1  0.37594317  0.39818869  0.33278229  1
  H+  H125  1  0.46776413  0.11794404  0.33120773  1
  H+  H126  1  0.98048863  0.37622639  0.67167745  1
  H+  H127  1  0.37327664  0.53595466  0.50263210  1
  H+  H128  1  0.83057494  0.31022255  0.62669840  1
  H+  H129  1  0.62482358  0.88389782  0.98852174  1
  H+  H130  1  0.11687569  1.00865399  0.84133307  1
  H+  H131  1  0.88086150  0.75383579  1.00167672  1
  H+  H132  1  0.33778477  0.71814470  0.47764496  1
  H+  H133  1  0.34178382  0.30118894  0.61364290  1
  H+  H134  1  0.10815627  0.97410976  0.17278436  1
  H+  H135  1  0.73255749  0.63390886  0.30584352  1
  H+  H136  1  0.88725541  0.13269277  0.67780177  1
  H+  H137  1  0.37569338  1.02540039  0.00548843  1
  H+  H138  1  0.62534226  0.49020334  0.32385111  1
  H+  H139  1  0.61837799  0.72909231  0.86528563  1
  H+  H140  1  0.63566180  0.00758019  0.15821437  1
  H+  H141  1  0.60151278  0.12942517  0.83978505  1
  H+  H142  1  0.77379045  0.39123333  0.15461471  1
  H+  H143  1  0.65429477  0.28372562  0.49131176  1
  H+  H144  1  0.66367510  0.87716187  0.49044547  1
  H+  H145  1  0.38619240  0.11572826  0.82321774  1
  H+  H146  1  0.75668172  0.35512239  0.65115607  1
  H+  H147  1  0.36487249  0.63476587  0.48941335  1
  H+  H148  1  0.11373934  0.89161357  0.82751494  1
  H+  H149  1  0.11572653  0.32015672  0.55772297  1
  H+  H150  1  0.91611337  0.84101896  0.24873698  1
  H+  H151  1  0.43232898  0.82251524  0.61634560  1
  H+  H152  1  0.76088259  0.86588728  0.44627840  1
  H+  H153  1  0.13357628  0.52642006  0.16912274  1
  H+  H154  1  0.60277005  0.23469698  0.16090924  1
  H+  H155  1  0.86409409  0.47891693  0.15651678  1
  H+  H156  1  0.90871166  0.00374944  0.52196956  1
  H+  H157  1  0.23352392  0.11864161  0.33261562  1
  H+  H158  1  0.71395089  0.60104087  0.64489261  1
  H+  H159  1  0.46948296  0.35896902  0.17743935  1
  H+  H160  1  0.20217305  0.35003442  0.68520039  1
  H+  H161  1  0.86606461  0.00353777  0.15755365  1
  H+  H162  1  0.19082831  0.83029298  0.48450838  1
  H+  H163  1  0.95824888  0.87458581  0.50804469  1
  H+  H164  1  0.02873684  0.30522084  0.37279146  1
  H+  H165  1  0.14197853  0.35741768  0.31582821  1
  H+  H166  1  0.73243866  0.54151177  0.86554984  1
  H+  H167  1  0.36105163  0.21733186  0.53962795  1
  H+  H168  1  -0.02667293  0.66586507  0.81877267  1
  H+  H169  1  0.20770096  0.85352137  1.00562579  1
  H+  H170  1  0.17373613  0.07812934  0.60520375  1
  H+  H171  1  0.73880924  0.10859183  0.16523259  1
  H+  H172  1  1.04347752  0.13239262  0.68003214  1
  H+  H173  1  0.74873216  0.65441176  0.81986019  1
  H+  H174  1  0.39222802  0.53991245  0.65569318  1
  H+  H175  1  0.37385128  0.88744683  0.81729311  1
  H+  H176  1  0.96341266  0.36021994  0.32035067  1
  H+  H177  1  0.62934918  0.50387327  -0.00155711  1
  H+  H178  1  0.08696587  0.60290295  0.78685068  1
  H+  H179  1  0.71482739  0.11547847  0.30090137  1
  H+  H180  1  0.11266083  0.22565657  1.00704095  1
  H+  H181  1  0.42408752  0.81112780  0.92895570  1
  H+  H182  1  0.87249272  0.25356028  0.65013307  1
  H+  H183  1  0.13451574  0.42166575  0.49079131  1
  H+  H184  1  0.53615724  0.39885007  0.32891990  1
  H+  H185  1  0.62653854  0.02946627  0.31409421  1
  H+  H186  1  0.98192379  0.12852793  0.31088351  1
  H+  H187  1  0.10903759  0.88115144  0.66923882  1
  H+  H188  1  0.38127326  0.60125543  1.00165817  1
  H+  H189  1  0.26874055  0.88402264  0.17500628  1
  H+  H190  1  0.58020678  0.49119624  0.67297637  1
  H+  H191  1  0.06985328  0.38297515  0.66921632  1
  H+  H192  1  0.52283698  0.88475298  0.15078768  1
  H+  H193  1  0.32085837  0.70651344  0.65703112  1
  H+  H194  1  0.79080784  0.89045944  0.68839985  1
  H+  H195  1  -0.03094823  0.61397076  0.16823678  1
  H+  H196  1  0.33478756  0.66136555  0.41718332  1
  H+  H197  1  0.39866531  0.12550902  0.51126790  1
  H+  H198  1  0.09462882  0.51703215  0.66127063  1
  H+  H199  1  0.38642767  0.36733468  0.17874448  1
  H+  H200  1  0.51477686  0.37312008  0.00892429  1
  H+  H201  1  0.26877919  0.39706115  0.50866789  1
  H+  H202  1  0.11792423  0.13653473  0.33424316  1
  H+  H203  1  0.68141827  0.06727079  0.62014991  1
  H+  H204  1  0.27079295  0.38025658  0.00763198  1
  H+  H205  1  0.62646102  0.65489886  0.33664390  1
  H+  H206  1  -0.02791992  0.12108221  -0.01267074  1
  H+  H207  1  0.76897919  0.62232235  0.01199992  1
  H+  H208  1  0.06726222  0.90684575  0.56056958  1
  H+  H209  1  0.71726439  0.85876518  0.16445875  1
  H+  H210  1  0.33435827  0.39436649  0.68289778  1
  H+  H211  1  0.63793879  0.37233891  0.16929595  1
  H+  H212  1  0.37870513  0.24367700  0.63715666  1
  H+  H213  1  0.94188355  0.63086190  0.51112367  1
  H+  H214  1  0.63392990  0.27419481  0.84468662  1
  H+  H215  1  0.01013333  0.12709575  0.82481720  1
  H+  H216  1  0.37811751  0.36069422  0.84575397  1
  H+  H217  1  0.22101299  0.86273589  0.64725170  1
  H+  H218  1  0.40108433  0.28638359  0.32960331  1
  H+  H219  1  0.37066220  0.09971686  0.17868152  1
  H+  H220  1  0.46573800  0.11269409  1.00331537  1
  H+  H221  1  0.89223879  0.22743026  0.50395939  1
  H+  H222  1  0.64952860  0.78332463  0.49573907  1
  H+  H223  1  0.86168575  0.14952110  0.99986342  1
  H+  H224  1  0.35864355  0.88491763  0.16683665  1
  H+  H225  1  0.01991364  0.88282111  0.67145017  1
  H+  H226  1  0.14616301  0.11171140  0.50627448  1
  H+  H227  1  0.61695778  0.11516133  0.68902853  1
  H+  H228  1  0.85806641  0.38704045  1.00252591  1
  H+  H229  1  0.05956165  0.17478729  0.19081557  1
  H+  H230  1  0.88061840  0.36056898  0.16017563  1
  H+  H231  1  0.12085712  0.76326655  -0.00314665  1
  H+  H232  1  0.14596151  0.52939213  0.32372513  1
  H+  H233  1  0.60381379  0.37186609  0.01067163  1
  H+  H234  1  0.36621414  0.71194797  0.00520489  1
  H+  H235  1  0.61137070  0.47606868  0.15976951  1
  H+  H236  1  0.29029739  0.71193690  0.80776648  1
  H+  H237  1  0.11650866  0.13668504  0.16787723  1
  H+  H238  1  0.83192184  0.67237570  0.54956531  1
  H+  H239  1  0.97000901  0.36216147  0.99249548  1
  H+  H240  1  0.68991014  0.15107235  0.54754180  1
  H+  H241  1  0.62522393  0.64208700  0.69104987  1
  H+  H242  1  0.11190386  0.72835033  0.16525667  1
  H+  H243  1  0.87406144  0.27512455  0.30985217  1
  H+  H244  1  0.86229973  0.53280427  0.84454548  1
  H+  H245  1  0.12097048  0.10261586  0.99559790  1
  H+  H246  1  0.52780149  0.63525731  0.15784761  1
  H+  H247  1  0.85610914  0.38287419  0.33016717  1
  H+  H248  1  0.41199517  0.78252662  0.82777527  1
  H+  H249  1  0.12977446  0.64437913  0.78674784  1
  H+  H250  1  0.85543392  0.62895497  0.63599087  1
  H+  H251  1  0.10199559  0.36633832  0.82439449  1
  H+  H252  1  0.72774395  0.85509542  0.87559118  1
  H+  H253  1  0.78673667  0.60395694  0.38190289  1
  H+  H254  1  0.26198568  0.61941809  0.82575784  1
  H+  H255  1  0.60505197  0.13005728  0.47352212  1
  H+  H256  1  0.75870022  0.12577833  0.52705518  1
  H+  H257  1  0.87682627  0.41199558  0.70123829  1
  H+  H258  1  0.33219209  0.97712622  0.40443783  1
  H+  H259  1  0.66945592  0.55138087  0.91272828  1
  H+  H260  1  0.84970797  0.70288051  0.15688619  1
  H+  H261  1  0.13466282  0.49370815  0.84734362  1
  H+  H262  1  0.13285427  0.86236589  0.19238903  1
  H+  H263  1  0.03439298  0.39583588  0.49610288  1
  H+  H264  1  0.38635810  1.01905046  0.82095881  1
  H+  H265  1  0.64558785  0.37849303  0.32271930  1
  H+  H266  1  0.35557278  0.60396131  0.65166120  1
  H+  H267  1  0.83371662  0.41417114  0.39578034  1
  H+  H268  1  0.49634310  0.38257671  0.83187996  1
  H+  H269  1  0.85663770  0.39538897  0.84009831  1
  H+  H270  1  0.88311135  0.52282853  0.99162870  1
  H+  H271  1  0.38353167  0.52620226  0.32253562  1
  H+  H272  1  0.48367972  0.61788247  0.85225257  1
  H+  H273  1  0.35447010  0.41228198  0.47756106  1
  H+  H274  1  0.01629147  0.63089916  0.00702316  1
  H+  H275  1  0.26340197  0.13009515  0.99823890  1
  H+  H276  1  0.62021961  0.61223137  0.50184174  1
  H+  H277  1  0.38606532  0.77518713  0.16998471  1
  H+  H278  1  0.76243297  0.38633031  0.84041500  1
  H+  H279  1  0.53002463  0.11787851  0.68027508  1
  H+  H280  1  0.47717455  0.95805795  1.02436623  1
  H+  H281  1  0.06409295  0.40108970  0.77081775  1
  H+  H282  1  0.12849000  0.77678625  0.65197069  1
  H+  H283  1  0.37099390  0.22337977  0.82311435  1
  H+  H284  1  0.90074658  0.36154205  0.49742633  1
  H+  H285  1  0.26456869  0.03492011  0.11384950  1
  H+  H286  1  0.35458887  0.13162603  0.00260935  1
  H+  H287  1  0.21423120  0.09725397  0.17058121  1
  H+  H288  1  0.30178504  0.65852590  0.72210186  1
  H+  H289  1  0.75693582  0.38049476  0.33487368  1
  H+  H290  1  0.16113504  0.32791960  0.93584813  1
  H+  H291  1  0.13195369  0.35902278  0.99479270  1
  H+  H292  1  0.13088083  0.58086597  0.57614930  1
  H+  H293  1  0.43531971  0.44513852  0.69737955  1
  H+  H294  1  0.98294203  0.84225879  0.33320851  1
  H+  H295  1  0.41186527  0.57780202  0.94001063  1
  H+  H296  1  0.83068937  0.41869784  0.06198785  1
  H+  H297  1  0.59062197  0.93703845  0.39497851  1
  H+  H298  1  0.65386042  0.07199267  0.21792519  1
  H+  H299  1  0.07604979  0.41030070  0.06413654  1
  H+  H300  1  0.77509066  0.90486481  0.34705910  1
  H+  H301  1  0.81348435  0.15683368  0.36385759  1
  H+  H302  1  0.85744718  0.17195723  0.73265562  1
  H+  H303  1  0.85577234  0.71942447  0.64222708  1
  H+  H304  1  0.60898874  0.87842020  0.15276598  1
  H+  H305  1  0.61164022  0.92207201  0.79678417  1
  H+  H306  1  0.39777282  0.07932874  0.28047914  1
  H+  H307  1  0.13706300  0.61296315  0.32795823  1
  H+  H308  1  0.67367457  0.34538090  0.22669699  1
  H+  H309  1  0.11860187  0.01103295  0.99976774  1
  H+  H310  1  0.17275662  0.84783375  0.91181891  1
  H+  H311  1  0.92292971  0.59344864  0.25971215  1
  H+  H312  1  0.75787722  0.64774353  0.50481798  1
  H+  H313  1  0.37491697  0.12754160  0.66847117  1
  H+  H314  1  0.16639339  0.58547142  0.22880421  1
  H+  H315  1  0.49490239  0.87262721  0.84288798  1
  H+  H316  1  0.65924442  0.83396686  0.22455891  1
  H+  H317  1  0.91982210  0.33001764  0.56072419  1
  H+  H318  1  0.72398657  0.32992114  0.58297972  1
  H+  H319  1  0.42942649  0.35550586  0.53159386  1
  H+  H320  1  0.38452471  0.85205171  0.32607446  1
  H+  H321  1  0.84785095  0.66721131  0.43044948  1
  H+  H322  1  0.64126845  0.57533206  0.59740085  1
  H+  H323  1  0.40315119  0.59827532  0.56119429  1
  H+  H324  1  0.64194908  0.61157420  0.16433859  1
  H+  H325  1  0.56892048  0.16800981  0.07389784  1
  H+  H326  1  0.91994600  0.08901333  0.25188399  1
  H+  H327  1  0.32960494  0.90553087  0.72006470  1
  H+  H328  1  0.58767325  0.67643977  0.43233289  1
  H+  H329  1  0.05538516  0.69005843  0.72875234  1
  H+  H330  1  0.13041963  0.76097920  0.34039114  1
  H+  H331  1  0.34871696  0.17093685  0.75999636  1
  H+  H332  1  0.09990185  0.61324804  0.50976599  1
  H+  H333  1  0.65747514  0.37369476  0.49313759  1
  H+  H334  1  0.91061596  0.33540889  0.22042761  1
  H+  H335  1  0.87798247  0.27281618  0.99278252  1
  H+  H336  1  0.42310387  0.33919199  0.26665045  1
  H+  H337  1  0.08932824  0.17009813  0.39105178  1
  H+  H338  1  0.80081765  0.80926702  0.81541999  1
  H+  H339  1  0.62917115  0.26562156  1.00061327  1
  H+  H340  1  0.60712856  0.43137178  0.41871940  1
  H+  H341  1  0.66978547  0.58924518  0.24996359  1
  H+  H342  1  0.17132339  0.08712683  0.23765097  1
  H+  H343  1  0.38177151  0.35715549  -0.00630107  1
  H+  H344  1  0.34585153  0.42803959  0.77702757  1
  H+  H345  1  0.13833261  0.06303551  0.91096262  1
  H+  H346  1  0.31527745  0.91080939  0.08035659  1
  H+  H347  1  0.07783139  0.66401860  0.06629162  1
  H+  H348  1  0.90884861  0.33238605  0.90655100  1
  H+  H349  1  0.52271755  0.89480163  0.33995622  1
  H+  H350  1  0.77638548  0.19125358  0.78598595  1
  H+  H351  1  0.15166894  0.81280516  0.55614405  1
  H+  H352  1  0.82703757  0.42778144  0.75351360  1
  H+  H353  1  0.66022449  0.32752016  0.90604770  1
  H+  H354  1  0.33742096  0.17839527  0.40632690  1
  H+  H355  1  0.30515979  0.12767171  0.08643766  1
  H+  H356  1  0.17236808  0.34091368  0.22082830  1
  H+  H357  1  0.65924244  0.08818534  0.95127880  1
  H+  H358  1  0.82488617  0.64911360  0.07552541  1
  H+  H359  1  0.58649688  0.65097649  0.06257742  1
  H+  H360  1  0.57916254  0.15249596  0.77301395  1
  H+  H361  1  0.57634286  0.41017675  0.10352959  1
  H+  H362  1  0.39362638  0.62138944  0.17032938  1
  H+  H363  1  0.35990428  0.80649102  0.56952194  1
  H+  H364  1  0.58521070  0.17590824  0.38625787  1
  H+  H365  1  0.85913421  0.15181783  0.45649082  1
  H+  H366  1  0.33456642  0.66775718  0.10179780  1
  H+  H367  1  0.91243975  0.84841228  0.60127936  1
  H+  H368  1  0.06690407  0.64575961  0.39675313  1
  H+  H369  1  0.59058372  0.90286973  0.05257538  1
  H+  H370  1  0.13390137  0.57953460  0.84851361  1
  H+  H371  1  0.51166843  0.38967848  0.66791229  1
  H+  H372  1  0.38313782  1.02088361  0.18650212  1
  H+  H373  1  0.41512002  0.58934046  0.26412566  1
  H+  H374  1  0.51293070  0.14692334  0.16707291  1
  H+  H375  1  0.07760332  0.16542796  0.06527809  1
  H+  H376  1  0.41135874  0.32866573  0.90352400  1
  H+  H377  1  0.08971890  0.92245048  0.40276618  1
  H+  H378  1  0.93616815  0.07314807  0.61475542  1
  H+  H379  1  0.34234652  0.42214265  0.09946835  1
  H+  H380  1  0.42179545  0.83458667  0.22873286  1
  H+  H381  1  0.61140274  0.67454903  0.75540948  1
  H+  H382  1  0.48733680  0.83952421  0.98522195  1
  H+  H383  1  0.16475259  0.57331096  0.94239663  1
  O2-  O384  1  0.08616150  0.16864294  0.15391355  1
  O2-  O385  1  0.09420710  0.16295422  0.47609037  1
  O2-  O386  1  0.07315261  0.15294306  0.81789141  1
  O2-  O387  1  0.07846236  0.42175353  0.14118282  1
  O2-  O388  1  0.09225425  0.43711281  0.47714496  1
  O2-  O389  1  0.07190186  0.39967741  0.81514605  1
  O2-  O390  1  0.08290759  0.67126510  0.14529151  1
  O2-  O391  1  0.05160434  0.64526553  0.48093729  1
  O2-  O392  1  0.02506373  0.71075729  0.79680755  1
  O2-  O393  1  0.07861136  0.91253042  0.15994823  1
  O2-  O394  1  0.07779215  0.91238270  0.51675962  1
  O2-  O395  1  0.08277449  0.91986013  0.81117590  1
  O2-  O396  1  0.28952996  0.09473212  0.12640665  1
  O2-  O397  1  0.34449932  0.18105539  0.50259761  1
  O2-  O398  1  0.34735205  0.16538093  0.80514445  1
  O2-  O399  1  0.34362676  0.42846077  0.14467093  1
  O2-  O400  1  0.31807856  0.43808814  0.48447425  1
  O2-  O401  1  0.33098219  0.41794046  0.82122577  1
  O2-  O402  1  0.33600827  0.67228592  0.14738679  1
  O2-  O403  1  0.32642543  0.65945201  0.46447758  1
  O2-  O404  1  0.30904583  0.66973755  0.80323483  1
  O2-  O405  1  0.32665044  0.91535095  0.15531872  1
  O2-  O406  1  0.31207571  0.95870043  0.44630617  1
  O2-  O407  1  0.33981224  0.91352059  0.80109975  1
  O2-  O408  1  0.56907386  0.17453231  0.14632576  1
  O2-  O409  1  0.58414538  0.16992027  0.46642386  1
  O2-  O410  1  0.57135853  0.15650499  0.81895117  1
  O2-  O411  1  0.57900004  0.41319896  0.14892805  1
  O2-  O412  1  0.60428973  0.42610308  0.46419979  1
  O2-  O413  1  0.55683288  0.41634254  0.80927369  1
  O2-  O414  1  0.58777304  0.66228173  0.14170211  1
  O2-  O415  1  0.58157773  0.67286186  0.47820294  1
  O2-  O416  1  0.59156173  0.67107777  0.84527406  1
  O2-  O417  1  0.58286630  0.91227726  0.13526442  1
  O2-  O418  1  0.60913521  0.94586039  0.47612914  1
  O2-  O419  1  0.59973657  0.92348586  0.84098064  1
  O2-  O420  1  0.81931664  0.15388394  0.15553220  1
  O2-  O421  1  0.86191704  0.16284437  0.50006588  1
  O2-  O422  1  0.81856513  0.18395633  0.80925505  1
  O2-  O423  1  0.83463624  0.41858642  0.13990820  1
  O2-  O424  1  0.85317026  0.41930954  0.46789321  1
  O2-  O425  1  0.82446534  0.42370465  0.82591584  1
  O2-  O426  1  0.82120605  0.64362928  0.14288491  1
  O2-  O427  1  0.82241870  0.68095996  0.50554447  1
  O2-  O428  1  0.80139203  0.70515788  0.80571865  1
  O2-  O429  1  0.81455789  0.90624482  0.13723755  1
  O2-  O430  1  0.80133616  0.87996559  0.41040922  1
  O2-  O431  1  0.81353583  0.86818916  0.82620203  1
  O2-  O432  1  0.15979452  0.08220531  0.19272667  1
  O2-  O433  1  0.17720269  0.08468230  0.52567949  1
  O2-  O434  1  0.13987385  0.06705188  0.86315735  1
  O2-  O435  1  0.17333898  0.34859433  0.17553492  1
  O2-  O436  1  0.16515737  0.31390953  0.54784985  1
  O2-  O437  1  0.15964619  0.32492943  0.85250203  1
  O2-  O438  1  0.16637413  0.58726804  0.18367074  1
  O2-  O439  1  0.13803759  0.58808002  0.52924171  1
  O2-  O440  1  0.16834712  0.55471711  0.86302387  1
  O2-  O441  1  0.16586370  0.83359573  0.20440898  1
  O2-  O442  1  0.13499873  0.80176920  0.51192450  1
  O2-  O443  1  0.19303496  0.87615388  0.87043753  1
  O2-  O444  1  0.40570164  0.08071581  0.20142404  1
  O2-  O445  1  0.42797883  0.09123513  0.51811507  1
  O2-  O446  1  0.41495370  0.07921537  0.83750879  1
  O2-  O447  1  0.41118404  0.33311950  0.19544615  1
  O2-  O448  1  0.43104333  0.36503933  0.48748679  1
  O2-  O449  1  0.41205574  0.33221566  0.85707536  1
  O2-  O450  1  0.42509029  0.59248528  0.18529771  1
  O2-  O451  1  0.40532912  0.59936999  0.51470469  1
  O2-  O452  1  0.41981089  0.58591464  0.85981730  1
  O2-  O453  1  0.41768885  0.83690617  0.18391080  1
  O2-  O454  1  0.35472230  0.81451095  0.49482255  1
  O2-  O455  1  0.42985763  0.83945151  0.84457625  1
  O2-  O456  1  0.66661535  0.06986236  0.17359820  1
  O2-  O457  1  0.69741420  0.10172481  0.53965739  1
  O2-  O458  1  0.65880138  0.08721249  0.87134523  1
  O2-  O459  1  0.67139465  0.34316174  0.18193951  1
  O2-  O460  1  0.68950891  0.34373351  0.50544171  1
  O2-  O461  1  0.66531412  0.33310883  0.86077163  1
  O2-  O462  1  0.66886075  0.57887519  0.18118691  1
  O2-  O463  1  0.65100059  0.58312810  0.51932764  1
  O2-  O464  1  0.67938932  0.54463048  0.86655050  1
  O2-  O465  1  0.65607329  0.82830855  0.17958629  1
  O2-  O466  1  0.69330218  0.84529107  0.49953486  1
  O2-  O467  1  0.66741710  0.83481278  0.88940720  1
  O2-  O468  1  0.90288491  0.06552400  0.17250899  1
  O2-  O469  1  0.93661456  0.06435923  0.53406847  1
  O2-  O470  1  0.90061538  0.07926212  0.84072421  1
  O2-  O471  1  0.90997556  0.32883257  0.17570192  1
  O2-  O472  1  0.93258843  0.33440065  0.51566293  1
  O2-  O473  1  0.90726202  0.33246632  0.85965197  1
  O2-  O474  1  0.91004236  0.58063148  0.18470328  1
  O2-  O475  1  0.96586771  0.59214185  0.50886985  1
  O2-  O476  1  0.87742061  0.59154091  0.85832792  1
  O2-  O477  1  0.92470938  0.87727881  0.21125848  1
  O2-  O478  1  0.89986785  0.85755582  0.52194322  1
  O2-  O479  1  0.95207954  0.90859439  0.88633146  1
  O2-  O480  1  0.17415652  0.08633276  0.31493771  1
  O2-  O481  1  0.17620016  0.07515197  0.65046035  1
  O2-  O482  1  0.14618558  0.06812612  0.97826323  1
  O2-  O483  1  0.17224126  0.33065012  0.29667998  1
  O2-  O484  1  0.21760839  0.31255879  0.66309926  1
  O2-  O485  1  0.16295738  0.32839595  0.98093760  1
  O2-  O486  1  0.17259630  0.58870183  0.31008425  1
  O2-  O487  1  0.12834386  0.57643861  0.64493810  1
  O2-  O488  1  0.16389263  0.57755566  0.98727559  1
  O2-  O489  1  0.16688525  0.82482670  0.33479083  1
  O2-  O490  1  0.16096936  0.83478840  0.63153845  1
  O2-  O491  1  0.15034278  0.82596343  0.98507480  1
  O2-  O492  1  0.40458048  0.08474033  0.32566528  1
  O2-  O493  1  0.42729708  0.07748586  0.64390517  1
  O2-  O494  1  0.40480370  0.08386450  0.98852019  1
  O2-  O495  1  0.43319435  0.34518420  0.31272666  1
  O2-  O496  1  0.39040764  0.29211139  0.60758634  1
  O2-  O497  1  0.41075306  0.32616348  0.97663018  1
  O2-  O498  1  0.40799834  0.58778331  0.30909638  1
  O2-  O499  1  0.39544036  0.58826147  0.63243246  1
  O2-  O500  1  0.41053088  0.57058629  0.98474092  1
  O2-  O501  1  0.42133174  0.82986550  0.31263370  1
  O2-  O502  1  0.37108318  0.80292555  0.61437706  1
  O2-  O503  1  0.42516886  0.80564091  0.97332942  1
  O2-  O504  1  0.65207011  0.08631638  0.29273024  1
  O2-  O505  1  0.68278779  0.06770201  0.66502188  1
  O2-  O506  1  0.65998668  0.08355770  0.99618196  1
  O2-  O507  1  0.67635827  0.34567340  0.31127944  1
  O2-  O508  1  0.74296722  0.31135841  0.61916702  1
  O2-  O509  1  0.65788308  0.32568510  0.98369203  1
  O2-  O510  1  0.67234203  0.59415528  0.29711596  1
  O2-  O511  1  0.64996194  0.57398986  0.64233266  1
  O2-  O512  1  0.66083943  0.56255250  0.97953881  1
  O2-  O513  1  0.66571790  0.85116946  0.30395388  1
  O2-  O514  1  0.69929238  0.83965487  0.66811133  1
  O2-  O515  1  0.67124702  0.83687228  0.95646517  1
  O2-  O516  1  0.92455221  0.11091032  0.29390022  1
  O2-  O517  1  0.93905168  0.08203216  0.65947456  1
  O2-  O518  1  0.91291601  0.09946456  0.97286007  1
  O2-  O519  1  0.90592438  0.33890329  0.30208371  1
  O2-  O520  1  0.88743908  0.31084200  0.63269840  1
  O2-  O521  1  0.91019940  0.33581903  0.97665695  1
  O2-  O522  1  0.93347171  0.59539556  0.30482784  1
  O2-  O523  1  0.90541391  0.57756267  0.64041699  1
  O2-  O524  1  0.91477718  0.58478752  0.97933135  1
  O2-  O525  1  0.92704566  0.80507817  0.31347415  1
  O2-  O526  1  0.92051989  0.83867967  0.64493278  1
  O2-  O527  1  0.91077975  0.81579058  0.98849068  1
  O2-  O528  1  0.08122633  0.16407068  0.02080507  1
  O2-  O529  1  0.08928104  0.17019384  0.34602144  1
  O2-  O530  1  0.10280585  0.15807251  0.69798266  1
  O2-  O531  1  0.07751942  0.40869912  0.01859133  1
  O2-  O532  1  0.05471437  0.36546577  0.36086404  1
  O2-  O533  1  0.04029985  0.40972381  0.68853218  1
  O2-  O534  1  0.07807976  0.66143931  0.02081928  1
  O2-  O535  1  0.08068867  0.65444268  0.35311681  1
  O2-  O536  1  0.06760955  0.68475827  0.68487862  1
  O2-  O537  1  0.07583052  0.91332229  0.03404225  1
  O2-  O538  1  0.09364834  0.91975201  0.35872774  1
  O2-  O539  1  0.08108319  0.91227129  0.68721287  1
  O2-  O540  1  0.32140004  0.16151717  0.01652635  1
  O2-  O541  1  0.33611224  0.17701514  0.36187138  1
  O2-  O542  1  0.34553382  0.16047962  0.68091193  1
  O2-  O543  1  0.33170563  0.40820454  0.02125860  1
  O2-  O544  1  0.34229070  0.42602423  0.34463105  1
  O2-  O545  1  0.38055276  0.44612370  0.70234185  1
  O2-  O546  1  0.33173979  0.65436049  0.02595917  1
  O2-  O547  1  0.34191934  0.66921499  0.34994935  1
  O2-  O548  1  0.29193049  0.64954762  0.67752846  1
  O2-  O549  1  0.30945385  0.90975698  0.03455532  1
  O2-  O550  1  0.26501492  0.86360793  0.44145983  1
  O2-  O551  1  0.32621169  0.90892555  0.67506104  1
  O2-  O552  1  0.57051217  0.16464184  0.02770204  1
  O2-  O553  1  0.58336078  0.18038122  0.34130292  1
  O2-  O554  1  0.58491947  0.14318706  0.70304298  1
  O2-  O555  1  0.57409448  0.40319141  0.02578434  1
  O2-  O556  1  0.59905581  0.43081807  0.34121894  1
  O2-  O557  1  0.52944405  0.43953575  0.69436519  1
  O2-  O558  1  0.58296851  0.64139839  0.01785260  1
  O2-  O559  1  0.60837221  0.68934781  0.36061697  1
  O2-  O560  1  0.60811228  0.68028410  0.71127905  1
  O2-  O561  1  0.59099184  0.90959373  0.00787855  1
  O2-  O562  1  0.58488466  0.93262956  0.35018049  1
  O2-  O563  1  0.61097308  0.91642506  0.71984601  1
  O2-  O564  1  0.83499920  0.18270784  0.01598358  1
  O2-  O565  1  0.82472927  0.16903484  0.32072355  1
  O2-  O566  1  0.85320455  0.16193116  0.68826318  1
  O2-  O567  1  0.82702708  0.41728563  0.01646409  1
  O2-  O568  1  0.82374906  0.40966138  0.35007823  1
  O2-  O569  1  0.83431222  0.42964415  0.70749163  1
  O2-  O570  1  0.82872294  0.65342061  0.02765005  1
  O2-  O571  1  0.84432323  0.65307174  0.38624514  1
  O2-  O572  1  0.82234120  0.65986780  0.62675864  1
  O2-  O573  1  0.81516106  0.88630648  0.02330251  1
  O2-  O574  1  0.75607086  0.91963027  0.30753026  1
  O2-  O575  1  0.85457287  0.92438833  0.70337136  1
