# generated using pymatgen
data_H2O
_symmetry_space_group_name_H-M   'P 1'
_cell_length_a   17.99088495
_cell_length_b   17.98996147
_cell_length_c   22.00297900
_cell_angle_alpha   90.02611885
_cell_angle_beta   89.99756934
_cell_angle_gamma   119.99646982
_symmetry_Int_Tables_number   1
_chemical_formula_structural   H2O
_chemical_formula_sum   'H384 O192'
_cell_volume   6167.51576079
_cell_formula_units_Z   192
loop_
 _symmetry_equiv_pos_site_id
 _symmetry_equiv_pos_as_xyz
  1  'x, y, z'
loop_
 _atom_type_symbol
 _atom_type_oxidation_number
  H+  1.0
  O2-  -2.0
loop_
 _atom_site_type_symbol
 _atom_site_label
 _atom_site_symmetry_multiplicity
 _atom_site_fract_x
 _atom_site_fract_y
 _atom_site_fract_z
 _atom_site_occupancy
  H+  H0  1  0.39487619  0.53627653  0.33866588  1
  H+  H1  1  0.13471704  0.85949229  0.16725005  1
  H+  H2  1  0.36425246  0.76516364  0.31844338  1
  H+  H3  1  0.62677482  0.60399749  0.66758162  1
  H+  H4  1  0.13290257  0.48412714  0.79570929  1
  H+  H5  1  0.37170839  1.10389220  0.51562077  1
  H+  H6  1  0.10859734  0.88532898  0.49043408  1
  H+  H7  1  0.46063511  0.10733822  0.17216488  1
  H+  H8  1  0.36811495  0.49004463  1.00660623  1
  H+  H9  1  0.80193406  0.00215488  0.95645819  1
  H+  H10  1  0.59162776  0.98005178  0.00280749  1
  H+  H11  1  0.20582057  0.76153212  0.69725691  1
  H+  H12  1  0.68115964  0.91559291  0.18077531  1
  H+  H13  1  0.77211942  0.62649473  0.67419169  1
  H+  H14  1  1.02097844  0.88616963  0.33546756  1
  H+  H15  1  0.40300060  0.28293275  1.02156304  1
  H+  H16  1  0.82344786  0.16878904  0.09910352  1
  H+  H17  1  0.61187364  0.13194350  0.68082763  1
  H+  H18  1  0.99257217  0.40861067  0.48104724  1
  H+  H19  1  0.86823117  0.88587483  0.49342220  1
  H+  H20  1  0.15963856  0.87705707  0.83706898  1
  H+  H21  1  0.61542015  0.77050897  0.98591582  1
  H+  H22  1  0.63499203  0.26780243  0.49766707  1
  H+  H23  1  0.32891001  0.62980728  0.33331672  1
  H+  H24  1  0.15551426  0.84486733  0.56619509  1
  H+  H25  1  -0.00434912  0.61587709  0.35013128  1
  H+  H26  1  0.35366876  0.13237013  0.16970768  1
  H+  H27  1  0.38254275  0.38645317  0.81694723  1
  H+  H28  1  0.46995744  0.34770231  0.31914039  1
  H+  H29  1  0.21059342  0.36061515  0.17409702  1
  H+  H30  1  0.61790107  0.13692956  0.32947642  1
  H+  H31  1  0.73863156  0.87027188  0.50084866  1
  H+  H32  1  0.13807528  0.77072989  0.16430890  1
  H+  H33  1  0.26661056  0.13536283  0.16520687  1
  H+  H34  1  0.61618152  0.11602901  0.84259218  1
  H+  H35  1  0.53540065  0.67315359  0.47781819  1
  H+  H36  1  0.96956744  0.35829041  0.16939557  1
  H+  H37  1  0.22239548  0.36043535  0.84201800  1
  H+  H38  1  0.88997067  0.54457716  0.80209993  1
  H+  H39  1  0.36054057  0.88890305  0.34506794  1
  H+  H40  1  0.37514619  0.64230075  0.15357555  1
  H+  H41  1  0.29650502  0.40116319  0.34279178  1
  H+  H42  1  0.62733972  0.88077734  0.83940065  1
  H+  H43  1  0.87661562  0.10581640  0.16650324  1
  H+  H44  1  1.01762401  0.63656015  1.01834717  1
  H+  H45  1  0.46508261  0.64667736  0.98957035  1
  H+  H46  1  0.86127654  0.71563132  0.67201056  1
  H+  H47  1  0.17082527  0.49583352  0.48662879  1
  H+  H48  1  0.72979595  0.76186465  0.23223982  1
  H+  H49  1  0.82613824  0.17561010  0.39856357  1
  H+  H50  1  0.78100925  0.26407077  0.55650126  1
  H+  H51  1  0.64177922  0.64922534  0.00638129  1
  H+  H52  1  0.12510829  0.20431712  0.67313209  1
  H+  H53  1  0.10574635  0.72582730  0.00068022  1
  H+  H54  1  0.26739716  0.12115676  0.34358759  1
  H+  H55  1  0.06033664  0.64708722  0.41777004  1
  H+  H56  1  0.59548445  0.98934951  0.83276852  1
  H+  H57  1  -0.02344107  0.84723094  0.65653598  1
  H+  H58  1  0.65163730  0.03598977  0.31878210  1
  H+  H59  1  0.86411871  0.38098068  0.00760790  1
  H+  H60  1  0.36071249  0.97099503  0.50458907  1
  H+  H61  1  0.04948327  0.15715750  0.00051684  1
  H+  H62  1  -0.02372962  0.86178486  0.50518905  1
  H+  H63  1  0.97281372  0.10556031  0.50885135  1
  H+  H64  1  0.10921443  0.48187154  0.00019403  1
  H+  H65  1  0.37219865  0.73498159  0.48950480  1
  H+  H66  1  -0.02598136  0.35932462  -0.01427061  1
  H+  H67  1  0.86607113  0.87864569  0.67075555  1
  H+  H68  1  0.76365738  0.36653527  0.16166532  1
  H+  H69  1  0.34678054  0.46740165  0.19056527  1
  H+  H70  1  0.67472050  0.09634350  0.23305734  1
  H+  H71  1  0.12115574  0.52383987  0.17049030  1
  H+  H72  1  0.65008896  0.62176391  0.32044752  1
  H+  H73  1  0.49175250  0.35400256  0.49931441  1
  H+  H74  1  0.62974742  1.04730612  0.16506853  1
  H+  H75  1  1.02356679  0.14080194  0.31491232  1
  H+  H76  1  -0.03755234  0.34809329  0.83030459  1
  H+  H77  1  0.87791904  0.51892068  0.33061390  1
  H+  H78  1  0.62187941  0.98208725  0.50070013  1
  H+  H79  1  0.87084135  0.64194138  0.33561500  1
  H+  H80  1  0.86705873  0.96854881  0.66997007  1
  H+  H81  1  0.85487313  0.37103024  0.16561070  1
  H+  H82  1  0.47737442  0.60998676  0.17196647  1
  H+  H83  1  0.76596846  0.89458218  0.82154841  1
  H+  H84  1  0.10756227  -0.02632926  0.49186102  1
  H+  H85  1  0.97043047  0.85974687  0.82741742  1
  H+  H86  1  0.15515726  0.12401839  -0.00064833  1
  H+  H87  1  0.42428743  0.40232489  0.31868068  1
  H+  H88  1  0.25897385  0.64044895  1.01513162  1
  H+  H89  1  0.49218987  0.09903210  0.99158684  1
  H+  H90  1  0.86610121  0.13553736  0.49595450  1
  H+  H91  1  0.87048806  0.27187973  0.82741848  1
  H+  H92  1  0.62282052  0.47471163  0.50340904  1
  H+  H93  1  0.73764904  0.13095989  0.32184127  1
  H+  H94  1  0.51313560  0.65696909  0.81849779  1
  H+  H95  1  0.37120038  0.73389216  0.15375145  1
  H+  H96  1  0.37764704  0.63410558  0.83805492  1
  H+  H97  1  0.86093979  0.24032040  0.34137517  1
  H+  H98  1  0.13470721  0.24553009  1.00960970  1
  H+  H99  1  0.16074885  0.33571529  0.68533720  1
  H+  H100  1  0.87034577  0.50517877  0.18121061  1
  H+  H101  1  0.53178054  0.37454542  0.67475106  1
  H+  H102  1  0.12068625  0.42606028  0.39312448  1
  H+  H103  1  0.14361465  0.56042675  0.84861706  1
  H+  H104  1  0.11469022  0.39525226  1.00246718  1
  H+  H105  1  0.24669344  0.35434236  0.65418089  1
  H+  H106  1  0.08575068  0.32421547  0.81215399  1
  H+  H107  1  0.11746858  0.64486022  0.15856890  1
  H+  H108  1  0.65373469  0.52406633  0.84780550  1
  H+  H109  1  0.60235892  0.74494832  0.81685031  1
  H+  H110  1  0.84637985  0.38064687  0.50174731  1
  H+  H111  1  0.87796830  0.59714586  0.17632271  1
  H+  H112  1  0.48316220  0.10218403  0.67049107  1
  H+  H113  1  0.37150031  0.98233447  0.34850057  1
  H+  H114  1  0.11246457  0.63841750  0.50044231  1
  H+  H115  1  0.73269457  0.85647531  0.65303913  1
  H+  H116  1  0.45973243  0.56390230  0.51591530  1
  H+  H117  1  0.35127087  0.73689097  0.01293731  1
  H+  H118  1  0.63795767  0.60050115  0.16680790  1
  H+  H119  1  0.02782382  0.89716629  0.00880920  1
  H+  H120  1  0.89844947  0.37520496  0.32876126  1
  H+  H121  1  0.09326559  0.21951987  0.49510598  1
  H+  H122  1  0.63502849  0.87487919  0.32607278  1
  H+  H123  1  0.16473131  0.28619738  0.30902041  1
  H+  H124  1  0.12300715  0.53498427  0.66219933  1
  H+  H125  1  0.09892547  0.38827429  0.14543731  1
  H+  H126  1  0.09397434  0.91271105  0.76390816  1
  H+  H127  1  0.59743456  0.92320933  0.15063506  1
  H+  H128  1  0.61492112  0.22397571  0.33407569  1
  H+  H129  1  0.20235183  0.61660951  0.32860354  1
  H+  H130  1  0.08824320  0.47838015  0.79842384  1
  H+  H131  1  0.13442616  0.10506557  0.84502904  1
  H+  H132  1  0.35374105  0.74916113  0.81692745  1
  H+  H133  1  0.62128164  0.70903900  0.16335683  1
  H+  H134  1  0.12993574  1.01160404  0.32566125  1
  H+  H135  1  0.61322443  0.71950337  0.66398535  1
  H+  H136  1  0.38631645  -0.01616987  0.67808217  1
  H+  H137  1  -0.01415010  0.37092496  0.32876911  1
  H+  H138  1  0.46718354  0.13206181  0.53151542  1
  H+  H139  1  0.54286339  0.60376946  0.00401679  1
  H+  H140  1  0.36620268  0.64275924  0.48852045  1
  H+  H141  1  0.91011844  0.57639838  0.26978130  1
  H+  H142  1  0.63805074  0.34981731  0.66068550  1
  H+  H143  1  0.37844252  0.47745984  0.66200179  1
  H+  H144  1  0.61773586  0.22597292  0.12458953  1
  H+  H145  1  0.27200407  0.14006046  0.83778874  1
  H+  H146  1  0.65619627  0.38286302  -0.01368810  1
  H+  H147  1  0.89738324  0.02555646  0.32545474  1
  H+  H148  1  0.55918839  0.42642443  1.01239042  1
  H+  H149  1  0.61561281  0.46731803  0.67687739  1
  H+  H150  1  0.10870712  0.98153615  0.15799273  1
  H+  H151  1  0.37839924  0.14380934  0.01684189  1
  H+  H152  1  0.37006839  0.62505577  0.99425817  1
  H+  H153  1  0.60817425  0.23514479  0.82709584  1
  H+  H154  1  0.35767361  0.50482302  0.82563672  1
  H+  H155  1  0.54217985  0.81026715  0.72345183  1
  H+  H156  1  0.64882818  0.36272859  0.32450757  1
  H+  H157  1  0.78481865  0.64735423  0.33256501  1
  H+  H158  1  -0.03338209  0.10770270  0.16571993  1
  H+  H159  1  0.89760708  0.86874055  -0.00762882  1
  H+  H160  1  0.26572590  0.63359849  0.66955870  1
  H+  H161  1  0.13466003  0.86481169  -0.01176275  1
  H+  H162  1  0.12462615  0.52057524  0.32805805  1
  H+  H163  1  0.34903594  0.88604787  0.15344551  1
  H+  H164  1  0.88117807  0.02224383  0.82411943  1
  H+  H165  1  0.46312746  0.87388619  0.16406839  1
  H+  H166  1  0.71634937  0.47737202  0.37619813  1
  H+  H167  1  0.45589278  0.88752270  0.83080033  1
  H+  H168  1  0.73322487  0.36543625  -0.01070951  1
  H+  H169  1  0.51559084  0.85592487  0.67506733  1
  H+  H170  1  0.96853018  0.60427153  0.51814848  1
  H+  H171  1  0.11655837  0.97255231  0.82310631  1
  H+  H172  1  0.73446778  0.10900144  0.50972768  1
  H+  H173  1  0.32264922  0.14364145  0.43344753  1
  H+  H174  1  0.40211534  0.35341191  0.64852179  1
  H+  H175  1  0.69320238  0.12138300  1.00302267  1
  H+  H176  1  0.69242178  0.56316489  0.00965408  1
  H+  H177  1  0.26702351  0.89100247  0.00226016  1
  H+  H178  1  0.85071194  0.22700782  0.00493572  1
  H+  H179  1  0.59350950  0.16138887  0.42165622  1
  H+  H180  1  0.52640725  0.38559320  0.15327900  1
  H+  H181  1  0.22234515  0.86329351  0.51192190  1
  H+  H182  1  0.86308892  0.39734955  0.82110769  1
  H+  H183  1  0.59749431  0.89293429  0.00596114  1
  H+  H184  1  0.35777236  0.12540723  0.34429009  1
  H+  H185  1  0.35954900  0.20798726  0.49039480  1
  H+  H186  1  0.38774547  0.27768025  0.17129054  1
  H+  H187  1  0.73040921  0.11410322  0.67653941  1
  H+  H188  1  0.71675593  0.66083928  0.54865828  1
  H+  H189  1  0.74914107  0.65202926  0.82302956  1
  H+  H190  1  0.11408975  0.11123737  0.67476710  1
  H+  H191  1  0.78619282  0.87435698  0.16835412  1
  H+  H192  1  1.02390752  0.13138951  0.82486662  1
  H+  H193  1  0.47707284  0.11246074  0.32372039  1
  H+  H194  1  0.98295311  0.10477148  0.66490290  1
  H+  H195  1  0.62350702  0.38553785  0.49688754  1
  H+  H196  1  0.68553009  0.81580535  0.24496066  1
  H+  H197  1  0.11794341  -0.03968582  0.66304780  1
  H+  H198  1  0.86222012  0.97140413  0.15532946  1
  H+  H199  1  0.87182264  0.13711363  0.79169807  1
  H+  H200  1  0.12751057  0.10700882  0.17402787  1
  H+  H201  1  0.88963708  0.87516452  0.83159517  1
  H+  H202  1  0.13298719  0.39748171  0.32794741  1
  H+  H203  1  0.90073858  0.59519463  1.07046846  1
  H+  H204  1  0.24041616  0.11702050  1.00060527  1
  H+  H205  1  0.86738278  -0.02472845  0.49490600  1
  H+  H206  1  0.64135664  0.36629834  0.83933789  1
  H+  H207  1  0.84405259  0.75466128  0.81500865  1
  H+  H208  1  0.62203361  0.89317758  0.49427679  1
  H+  H209  1  0.89480942  0.86183480  0.16499816  1
  H+  H210  1  0.88831032  0.86422643  0.31841928  1
  H+  H211  1  0.88618407  0.51977830  0.02661677  1
  H+  H212  1  0.01747871  0.88516845  0.15456157  1
  H+  H213  1  0.22328830  0.09408535  0.65697767  1
  H+  H214  1  0.10984306  0.65613756  0.82558540  1
  H+  H215  1  0.45555525  0.85659495  0.00044436  1
  H+  H216  1  0.86589945  0.22390696  0.69164332  1
  H+  H217  1  0.10865139  0.72625884  0.50051349  1
  H+  H218  1  0.14486956  0.63357662  0.65893990  1
  H+  H219  1  0.12352563  0.81111549  0.66794917  1
  H+  H220  1  0.64812339  0.11296710  0.50781534  1
  H+  H221  1  0.13447069  0.10994521  0.50577729  1
  H+  H222  1  0.02251129  0.65595655  0.80310571  1
  H+  H223  1  0.63721347  0.78699940  0.33126290  1
  H+  H224  1  0.12842540  0.39447539  0.49359386  1
  H+  H225  1  0.42538621  0.09976754  0.91045150  1
  H+  H226  1  0.13543565  0.10427039  0.32083010  1
  H+  H227  1  0.85762400  0.47531706  0.49842409  1
  H+  H228  1  0.27027169  0.35537660  0.50361443  1
  H+  H229  1  0.40682092  0.60274358  0.89719079  1
  H+  H230  1  0.35916161  0.20805783  0.66498905  1
  H+  H231  1  0.77321338  0.39423323  0.82189305  1
  H+  H232  1  0.09849919  0.40208158  0.65144287  1
  H+  H233  1  0.08952476  0.15583568  0.76985249  1
  H+  H234  1  0.53294440  0.10667934  0.47440138  1
  H+  H235  1  0.14930526  0.78582852  0.83663864  1
  H+  H236  1  0.60461043  0.21690728  0.67183040  1
  H+  H237  1  0.12197670  0.98841437  0.01169014  1
  H+  H238  1  0.54162951  0.64346406  0.33101186  1
  H+  H239  1  -0.01544635  0.40823156  0.44750990  1
  H+  H240  1  0.67212460  0.89194333  0.15066777  1
  H+  H241  1  0.63978501  0.63322933  0.50437574  1
  H+  H242  1  0.85056468  0.21651439  0.50277754  1
  H+  H243  1  0.43316900  0.31724629  0.59469972  1
  H+  H244  1  -0.03807803  0.35821353  0.66428456  1
  H+  H245  1  0.86638906  0.71756001  0.14831589  1
  H+  H246  1  0.83237172  0.13106052  1.00385457  1
  H+  H247  1  0.38057686  0.76614329  0.65408630  1
  H+  H248  1  0.43466933  0.63470246  0.35802490  1
  H+  H249  1  0.85895689  0.22494683  0.16160805  1
  H+  H250  1  0.34811683  0.37970020  0.18545823  1
  H+  H251  1  0.35647745  0.23411047  0.82983427  1
  H+  H252  1  0.89129218  0.03549426  0.98524576  1
  H+  H253  1  0.77924123  0.89505491  0.34108293  1
  H+  H254  1  0.64908392  0.56903882  0.60867599  1
  H+  H255  1  0.91547271  0.82320587  0.59887726  1
  H+  H256  1  0.41051761  0.58049037  0.60273679  1
  H+  H257  1  0.89862760  0.61603955  0.75721056  1
  H+  H258  1  0.35458472  0.63168074  0.67301151  1
  H+  H259  1  0.77759396  0.63792593  0.48190866  1
  H+  H260  1  0.23108467  0.64669444  0.84356143  1
  H+  H261  1  0.88253770  0.60597983  0.51159055  1
  H+  H262  1  0.37308596  0.40460234  1.01612393  1
  H+  H263  1  0.53444986  0.94708633  0.35912834  1
  H+  H264  1  0.80275388  0.66355217  0.05644243  1
  H+  H265  1  0.52962374  0.39753423  0.82366198  1
  H+  H266  1  0.45966750  0.84037460  0.31487431  1
  H+  H267  1  0.48262516  0.86896521  0.50523219  1
  H+  H268  1  0.72389607  0.35864655  0.50205054  1
  H+  H269  1  0.36137004  0.50460548  0.51107792  1
  H+  H270  1  0.90281923  0.78615152  0.98385745  1
  H+  H271  1  0.36749761  0.85840980  1.00071386  1
  H+  H272  1  0.65870850  0.53679640  0.32511940  1
  H+  H273  1  0.33357529  0.67053030  0.08647578  1
  H+  H274  1  0.40228420  0.34959484  0.49973299  1
  H+  H275  1  0.77569867  0.63017550  0.15231652  1
  H+  H276  1  0.09549140  0.16884395  0.26679725  1
  H+  H277  1  0.88860779  0.77195177  0.50251894  1
  H+  H278  1  0.23345083  0.62630374  0.50722114  1
  H+  H279  1  0.29792415  0.87839197  0.83119873  1
  H+  H280  1  0.23730298  0.37744777  -0.00178433  1
  H+  H281  1  0.26017275  0.88676606  0.15680644  1
  H+  H282  1  0.39030075  0.86523251  0.50651647  1
  H+  H283  1  0.09083303  0.61240220  0.35102855  1
  H+  H284  1  0.57224747  0.92722395  0.77344488  1
  H+  H285  1  0.10306445  0.22281612  0.15718695  1
  H+  H286  1  0.77440076  0.37839411  0.33886700  1
  H+  H287  1  0.73612025  0.12783612  0.16691941  1
  H+  H288  1  0.42425370  0.60134825  0.23192455  1
  H+  H289  1  0.15988446  0.06649234  0.59913353  1
  H+  H290  1  0.56401085  0.94453406  0.09166037  1
  H+  H291  1  0.29598049  0.45571409  0.77126033  1
  H+  H292  1  0.16923965  0.83801050  0.92920454  1
  H+  H293  1  0.37360452  0.01520699  0.17061743  1
  H+  H294  1  0.14425174  0.57814968  0.23117513  1
  H+  H295  1  0.85022615  0.58429561  0.93419372  1
  H+  H296  1  0.17446592  0.33859752  0.93981645  1
  H+  H297  1  0.07694309  0.91391379  0.39710948  1
  H+  H298  1  0.14721090  0.81198646  0.26462486  1
  H+  H299  1  0.22158338  0.10574422  0.50552107  1
  H+  H300  1  0.06615726  0.42033573  0.09019313  1
  H+  H301  1  0.92382377  0.83112893  0.22428088  1
  H+  H302  1  0.59820513  0.67795309  0.39161965  1
  H+  H303  1  0.24439147  0.42061010  0.47436563  1
  H+  H304  1  0.08313518  0.16375744  0.10008136  1
  H+  H305  1  0.32324054  0.92200982  0.06352168  1
  H+  H306  1  0.63984316  0.84921830  0.65559202  1
  H+  H307  1  0.11983138  0.70732378  0.73414166  1
  H+  H308  1  0.57586836  0.67179133  0.72798793  1
  H+  H309  1  -0.00657011  0.26627409  0.77881910  1
  H+  H310  1  0.63004213  0.75032122  0.48596534  1
  H+  H311  1  0.87403473  0.35710284  0.67239953  1
  H+  H312  1  0.82846204  0.39871475  0.06999738  1
  H+  H313  1  0.35419752  0.11925782  0.67798986  1
  H+  H314  1  0.67484204  0.58054336  0.22706567  1
  H+  H315  1  0.87082753  0.30805224  0.58723965  1
  H+  H316  1  0.80727493  0.68218965  0.75496319  1
  H+  H317  1  0.70518404  0.84925855  0.99569176  1
  H+  H318  1  0.47489272  0.61334548  0.66007599  1
  H+  H319  1  0.61431880  0.43878869  0.06939638  1
  H+  H320  1  0.89164628  0.77666844  0.31894451  1
  H+  H321  1  0.41259618  0.06675015  0.61407658  1
  H+  H322  1  0.84161313  0.91788010  0.39787286  1
  H+  H323  1  0.57074921  0.17043607  0.76891123  1
  H+  H324  1  0.34604430  0.42460778  0.40471878  1
  H+  H325  1  0.66275275  0.32286466  0.26307641  1
  H+  H326  1  0.58928630  0.93160756  0.40724073  1
  H+  H327  1  0.90894239  0.32632623  0.92909123  1
  H+  H328  1  0.91700926  0.07947241  0.57023311  1
  H+  H329  1  0.09361958  0.67681679  0.09735648  1
  H+  H330  1  0.61934036  0.47027136  0.16186473  1
  H+  H331  1  0.68001539  0.09069876  0.61348788  1
  H+  H332  1  0.12160406  0.84122234  0.32328875  1
  H+  H333  1  0.33618841  0.91749497  0.44268296  1
  H+  H334  1  0.13115283  0.33143980  0.21663214  1
  H+  H335  1  0.84036178  0.43209790  0.72962710  1
  H+  H336  1  0.63541522  0.08437075  0.90407757  1
  H+  H337  1  0.08294801  0.92543483  0.08547743  1
  H+  H338  1  0.84309436  0.67054562  0.42644179  1
  H+  H339  1  0.43974956  0.33340420  0.96259159  1
  H+  H340  1  0.91182011  0.07794918  0.26443299  1
  H+  H341  1  0.16730579  0.07636888  0.90333478  1
  H+  H342  1  0.81107774  0.87833439  0.07056104  1
  H+  H343  1  0.67652499  0.83579737  0.56029629  1
  H+  H344  1  0.41832115  0.83032223  0.59597633  1
  H+  H345  1  0.89696667  0.10984024  0.67065744  1
  H+  H346  1  0.33898657  0.16442392  0.07636033  1
  H+  H347  1  0.17141400  0.60210950  0.94118269  1
  H+  H348  1  0.82901065  0.41235968  0.40145836  1
  H+  H349  1  0.23745824  0.35974864  0.26560028  1
  H+  H350  1  0.31820368  0.66763205  0.39652413  1
  H+  H351  1  0.62661037  0.43841835  0.40703988  1
  H+  H352  1  0.67490081  0.33785596  0.89737602  1
  H+  H353  1  0.40293899  0.82950466  0.22249072  1
  H+  H354  1  0.14457859  0.26219340  0.84503050  1
  H+  H355  1  0.84932349  0.59769810  0.90200600  1
  H+  H356  1  0.38151579  0.88226202  0.67254312  1
  H+  H357  1  0.78319443  0.79454683  0.03126398  1
  H+  H358  1  0.06811856  0.38946297  0.72041957  1
  H+  H359  1  0.41061685  0.07672081  0.26815661  1
  H+  H360  1  0.15692634  0.07148371  0.23273656  1
  H+  H361  1  0.03665666  0.28335483  0.55404488  1
  H+  H362  1  0.35833651  0.91030148  0.73963382  1
  H+  H363  1  0.69848135  0.58785558  0.90548968  1
  H+  H364  1  0.62481416  0.35047609  0.16841802  1
  H+  H365  1  0.36248734  0.41383757  0.71637308  1
  H+  H366  1  0.13036037  0.61813028  0.99992039  1
  H+  H367  1  0.43419365  0.35103734  0.22257467  1
  H+  H368  1  0.38443071  0.13621154  0.85109028  1
  H+  H369  1  0.90211539  0.52787484  0.63194058  1
  H+  H370  1  0.65686511  0.31611501  0.59893170  1
  H+  H371  1  0.59297009  0.41854224  0.76832198  1
  H+  H372  1  0.91950697  0.33036315  0.23390653  1
  H+  H373  1  0.90031254  0.08440116  0.88019882  1
  H+  H374  1  0.58647920  0.65940211  0.09923907  1
  H+  H375  1  0.32448653  0.67855056  0.76357116  1
  H+  H376  1  0.39257828  0.02574516  0.99087511  1
  H+  H377  1  0.07905223  0.16877287  0.43286269  1
  H+  H378  1  0.12839659  0.31073130  0.58075409  1
  H+  H379  1  0.65726630  0.84465421  0.89438848  1
  H+  H380  1  0.40692707  0.36725419  0.87937219  1
  H+  H381  1  0.47992888  0.13482102  0.84304554  1
  H+  H382  1  0.16976039  0.58613998  0.56439266  1
  H+  H383  1  0.82497913  0.91359342  0.76177560  1
  O2-  O384  1  0.07660368  0.16097862  0.14523385  1
  O2-  O385  1  0.07853957  0.16318072  0.47702957  1
  O2-  O386  1  0.08655987  0.15996073  0.81503616  1
  O2-  O387  1  0.06520436  0.41661654  0.13565715  1
  O2-  O388  1  0.16724696  0.44343415  0.46732350  1
  O2-  O389  1  0.04364132  0.32458509  0.78274130  1
  O2-  O390  1  0.09420908  0.68120738  0.14231806  1
  O2-  O391  1  0.07755786  0.66456353  0.48741060  1
  O2-  O392  1  0.08786521  0.68866625  0.80252267  1
  O2-  O393  1  0.07943110  0.92174888  0.13797177  1
  O2-  O394  1  0.07591466  0.91345631  0.47608037  1
  O2-  O395  1  0.08913201  0.91193237  0.80867440  1
  O2-  O396  1  0.32802533  0.16634090  0.15287524  1
  O2-  O397  1  0.32352271  0.14626295  0.48054209  1
  O2-  O398  1  0.33458756  0.17198202  0.82760905  1
  O2-  O399  1  0.31139633  0.40477642  0.19735327  1
  O2-  O400  1  0.29348477  0.40862919  0.48046667  1
  O2-  O401  1  0.32652153  0.44613721  0.80421739  1
  O2-  O402  1  0.34548408  0.67311555  0.13720725  1
  O2-  O403  1  0.33824633  0.67424402  0.47339573  1
  O2-  O404  1  0.32653198  0.68595217  0.80865636  1
  O2-  O405  1  0.32260928  0.92062484  0.14101607  1
  O2-  O406  1  0.33134097  0.91164976  0.48885881  1
  O2-  O407  1  0.35674634  0.90361888  0.81254766  1
  O2-  O408  1  0.59374323  0.22741477  0.16443450  1
  O2-  O409  1  0.58994902  0.15622319  0.46792678  1
  O2-  O410  1  0.56816373  0.17369290  0.81427696  1
  O2-  O411  1  0.58910105  0.41096575  0.14403974  1
  O2-  O412  1  0.59604882  0.41989648  0.48149453  1
  O2-  O413  1  0.59090809  0.42219845  0.81388009  1
  O2-  O414  1  0.58154930  0.65269676  0.14426416  1
  O2-  O415  1  0.59445531  0.68811951  0.46899140  1
  O2-  O416  1  0.56958435  0.68713821  0.79811781  1
  O2-  O417  1  0.56504849  0.95125405  0.13773860  1
  O2-  O418  1  0.59037327  0.92315065  0.48152592  1
  O2-  O419  1  0.56373293  0.92684711  0.81768211  1
  O2-  O420  1  0.82395703  0.16445084  0.14488217  1
  O2-  O421  1  0.83344173  0.16264223  0.47973530  1
  O2-  O422  1  0.86995739  0.18744625  0.77341434  1
  O2-  O423  1  0.82434383  0.40022064  0.14875159  1
  O2-  O424  1  0.82540820  0.41532140  0.48035082  1
  O2-  O425  1  0.83290988  0.42626065  0.80449731  1
  O2-  O426  1  0.83283237  0.65873197  0.13138944  1
  O2-  O427  1  0.83918626  0.66674221  0.47215546  1
  O2-  O428  1  0.79048608  0.70219072  0.79411884  1
  O2-  O429  1  0.83825069  0.90954500  0.14326917  1
  O2-  O430  1  0.83829833  0.91623290  0.47697180  1
  O2-  O431  1  0.82657559  0.92139125  0.80691229  1
  O2-  O432  1  0.15573690  0.07360369  0.18651031  1
  O2-  O433  1  0.16098625  0.07697183  0.52122507  1
  O2-  O434  1  0.16642746  0.07567015  0.85818896  1
  O2-  O435  1  0.14561745  0.32948190  0.17395997  1
  O2-  O436  1  0.09588759  0.30256073  0.54212713  1
  O2-  O437  1  0.16457793  0.32247503  0.85891112  1
  O2-  O438  1  0.15482758  0.58259020  0.18709790  1
  O2-  O439  1  0.17294807  0.58584548  0.51897402  1
  O2-  O440  1  0.17284936  0.61976092  0.86347566  1
  O2-  O441  1  0.16858674  0.83379623  0.18094120  1
  O2-  O442  1  0.15990101  0.83406713  0.52257767  1
  O2-  O443  1  0.18763135  0.84502535  0.85302391  1
  O2-  O444  1  0.40283804  0.07528731  0.18924849  1
  O2-  O445  1  0.40931052  0.08307486  0.53575046  1
  O2-  O446  1  0.42020644  0.10633250  0.86390956  1
  O2-  O447  1  0.42018396  0.34103442  0.17823088  1
  O2-  O448  1  0.43061693  0.31845129  0.51336711  1
  O2-  O449  1  0.40960143  0.35619367  0.83628348  1
  O2-  O450  1  0.41795784  0.58904014  0.18807541  1
  O2-  O451  1  0.40639553  0.56479655  0.52200741  1
  O2-  O452  1  0.40514216  0.60039203  0.85184869  1
  O2-  O453  1  0.40393666  0.83018580  0.17707715  1
  O2-  O454  1  0.42164002  0.83416355  0.51909941  1
  O2-  O455  1  0.39183987  0.85206377  0.83862014  1
  O2-  O456  1  0.67371075  0.10271805  0.18568016  1
  O2-  O457  1  0.67503438  0.08265072  0.52758876  1
  O2-  O458  1  0.64145319  0.08239806  0.85962165  1
  O2-  O459  1  0.65254855  0.31650189  0.18493538  1
  O2-  O460  1  0.66187577  0.32597828  0.51571751  1
  O2-  O461  1  0.67203930  0.33520332  0.85100290  1
  O2-  O462  1  0.67351539  0.57584400  0.18165349  1
  O2-  O463  1  0.67455332  0.61138103  0.52523456  1
  O2-  O464  1  0.68463308  0.58478210  0.86203649  1
  O2-  O465  1  0.70317353  0.79041037  0.21128952  1
  O2-  O466  1  0.67640217  0.83949439  0.51440418  1
  O2-  O467  1  0.66022868  0.85100446  0.84950771  1
  O2-  O468  1  0.90596608  0.07418754  0.17999664  1
  O2-  O469  1  0.91331093  0.07848303  0.52477870  1
  O2-  O470  1  0.91325277  0.08508061  0.83658612  1
  O2-  O471  1  0.91138817  0.32314715  0.18888330  1
  O2-  O472  1  0.84191246  0.29421761  0.54599342  1
  O2-  O473  1  0.90462576  0.32852728  0.84692822  1
  O2-  O474  1  0.89694475  0.56320094  0.19977904  1
  O2-  O475  1  0.90682109  0.57198742  0.52925528  1
  O2-  O476  1  0.91883685  0.60756798  0.79641599  1
  O2-  O477  1  0.92530174  0.83068258  0.17837447  1
  O2-  O478  1  0.91521409  0.83062680  0.52053575  1
  O2-  O479  1  0.91016040  0.83447582  0.84125294  1
  O2-  O480  1  0.16341001  0.07176772  0.30724564  1
  O2-  O481  1  0.16030055  0.06073408  0.64433576  1
  O2-  O482  1  0.17929443  0.08738498  0.98618894  1
  O2-  O483  1  0.20169885  0.34966502  0.30256524  1
  O2-  O484  1  0.18240331  0.32151528  0.64902142  1
  O2-  O485  1  0.17507332  0.34246579  0.98496423  1
  O2-  O486  1  0.14099724  0.58077334  0.31661448  1
  O2-  O487  1  0.16184809  0.59164479  0.64375836  1
  O2-  O488  1  0.16516461  0.59060821  0.98576879  1
  O2-  O489  1  0.13030039  0.79525035  0.30719926  1
  O2-  O490  1  0.13830186  0.86550582  0.64633685  1
  O2-  O491  1  0.16329210  0.83316449  0.97476217  1
  O2-  O492  1  0.41495841  0.08043470  0.31335584  1
  O2-  O493  1  0.41846335  0.06349645  0.65898612  1
  O2-  O494  1  0.43217428  0.08688465  0.97879092  1
  O2-  O495  1  0.46406613  0.39017724  0.29540742  1
  O2-  O496  1  0.43020272  0.31922847  0.63969836  1
  O2-  O497  1  0.43392474  0.34323424  1.00537394  1
  O2-  O498  1  0.42080523  0.59718264  0.32259343  1
  O2-  O499  1  0.41211480  0.57912178  0.64781136  1
  O2-  O500  1  0.40764344  0.60334793  0.97653449  1
  O2-  O501  1  0.40175053  0.82378908  0.30113726  1
  O2-  O502  1  0.41710172  0.82785964  0.64175188  1
  O2-  O503  1  0.39344834  0.82159530  0.99093944  1
  O2-  O504  1  0.67755892  0.09391861  0.30055985  1
  O2-  O505  1  0.67337500  0.09174328  0.65798072  1
  O2-  O506  1  0.63368694  0.08441462  0.98726925  1
  O2-  O507  1  0.66950308  0.32483754  0.30835217  1
  O2-  O508  1  0.65601093  0.31017223  0.64349336  1
  O2-  O509  1  0.67599755  0.34473496  0.97014369  1
  O2-  O510  1  0.68073655  0.59289572  0.30384936  1
  O2-  O511  1  0.65643893  0.57231031  0.65301924  1
  O2-  O512  1  0.71225628  0.62089013  0.98946633  1
  O2-  O513  1  0.66824419  0.84681467  0.31530530  1
  O2-  O514  1  0.67323952  0.82553552  0.63521506  1
  O2-  O515  1  0.64840491  0.83243531  0.97684331  1
  O2-  O516  1  0.92614505  0.08454550  0.30824220  1
  O2-  O517  1  0.92267976  0.07928158  0.64959742  1
  O2-  O518  1  0.85773827  0.05407474  0.96142664  1
  O2-  O519  1  0.92664531  0.34353959  0.31257779  1
  O2-  O520  1  0.89893777  0.32006492  0.65900429  1
  O2-  O521  1  0.91192072  0.32584414  0.97417117  1
  O2-  O522  1  0.91082342  0.57996236  0.31648078  1
  O2-  O523  1  0.92153945  0.51248001  0.66926731  1
  O2-  O524  1  0.91365621  0.58362134  1.02976549  1
  O2-  O525  1  0.91868817  0.83552861  0.30063828  1
  O2-  O526  1  0.91521245  0.82095843  0.64440140  1
  O2-  O527  1  0.93773257  0.84894584  0.98051485  1
  O2-  O528  1  0.10398627  0.18226462  0.02221784  1
  O2-  O529  1  0.09020446  0.17607293  0.31030229  1
  O2-  O530  1  0.08845941  0.14671648  0.69036767  1
  O2-  O531  1  0.07756772  0.41996599  0.01272195  1
  O2-  O532  1  0.10149045  0.42086540  0.35009353  1
  O2-  O533  1  0.07025794  0.41943353  0.68132251  1
  O2-  O534  1  0.08252237  0.66779487  0.01886642  1
  O2-  O535  1  0.05221310  0.63207825  0.37247316  1
  O2-  O536  1  0.14431301  0.72383684  0.69112267  1
  O2-  O537  1  0.08841899  0.92739712  0.02780949  1
  O2-  O538  1  0.08053251  0.91729513  0.35182384  1
  O2-  O539  1  0.08739015  0.89785951  0.67791066  1
  O2-  O540  1  0.34466544  0.17064823  0.03085189  1
  O2-  O541  1  0.32459876  0.15005309  0.36345606  1
  O2-  O542  1  0.32055078  0.14865937  0.67898168  1
  O2-  O543  1  0.33722314  0.43115765  0.02302627  1
  O2-  O544  1  0.35528192  0.43550647  0.36062838  1
  O2-  O545  1  0.35323890  0.41421399  0.67252237  1
  O2-  O546  1  0.32182728  0.67123412  0.02837811  1
  O2-  O547  1  0.30768892  0.66563533  0.35149455  1
  O2-  O548  1  0.32640764  0.66513916  0.68489852  1
  O2-  O549  1  0.32723572  0.92211567  0.01801704  1
  O2-  O550  1  0.35165367  0.92780074  0.37139619  1
  O2-  O551  1  0.35565420  0.91516358  0.69362718  1
  O2-  O552  1  0.58372463  0.11568962  0.02020093  1
  O2-  O553  1  0.58579196  0.16290646  0.34870887  1
  O2-  O554  1  0.57469442  0.15741359  0.69149155  1
  O2-  O555  1  0.61967784  0.45525247  0.02543121  1
  O2-  O556  1  0.65551985  0.45223556  0.36624841  1
  O2-  O557  1  0.59076473  0.40733846  0.69218156  1
  O2-  O558  1  0.59177861  0.65771152  0.01777402  1
  O2-  O559  1  0.60114241  0.67822261  0.34609178  1
  O2-  O560  1  0.57695541  0.66140525  0.68233590  1
  O2-  O561  1  0.56498827  0.92060133  0.02056227  1
  O2-  O562  1  0.58123132  0.93440069  0.36159439  1
  O2-  O563  1  0.56568632  0.86264366  0.69919886  1
  O2-  O564  1  0.81373249  0.16845127  0.02326151  1
  O2-  O565  1  0.81904911  0.18090272  0.35446716  1
  O2-  O566  1  0.84657331  0.16468307  0.70894563  1
  O2-  O567  1  0.83317350  0.40888065  0.02520696  1
  O2-  O568  1  0.83304856  0.41544890  0.35601856  1
  O2-  O569  1  0.84507239  0.42875165  0.68372404  1
  O2-  O570  1  0.79613463  0.68570280  0.01557671  1
  O2-  O571  1  0.84392090  0.67631624  0.35010339  1
  O2-  O572  1  0.82924711  0.65939708  0.69368775  1
  O2-  O573  1  0.79645639  0.85466129  0.02802608  1
  O2-  O574  1  0.84015479  0.91780558  0.35241325  1
  O2-  O575  1  0.83355151  0.90767392  0.68374678  1
