# generated using pymatgen
data_H2O
_symmetry_space_group_name_H-M   'P 1'
_cell_length_a   17.96506814
_cell_length_b   17.96014476
_cell_length_c   21.98585286
_cell_angle_alpha   89.94927247
_cell_angle_beta   90.04479473
_cell_angle_gamma   119.98456042
_symmetry_Int_Tables_number   1
_chemical_formula_structural   H2O
_chemical_formula_sum   'H384 O192'
_cell_volume   6144.40725175
_cell_formula_units_Z   192
loop_
 _symmetry_equiv_pos_site_id
 _symmetry_equiv_pos_as_xyz
  1  'x, y, z'
loop_
 _atom_type_symbol
 _atom_type_oxidation_number
  H+  1.0
  O2-  -2.0
loop_
 _atom_site_type_symbol
 _atom_site_label
 _atom_site_symmetry_multiplicity
 _atom_site_fract_x
 _atom_site_fract_y
 _atom_site_fract_z
 _atom_site_occupancy
  H+  H0  1  0.62267558  0.03352945  0.82252410  1
  H+  H1  1  0.15559200  0.76927953  0.83326207  1
  H+  H2  1  0.12579698  0.23673551  0.33318812  1
  H+  H3  1  0.72278522  0.36740670  0.50305366  1
  H+  H4  1  0.79663105  0.90114849  0.81336782  1
  H+  H5  1  0.32101224  0.91090968  0.42870967  1
  H+  H6  1  0.47236761  0.61494493  0.50407166  1
  H+  H7  1  0.33617221  0.25142056  0.15221096  1
  H+  H8  1  0.52869070  0.39204463  0.01181015  1
  H+  H9  1  0.42521248  0.59572152  0.60058054  1
  H+  H10  1  0.35405046  0.23773993  0.17793476  1
  H+  H11  1  0.12309227  0.98851639  0.34109633  1
  H+  H12  1  0.36529778  0.88546320  0.80334786  1
  H+  H13  1  0.92115722  0.08070893  0.85183077  1
  H+  H14  1  0.40631262  0.36682523  0.84951112  1
  H+  H15  1  0.38241816  0.98357513  0.17316559  1
  H+  H16  1  0.93115642  0.08940182  0.22505801  1
  H+  H17  1  0.89708496  0.79161150  0.31770662  1
  H+  H18  1  0.13075656  0.62894286  0.48876466  1
  H+  H19  1  -0.01653267  0.61527346  0.85439335  1
  H+  H20  1  0.27411039  0.88099365  0.82016602  1
  H+  H21  1  0.83666778  0.42120090  0.10684651  1
  H+  H22  1  0.38680869  0.11063757  0.50131082  1
  H+  H23  1  0.24463716  0.19928203  0.85222864  1
  H+  H24  1  0.37206511  0.71694295  1.01087895  1
  H+  H25  1  0.95557715  0.35841314  0.86604315  1
  H+  H26  1  0.42841012  0.59394196  0.90017340  1
  H+  H27  1  0.64671890  0.37268261  0.18041423  1
  H+  H28  1  0.76709872  0.97670061  0.85492504  1
  H+  H29  1  0.63045334  0.61688197  0.17492179  1
  H+  H30  1  0.86637269  0.74089051  0.48963170  1
  H+  H31  1  0.61247679  0.22222486  0.49115896  1
  H+  H32  1  0.63663879  0.01867641  0.17126218  1
  H+  H33  1  0.09696741  0.34919788  0.84379960  1
  H+  H34  1  0.30242045  0.39492721  0.86083667  1
  H+  H35  1  0.72718313  0.10698613  0.17222494  1
  H+  H36  1  0.20583393  0.70585461  0.77628517  1
  H+  H37  1  0.46503732  0.84954086  0.32725959  1
  H+  H38  1  0.35697501  0.47989758  0.16549195  1
  H+  H39  1  0.39825341  0.62266936  0.84125422  1
  H+  H40  1  0.24635594  0.89959198  0.66604805  1
  H+  H41  1  0.85749631  0.48186156  0.49443385  1
  H+  H42  1  0.51981459  0.63807910  0.34771653  1
  H+  H43  1  0.39039405  0.85759817  0.17772924  1
  H+  H44  1  0.79621371  0.38586745  0.34911706  1
  H+  H45  1  0.60432049  0.96408231  0.33685954  1
  H+  H46  1  0.63022944  0.39448155  0.83870097  1
  H+  H47  1  0.09890956  0.48102904  0.84821429  1
  H+  H48  1  0.89037645  0.91107624  0.14431341  1
  H+  H49  1  0.37623596  0.23409443  0.34115838  1
  H+  H50  1  0.36270992  0.47247665  0.35093052  1
  H+  H51  1  0.86571384  0.23336308  0.67579671  1
  H+  H52  1  0.49034328  0.11600125  0.18180603  1
  H+  H53  1  0.65496682  0.83307729  0.57591495  1
  H+  H54  1  0.02291690  0.99586029  0.88494336  1
  H+  H55  1  0.37860527  0.60715232  0.33611099  1
  H+  H56  1  0.14568328  0.86675055  0.16568424  1
  H+  H57  1  0.58185589  0.41279829  0.43109377  1
  H+  H58  1  0.14472343  0.13070686  0.98498113  1
  H+  H59  1  0.97236204  0.35790716  0.17729344  1
  H+  H60  1  0.62991981  0.85280415  0.32210161  1
  H+  H61  1  0.51720364  0.86055270  1.01003667  1
  H+  H62  1  0.16207616  0.29504665  0.19818519  1
  H+  H63  1  0.53924055  0.63893349  0.82563984  1
  H+  H64  1  0.02693692  0.64659902  0.16095420  1
  H+  H65  1  0.15521049  0.63087070  0.82449880  1
  H+  H66  1  0.85304313  0.38591848  0.84718358  1
  H+  H67  1  0.61817269  0.14011287  0.16949149  1
  H+  H68  1  0.64261842  0.65863138  0.00779492  1
  H+  H69  1  0.49817833  0.88013586  0.80329493  1
  H+  H70  1  0.01293331  0.17493280  0.11444839  1
  H+  H71  1  0.21100584  0.55371939  0.86063491  1
  H+  H72  1  0.41463584  0.15193152  0.84316879  1
  H+  H73  1  0.35141785  0.99623810  0.66722117  1
  H+  H74  1  0.89017640  0.33498854  0.33520113  1
  H+  H75  1  0.88479762  0.60142701  0.65596089  1
  H+  H76  1  0.37554710  0.60715050  0.18559620  1
  H+  H77  1  0.73375348  0.62415398  0.65689172  1
  H+  H78  1  0.61435902  0.13144471  0.67204180  1
  H+  H79  1  0.64136763  0.61354895  0.83806530  1
  H+  H80  1  0.37694907  0.48138159  0.83601802  1
  H+  H81  1  0.98084377  0.36358081  0.65462600  1
  H+  H82  1  0.14723316  0.53093300  0.64170545  1
  H+  H83  1  0.88935106  0.11654503  0.16884823  1
  H+  H84  1  0.09735451  0.56228772  0.33651835  1
  H+  H85  1  0.75741964  0.14653683  0.82677919  1
  H+  H86  1  0.86854902  0.64340843  0.00760904  1
  H+  H87  1  0.86194809  0.62540766  0.83377504  1
  H+  H88  1  0.12998139  0.77065319  0.98946813  1
  H+  H89  1  0.63978573  0.52570378  0.99564769  1
  H+  H90  1  0.89685951  0.01373981  0.15267685  1
  H+  H91  1  0.63206810  0.26760002  0.64800246  1
  H+  H92  1  0.96998056  0.57856595  0.34406229  1
  H+  H93  1  0.31858181  0.56568058  0.02683373  1
  H+  H94  1  0.63939448  0.02428616  0.68562130  1
  H+  H95  1  0.63793620  0.27565914  0.99103287  1
  H+  H96  1  0.87112854  0.11796293  0.65571004  1
  H+  H97  1  0.31483457  0.15394419  0.71287841  1
  H+  H98  1  0.85793002  0.98658540  0.66425737  1
  H+  H99  1  0.52432169  0.13291470  0.48830993  1
  H+  H100  1  0.74349074  0.64149681  0.50246904  1
  H+  H101  1  0.67572863  0.80968603  0.98336717  1
  H+  H102  1  0.34932055  0.96827747  0.48873843  1
  H+  H103  1  0.85201389  0.89176260  0.49117272  1
  H+  H104  1  0.12483669  0.49261441  0.33247635  1
  H+  H105  1  0.13990984  0.26553631  0.49926631  1
  H+  H106  1  0.08757850  0.67347637  0.06926988  1
  H+  H107  1  0.65364321  0.28185769  0.33302151  1
  H+  H108  1  0.77048005  0.62336999  0.83082125  1
  H+  H109  1  0.25557865  0.34772298  0.68025546  1
  H+  H110  1  0.63475682  0.86820255  0.68130380  1
  H+  H111  1  0.77187380  0.64818126  0.15954640  1
  H+  H112  1  0.64411502  0.63945335  0.50384059  1
  H+  H113  1  0.13785263  0.01822260  0.49755560  1
  H+  H114  1  0.62612280  0.48791405  0.16204572  1
  H+  H115  1  0.11266321  0.01069107  0.65550707  1
  H+  H116  1  0.10770517  0.36281672  0.49266616  1
  H+  H117  1  0.56652310  0.65974497  0.10595624  1
  H+  H118  1  0.61215572  0.37405122  0.49373105  1
  H+  H119  1  0.77568037  0.37725789  0.65336471  1
  H+  H120  1  0.19339253  0.10508366  0.65422935  1
  H+  H121  1  0.59734785  0.16772102  0.39775702  1
  H+  H122  1  0.00815322  0.88090479  0.66617293  1
  H+  H123  1  0.61722297  0.09153364  0.52236466  1
  H+  H124  1  0.86371835  0.46622579  0.65329253  1
  H+  H125  1  0.64576645  0.10759980  0.32419488  1
  H+  H126  1  0.97814306  0.86885776  0.98878240  1
  H+  H127  1  0.02667776  0.35818574  0.34245884  1
  H+  H128  1  0.37306972  0.76185688  0.32734863  1
  H+  H129  1  0.31162086  0.92997465  0.73056561  1
  H+  H130  1  0.84940515  0.19681991  1.01046071  1
  H+  H131  1  0.62307555  0.47993655  0.65620731  1
  H+  H132  1  0.19582078  0.21382755  0.10252217  1
  H+  H133  1  0.92419650  0.58736275  0.91434009  1
  H+  H134  1  0.89681864  0.10406866  0.31810620  1
  H+  H135  1  0.37214672  0.78688776  0.66048331  1
  H+  H136  1  0.60013785  0.72156028  0.16402099  1
  H+  H137  1  0.88497098  0.78744307  0.16128347  1
  H+  H138  1  0.27651059  0.64619225  0.66535467  1
  H+  H139  1  0.10421328  0.87915053  0.48893005  1
  H+  H140  1  0.39746159  0.37804545  1.00105241  1
  H+  H141  1  0.29313333  0.66060058  0.83141681  1
  H+  H142  1  0.11451971  0.96921267  0.15722486  1
  H+  H143  1  0.66933279  0.58454957  0.90167057  1
  H+  H144  1  0.25967610  0.40558962  -0.00324044  1
  H+  H145  1  0.33416092  0.41401281  0.44024847  1
  H+  H146  1  0.20610257  0.72784149  0.38161062  1
  H+  H147  1  0.48238750  0.10249498  0.65515094  1
  H+  H148  1  0.53039647  0.64138147  0.67078407  1
  H+  H149  1  0.62886790  0.61220206  0.33044853  1
  H+  H150  1  0.12014674  0.73237175  0.16234562  1
  H+  H151  1  0.36442421  0.22581241  0.49386056  1
  H+  H152  1  0.86084872  0.02204526  0.49724689  1
  H+  H153  1  0.25707648  0.62166386  0.34248428  1
  H+  H154  1  0.86253263  0.64730980  0.48981967  1
  H+  H155  1  0.83623141  0.53024490  0.30233246  1
  H+  H156  1  0.88870495  0.52188554  0.00279839  1
  H+  H157  1  0.49709210  0.39914445  0.18585198  1
  H+  H158  1  0.61726359  0.48173327  0.34597315  1
  H+  H159  1  0.61098044  0.72619180  0.34134483  1
  H+  H160  1  0.75949899  0.88545990  0.49884739  1
  H+  H161  1  0.21056177  0.84873252  0.50159448  1
  H+  H162  1  0.52313246  0.13443569  1.00125541  1
  H+  H163  1  0.87992027  0.88189236  0.65086742  1
  H+  H164  1  0.58654604  0.95217179  0.50527961  1
  H+  H165  1  0.61715258  0.39016485  0.00991571  1
  H+  H166  1  0.52261879  0.87982102  0.16168729  1
  H+  H167  1  0.37320924  1.01230751  0.01143510  1
  H+  H168  1  0.82696551  0.15550687  0.10139431  1
  H+  H169  1  -0.04303779  0.34387787  0.01061299  1
  H+  H170  1  0.15788561  0.57591260  0.93894350  1
  H+  H171  1  0.89300486  0.09064399  0.59094607  1
  H+  H172  1  0.22566551  0.35935624  0.50702781  1
  H+  H173  1  0.11138688  0.72479176  0.66684441  1
  H+  H174  1  0.89848348  0.45347028  0.36541690  1
  H+  H175  1  0.62077114  0.00630194  0.98545047  1
  H+  H176  1  0.34717366  0.83484606  1.01749999  1
  H+  H177  1  0.61263438  0.73291536  0.49961596  1
  H+  H178  1  0.85930679  0.97009723  0.33396337  1
  H+  H179  1  0.97182786  0.62508466  0.49088587  1
  H+  H180  1  1.01354041  0.36940886  0.49225589  1
  H+  H181  1  0.11612939  0.89367793  -0.00200023  1
  H+  H182  1  0.09576069  0.17474298  0.42390480  1
  H+  H183  1  0.72342033  0.87042819  0.66723581  1
  H+  H184  1  0.23754754  0.87097825  0.17291684  1
  H+  H185  1  0.40692172  0.39836005  0.18543034  1
  H+  H186  1  0.53594745  0.18898977  0.81190671  1
  H+  H187  1  0.42694367  0.08381801  0.24081718  1
  H+  H188  1  0.12612554  0.14665627  0.33142762  1
  H+  H189  1  0.06101289  0.19540708  0.82602224  1
  H+  H190  1  0.97848298  0.61275910  1.00366028  1
  H+  H191  1  0.89865419  0.37347650  0.50862553  1
  H+  H192  1  0.72145440  0.62100439  0.32828363  1
  H+  H193  1  0.53316209  0.39388480  0.65852102  1
  H+  H194  1  0.88894162  0.36091061  0.65166450  1
  H+  H195  1  0.35970826  0.88572934  0.33757418  1
  H+  H196  1  0.72674054  0.11615679  0.67258367  1
  H+  H197  1  0.39168386  0.00318112  0.84416863  1
  H+  H198  1  0.73842706  0.38386872  0.84532122  1
  H+  H199  1  0.23607384  0.37051832  0.15706334  1
  H+  H200  1  0.39968174  0.11863578  0.33210102  1
  H+  H201  1  0.53335917  0.39373668  0.84353601  1
  H+  H202  1  0.88573461  0.62330716  0.16498751  1
  H+  H203  1  0.08644994  0.46808660  0.01148039  1
  H+  H204  1  0.77352584  0.38746610  0.01237229  1
  H+  H205  1  0.13976813  0.61549520  0.64853655  1
  H+  H206  1  0.38991856  0.36536140  0.50545613  1
  H+  H207  1  0.64070581  0.92145793  0.79799762  1
  H+  H208  1  0.73120359  0.61318934  -0.00797303  1
  H+  H209  1  0.11267501  0.63898229  0.00921544  1
  H+  H210  1  0.17140141  0.33404989  0.82090196  1
  H+  H211  1  0.23090249  0.07810540  0.16718293  1
  H+  H212  1  0.83837304  0.13621594  0.84057325  1
  H+  H213  1  0.11141750  0.39035978  0.16263624  1
  H+  H214  1  0.16050759  0.10808486  0.17071783  1
  H+  H215  1  0.11864036  0.75898903  0.50396782  1
  H+  H216  1  0.50117648  0.86473182  0.49610007  1
  H+  H217  1  0.97080992  0.84122009  0.83454563  1
  H+  H218  1  0.39221954  0.82992514  0.56495520  1
  H+  H219  1  0.61846854  0.22917204  0.17310851  1
  H+  H220  1  0.34729320  0.43183323  0.09957344  1
  H+  H221  1  0.63289025  0.85251750  0.17026363  1
  H+  H222  1  0.78025011  0.39599211  0.16774799  1
  H+  H223  1  0.86761472  0.26975678  0.85518664  1
  H+  H224  1  0.53912971  0.14280037  0.33879515  1
  H+  H225  1  0.38439463  0.74314912  0.81841468  1
  H+  H226  1  0.09233583  0.26844658  0.11354532  1
  H+  H227  1  0.35416522  0.08998068  0.15358184  1
  H+  H228  1  0.39320211  0.36687891  0.34092324  1
  H+  H229  1  0.03430387  0.89797670  0.33403330  1
  H+  H230  1  0.88002063  0.75556385  0.84026002  1
  H+  H231  1  0.12379354  0.14060497  0.48180023  1
  H+  H232  1  0.86589593  0.48046271  0.84233554  1
  H+  H233  1  0.38255174  0.34750584  0.66077426  1
  H+  H234  1  0.85677874  0.37722616  0.01739823  1
  H+  H235  1  0.65269499  0.37036069  0.33705439  1
  H+  H236  1  0.08707164  0.21763555  1.02500396  1
  H+  H237  1  0.11186413  0.87703397  0.81893735  1
  H+  H238  1  0.85523198  0.65263406  0.33337804  1
  H+  H239  1  0.20960521  0.59322380  1.00224766  1
  H+  H240  1  0.86019054  0.78666451  0.63939369  1
  H+  H241  1  0.12650374  0.36752591  0.34440550  1
  H+  H242  1  0.16066794  0.16925656  0.09433534  1
  H+  H243  1  0.74629710  0.91270724  0.97838792  1
  H+  H244  1  0.98043432  0.86907329  0.15976216  1
  H+  H245  1  0.27546133  0.13514213  0.49212142  1
  H+  H246  1  0.40218295  0.63357359  0.65745850  1
  H+  H247  1  0.38155957  0.61176534  0.50310467  1
  H+  H248  1  0.77833195  0.11395430  0.34105902  1
  H+  H249  1  0.61999658  0.85545683  0.51490355  1
  H+  H250  1  0.67917951  0.34535573  0.24042494  1
  H+  H251  1  0.64706720  0.29519668  0.83699066  1
  H+  H252  1  0.86784131  0.87254991  0.81375887  1
  H+  H253  1  0.64442991  0.62661065  0.65636615  1
  H+  H254  1  0.46525353  0.60833732  0.18239510  1
  H+  H255  1  0.62481905  0.48942121  0.83701745  1
  H+  H256  1  0.26199731  0.62870505  0.17288307  1
  H+  H257  1  0.12171550  0.38461162  0.65557686  1
  H+  H258  1  0.27333725  0.14194746  0.00059672  1
  H+  H259  1  0.22099081  0.85351311  0.98634365  1
  H+  H260  1  -0.00323463  0.13242564  0.66508084  1
  H+  H261  1  0.48603246  0.05883800  0.86992110  1
  H+  H262  1  0.24191667  0.12185108  0.32670068  1
  H+  H263  1  0.61566454  0.88578236  0.00248783  1
  H+  H264  1  0.60519596  0.15613603  0.82120895  1
  H+  H265  1  0.10643659  0.47669648  0.16914563  1
  H+  H266  1  0.52860851  0.39104751  0.34599748  1
  H+  H267  1  0.38766765  0.28187496  -0.00006320  1
  H+  H268  1  0.86089609  0.22212859  0.15862262  1
  H+  H269  1  0.97550002  0.87330605  0.49553012  1
  H+  H270  1  0.86631104  0.73240279  0.00347765  1
  H+  H271  1  0.36277248  0.47447691  0.49940362  1
  H+  H272  1  0.14700443  0.88115443  0.32469427  1
  H+  H273  1  0.36644728  0.85412317  0.50175229  1
  H+  H274  1  0.13092469  0.61249559  0.18283272  1
  H+  H275  1  0.40889444  0.27669981  0.65846045  1
  H+  H276  1  0.27205603  0.38223475  0.35047847  1
  H+  H277  1  0.91488236  0.59243982  0.55360983  1
  H+  H278  1  0.40357346  0.11799707  0.65854568  1
  H+  H279  1  0.12211559  0.85575718  0.65094716  1
  H+  H280  1  0.57210844  0.90422220  0.39615650  1
  H+  H281  1  0.26336726  0.63568401  0.48587370  1
  H+  H282  1  0.19051907  0.35868981  0.28181618  1
  H+  H283  1  0.17322826  0.71978611  0.35760647  1
  H+  H284  1  0.72241819  0.85986676  0.32424257  1
  H+  H285  1  0.08067934  0.12422805  0.66986676  1
  H+  H286  1  0.71155927  0.09208355  0.98609501  1
  H+  H287  1  0.24209318  0.22360522  0.87908580  1
  H+  H288  1  0.88344157  0.96424923  0.08210440  1
  H+  H289  1  0.14580631  0.07495520  0.93125686  1
  H+  H290  1  0.08701218  0.91611237  0.09425275  1
  H+  H291  1  0.17485890  0.84884617  0.26522450  1
  H+  H292  1  0.83265217  0.40769884  0.44463379  1
  H+  H293  1  0.65899452  0.33030927  0.56062994  1
  H+  H294  1  0.35399209  0.71625243  0.16557858  1
  H+  H295  1  0.89776788  0.93347335  -0.00788770  1
  H+  H296  1  0.63990055  0.06014352  0.58448506  1
  H+  H297  1  0.43503143  0.25010254  0.83941970  1
  H+  H298  1  0.15909406  0.82815836  0.59306864  1
  H+  H299  1  0.07327867  0.70200616  0.43002443  1
  H+  H300  1  0.15693480  0.07545610  0.55686871  1
  H+  H301  1  0.68097236  0.61006851  0.56753042  1
  H+  H302  1  0.59347390  0.42392579  0.10510399  1
  H+  H303  1  0.97565244  0.60738198  0.65127791  1
  H+  H304  1  0.91431913  0.31154071  0.27077556  1
  H+  H305  1  0.66522657  0.59113091  0.23382335  1
  H+  H306  1  0.03721407  0.14156495  0.76508103  1
  H+  H307  1  0.16118304  0.31927756  0.59516629  1
  H+  H308  1  0.15044429  0.29970454  0.92638283  1
  H+  H309  1  0.51529541  0.37626452  0.49352412  1
  H+  H310  1  0.06986293  0.90457503  0.72503672  1
  H+  H311  1  0.83500169  0.17624688  0.73766413  1
  H+  H312  1  0.84346194  0.92456014  0.72384564  1
  H+  H313  1  0.81908566  0.92210360  0.39659352  1
  H+  H314  1  0.32088145  0.12107656  0.09513279  1
  H+  H315  1  0.67197547  0.34428967  0.93802729  1
  H+  H316  1  0.88808388  0.53376889  0.16832527  1
  H+  H317  1  0.27549833  0.89619660  0.33458817  1
  H+  H318  1  0.35914013  0.13716808  0.00329777  1
  H+  H319  1  0.45357163  0.87107987  0.86635722  1
  H+  H320  1  0.88496622  0.36001240  0.17834296  1
  H+  H321  1  0.11221868  0.43213241  0.71235430  1
  H+  H322  1  0.39653396  0.02734922  0.33235650  1
  H+  H323  1  0.07746630  0.38941308  0.42502951  1
  H+  H324  1  0.86830142  0.04940492  0.91604687  1
  H+  H325  1  0.88880280  0.71614054  0.69022079  1
  H+  H326  1  0.32065677  0.65885586  0.39975979  1
  H+  H327  1  0.63678926  0.36066241  0.64812934  1
  H+  H328  1  0.58815913  0.67569934  0.43676183  1
  H+  H329  1  0.84228516  0.12145526  0.44048544  1
  H+  H330  1  0.92554796  0.33388695  0.56330339  1
  H+  H331  1  0.89284452  0.31221388  0.95384117  1
  H+  H332  1  0.67914140  1.06177976  0.41470513  1
  H+  H333  1  0.58409029  0.17472997  0.72287086  1
  H+  H334  1  0.06686110  0.07392840  0.84110521  1
  H+  H335  1  0.61828210  0.73061419  0.67732078  1
  H+  H336  1  0.34224801  0.17125458  0.39897743  1
  H+  H337  1  0.64358222  0.07380507  0.89084260  1
  H+  H338  1  0.45102624  0.88041473  0.65770600  1
  H+  H339  1  0.59450160  0.66149145  0.76512284  1
  H+  H340  1  0.08345179  0.91728906  0.42841425  1
  H+  H341  1  0.60835899  0.13069598  0.98822824  1
  H+  H342  1  0.83554301  0.09876943  0.01077049  1
  H+  H343  1  0.18228703  0.08469554  0.26738452  1
  H+  H344  1  0.16896446  0.82721514  0.89258843  1
  H+  H345  1  0.27211437  0.81709839  0.06108943  1
  H+  H346  1  0.39578699  0.77029795  0.95047447  1
  H+  H347  1  0.58015828  0.90966183  0.10123859  1
  H+  H348  1  0.99009065  0.11383853  0.31516264  1
  H+  H349  1  0.69756138  0.89115338  0.88657494  1
  H+  H350  1  0.09203188  0.66272717  0.72396052  1
  H+  H351  1  0.43268545  0.34232575  0.91370497  1
  H+  H352  1  0.11786354  0.26155420  0.65541879  1
  H+  H353  1  0.31339143  0.62409666  0.08101323  1
  H+  H354  1  0.86672976  0.20209230  0.34340597  1
  H+  H355  1  0.91575441  0.83357013  0.93068029  1
  H+  H356  1  0.40253350  0.19085828  0.74687696  1
  H+  H357  1  0.91720486  0.84958334  0.55550192  1
  H+  H358  1  0.67241990  1.03041447  0.43929206  1
  H+  H359  1  0.33394108  0.67394878  0.72656915  1
  H+  H360  1  0.82948874  0.67421562  0.09840882  1
  H+  H361  1  0.66183120  0.82069937  0.22832069  1
  H+  H362  1  0.03489258  0.41753823  0.79439652  1
  H+  H363  1  0.83124196  0.68324437  0.39489791  1
  H+  H364  1  0.42071482  0.33296864  0.56376872  1
  H+  H365  1  0.35435313  0.92506369  0.11278602  1
  H+  H366  1  0.83148151  0.65061655  0.74008176  1
  H+  H367  1  0.16305397  0.60055260  0.54752529  1
  H+  H368  1  0.11525466  0.98301199  0.00247750  1
  H+  H369  1  0.15137716  0.57260003  0.24287444  1
  H+  H370  1  0.35377855  0.72108276  0.49107812  1
  H+  H371  1  0.41170344  0.57825479  0.27876956  1
  H+  H372  1  0.40335704  0.05478209  0.94636632  1
  H+  H373  1  0.43262484  0.35611927  0.27897087  1
  H+  H374  1  0.93098290  0.84724061  0.25714868  1
  H+  H375  1  0.41688093  0.07749028  0.55850514  1
  H+  H376  1  0.41444868  0.82008959  0.23473788  1
  H+  H377  1  0.08792333  0.95299813  0.82332054  1
  H+  H378  1  0.68711961  0.73056332  0.05643907  1
  H+  H379  1  0.90267494  0.59338521  0.25433986  1
  H+  H380  1  0.06561944  0.41358663  0.07209716  1
  H+  H381  1  0.66964284  0.07315475  0.26477625  1
  H+  H382  1  0.01500203  0.58500162  0.40829807  1
  H+  H383  1  0.31703885  0.38268477  0.73864312  1
  O2-  O384  1  0.04599653  0.22437305  0.08766892  1
  O2-  O385  1  0.09851274  0.17613228  0.46929334  1
  O2-  O386  1  0.03173211  0.13584195  0.81037559  1
  O2-  O387  1  0.07525209  0.41637321  0.15330227  1
  O2-  O388  1  0.07531291  0.39050309  0.47359516  1
  O2-  O389  1  0.05604480  0.41516411  0.83474069  1
  O2-  O390  1  0.08783999  0.67127492  0.14740822  1
  O2-  O391  1  0.06124000  0.66593301  0.46596861  1
  O2-  O392  1  0.15155822  0.67795348  0.79849752  1
  O2-  O393  1  0.08415061  0.90978157  0.13950992  1
  O2-  O394  1  0.07899574  0.91454764  0.47454351  1
  O2-  O395  1  0.07425298  0.89817224  0.80236026  1
  O2-  O396  1  0.30267666  0.08064635  0.12986196  1
  O2-  O397  1  0.33684857  0.16574216  0.47812987  1
  O2-  O398  1  0.43949079  0.20360394  0.81744026  1
  O2-  O399  1  0.33226948  0.42188109  0.14592044  1
  O2-  O400  1  0.33441524  0.41288039  0.48644493  1
  O2-  O401  1  0.34634831  0.41784359  0.82922355  1
  O2-  O402  1  0.32090140  0.65362702  0.15465100  1
  O2-  O403  1  0.32668658  0.66104965  0.47499621  1
  O2-  O404  1  0.34912597  0.67932008  0.81230524  1
  O2-  O405  1  0.34871018  0.92156613  0.15717597  1
  O2-  O406  1  0.31551101  0.90760925  0.47441297  1
  O2-  O407  1  0.33135588  0.91531884  0.79874984  1
  O2-  O408  1  0.58490736  0.16890541  0.15896515  1
  O2-  O409  1  0.58611792  0.16214591  0.47629596  1
  O2-  O410  1  0.59356000  0.19912013  0.80091654  1
  O2-  O411  1  0.59699148  0.42588296  0.15048805  1
  O2-  O412  1  0.57805349  0.40522680  0.47812741  1
  O2-  O413  1  0.59379988  0.42475222  0.82475058  1
  O2-  O414  1  0.56576732  0.65782848  0.15063731  1
  O2-  O415  1  0.58877275  0.67283453  0.48274338  1
  O2-  O416  1  0.59817775  0.66133704  0.81051600  1
  O2-  O417  1  0.58306587  0.91243469  0.14649928  1
  O2-  O418  1  0.56305930  0.89481577  0.48410806  1
  O2-  O419  1  0.59483902  0.93374096  0.78275859  1
  O2-  O420  1  0.83219982  0.16001965  0.14681055  1
  O2-  O421  1  0.82707778  0.10874041  0.48439720  1
  O2-  O422  1  0.81982213  0.17337910  0.81882337  1
  O2-  O423  1  0.84113826  0.42671696  0.15227800  1
  O2-  O424  1  0.82775421  0.41795009  0.48879557  1
  O2-  O425  1  0.82964906  0.42060712  0.82822846  1
  O2-  O426  1  0.83244026  0.67783247  0.14380053  1
  O2-  O427  1  0.83140116  0.67913770  0.47617769  1
  O2-  O428  1  0.83079030  0.65203138  0.81404276  1
  O2-  O429  1  0.87099308  0.95237661  0.12769361  1
  O2-  O430  1  0.81763164  0.91936515  0.47998857  1
  O2-  O431  1  0.85075967  0.91135645  0.79396271  1
  O2-  O432  1  0.17518958  0.06768425  0.18901426  1
  O2-  O433  1  0.16989446  0.07906535  0.51291631  1
  O2-  O434  1  0.07746597  0.03112191  0.86397571  1
  O2-  O435  1  0.17064928  0.33671355  0.16671961  1
  O2-  O436  1  0.16389630  0.32515958  0.51945643  1
  O2-  O437  1  0.12353886  0.31178107  0.84945833  1
  O2-  O438  1  0.15857604  0.57948669  0.19752176  1
  O2-  O439  1  0.16519329  0.60238978  0.50273332  1
  O2-  O440  1  0.16452404  0.56668146  0.86423621  1
  O2-  O441  1  0.17528689  0.83713226  0.18336225  1
  O2-  O442  1  0.15170788  0.82049936  0.52012006  1
  O2-  O443  1  0.17405122  0.82897698  0.84701787  1
  O2-  O444  1  0.42754439  0.07894658  0.19538889  1
  O2-  O445  1  0.41526909  0.07697601  0.51343537  1
  O2-  O446  1  0.42919850  0.05369546  0.87056437  1
  O2-  O447  1  0.44988664  0.39477509  0.21168087  1
  O2-  O448  1  0.42162779  0.33414152  0.51792166  1
  O2-  O449  1  0.44028686  0.34216072  0.86742803  1
  O2-  O450  1  0.40630786  0.57718511  0.20064845  1
  O2-  O451  1  0.41273989  0.58273664  0.51961764  1
  O2-  O452  1  0.42595042  0.58965029  0.85590093  1
  O2-  O453  1  0.41606225  0.82119969  0.18890246  1
  O2-  O454  1  0.39485834  0.82354510  0.52002330  1
  O2-  O455  1  0.43903520  0.85223717  0.82425983  1
  O2-  O456  1  0.66716110  0.07821737  0.18831161  1
  O2-  O457  1  0.61813403  0.04301781  0.54248123  1
  O2-  O458  1  0.63820849  0.08596361  0.84682598  1
  O2-  O459  1  0.67840284  0.34339718  0.19515819  1
  O2-  O460  1  0.65956903  0.33443186  0.51400419  1
  O2-  O461  1  0.67332393  0.35254166  0.85763828  1
  O2-  O462  1  0.66857878  0.59400288  0.18841402  1
  O2-  O463  1  0.68103204  0.61274713  0.52033191  1
  O2-  O464  1  0.67077241  0.58140698  0.85592744  1
  O2-  O465  1  0.65720716  0.81594918  0.18312935  1
  O2-  O466  1  0.65570333  0.83009105  0.53067905  1
  O2-  O467  1  0.71646455  0.91900938  0.84596361  1
  O2-  O468  1  0.92783382  0.09186495  0.17861708  1
  O2-  O469  1  0.88914946  0.08537828  0.50776767  1
  O2-  O470  1  0.86768519  0.06893548  0.87261622  1
  O2-  O471  1  0.91082135  0.32455069  0.19102837  1
  O2-  O472  1  0.92973501  0.34232691  0.51817222  1
  O2-  O473  1  0.89353435  0.32598974  0.87739273  1
  O2-  O474  1  0.91793565  0.59569335  0.18188333  1
  O2-  O475  1  0.90882345  0.59348009  0.50866427  1
  O2-  O476  1  0.92400826  0.58863723  0.86800294  1
  O2-  O477  1  0.91961848  0.84968871  0.17234876  1
  O2-  O478  1  0.91420953  0.84454485  0.51040099  1
  O2-  O479  1  0.91259007  0.81740458  0.85289575  1
  O2-  O480  1  0.18081178  0.09139874  0.31224736  1
  O2-  O481  1  0.13509360  0.07056270  0.63887533  1
  O2-  O482  1  0.16356765  0.08852036  0.97444937  1
  O2-  O483  1  0.17978823  0.33975838  0.32392870  1
  O2-  O484  1  0.15774405  0.32145468  0.64094962  1
  O2-  O485  1  0.17506646  0.29593191  0.96599688  1
  O2-  O486  1  0.14325434  0.55329086  0.31927760  1
  O2-  O487  1  0.17660913  0.59336071  0.63212710  1
  O2-  O488  1  0.15311470  0.57911172  0.98468363  1
  O2-  O489  1  0.18051221  0.85406479  0.30999020  1
  O2-  O490  1  0.16078168  0.83274006  0.63956408  1
  O2-  O491  1  0.16201499  0.82970873  0.97035095  1
  O2-  O492  1  0.43062096  0.08850922  0.31785841  1
  O2-  O493  1  0.42002305  0.07695296  0.64110398  1
  O2-  O494  1  0.40072287  0.06734044  0.99018029  1
  O2-  O495  1  0.42763493  0.34146731  0.32402660  1
  O2-  O496  1  0.42328309  0.33246201  0.63991025  1
  O2-  O497  1  0.42275184  0.34205697  0.98461795  1
  O2-  O498  1  0.41373573  0.58029799  0.32432176  1
  O2-  O499  1  0.43235768  0.60255460  0.64540522  1
  O2-  O500  1  0.37146231  0.44325604  1.03339607  1
  O2-  O501  1  0.40492371  0.82195398  0.31103031  1
  O2-  O502  1  0.39111942  0.84599750  0.64478628  1
  O2-  O503  1  0.39957909  0.77773498  0.99444353  1
  O2-  O504  1  0.66914837  0.07052694  0.31045508  1
  O2-  O505  1  0.66412940  0.08142308  0.66283932  1
  O2-  O506  1  0.65314803  0.06487523  0.96708987  1
  O2-  O507  1  0.68644974  0.34440548  0.32137764  1
  O2-  O508  1  0.66385080  0.32716497  0.63136409  1
  O2-  O509  1  0.66974187  0.33960086  0.98318167  1
  O2-  O510  1  0.66038480  0.58322649  0.31465985  1
  O2-  O511  1  0.67739677  0.60035954  0.63629943  1
  O2-  O512  1  0.67023419  0.58532349  0.97770799  1
  O2-  O513  1  0.66120004  0.82319257  0.30842819  1
  O2-  O514  1  0.66046102  0.83766756  0.65857474  1
  O2-  O515  1  0.68579563  0.86530797  0.96701167  1
  O2-  O516  1  0.93042821  0.08023232  0.29779229  1
  O2-  O517  1  0.89849455  0.08708333  0.63582357  1
  O2-  O518  1  0.83943798  0.00306371  0.98347522  1
  O2-  O519  1  0.91869895  0.30564267  0.31567383  1
  O2-  O520  1  0.92056044  0.32819612  0.64115350  1
  O2-  O521  1  0.89391444  0.30735776  0.99909324  1
  O2-  O522  1  0.88859540  0.58599520  0.29957091  1
  O2-  O523  1  0.91668380  0.57828969  0.63376996  1
  O2-  O524  1  0.91802266  0.58299583  0.98773102  1
  O2-  O525  1  0.94215092  0.84694318  0.30099385  1
  O2-  O526  1  0.90673446  0.84582065  0.63497425  1
  O2-  O527  1  0.91678722  0.84214014  0.97572666  1
  O2-  O528  1  0.11147281  0.20824732  -0.01451088  1
  O2-  O529  1  0.09140698  0.17307086  0.34437287  1
  O2-  O530  1  0.05453562  0.15761820  0.68569788  1
  O2-  O531  1  0.05724422  0.40860577  0.02737201  1
  O2-  O532  1  0.08493357  0.39314256  0.36053869  1
  O2-  O533  1  0.09822087  0.42338275  0.66923197  1
  O2-  O534  1  0.08510621  0.67306914  0.02353207  1
  O2-  O535  1  -0.00478963  0.55099866  0.36935551  1
  O2-  O536  1  0.08236700  0.66327910  0.67974623  1
  O2-  O537  1  0.08483910  0.92130451  0.01542036  1
  O2-  O538  1  0.09213358  0.92740344  0.35522576  1
  O2-  O539  1  0.06941198  0.90793363  0.67944638  1
  O2-  O540  1  0.33215753  0.17031033  0.01838989  1
  O2-  O541  1  0.34552455  0.17195767  0.35361165  1
  O2-  O542  1  0.37605877  0.17947901  0.70487795  1
  O2-  O543  1  0.31260324  0.46248011  -0.00113976  1
  O2-  O544  1  0.33489506  0.41228042  0.36645588  1
  O2-  O545  1  0.30582614  0.34992641  0.70085051  1
  O2-  O546  1  0.31191337  0.61623479  0.03559880  1
  O2-  O547  1  0.31876677  0.65612023  0.35381511  1
  O2-  O548  1  0.33614793  0.68190021  0.68212191  1
  O2-  O549  1  0.31345837  0.86111121  0.03357426  1
  O2-  O550  1  0.33582204  0.92167779  0.35288339  1
  O2-  O551  1  0.29726563  0.94818188  0.69036377  1
  O2-  O552  1  0.58511515  0.16994449  -0.00611369  1
  O2-  O553  1  0.60055019  0.17313873  0.35230724  1
  O2-  O554  1  0.57971826  0.16195927  0.67853006  1
  O2-  O555  1  0.59008095  0.42386667  0.02514211  1
  O2-  O556  1  0.58980179  0.42135453  0.36234632  1
  O2-  O557  1  0.59485331  0.41946917  0.66928759  1
  O2-  O558  1  0.63885897  0.70665393  0.02814975  1
  O2-  O559  1  0.58142276  0.66749024  0.36119498  1
  O2-  O560  1  0.59173465  0.66777549  0.68652102  1
  O2-  O561  1  0.57628714  0.90469748  0.02083240  1
  O2-  O562  1  0.57082646  0.90286676  0.35104304  1
  O2-  O563  1  0.59545268  0.92868778  0.71503103  1
  O2-  O564  1  0.81201670  0.13590635  0.02426789  1
  O2-  O565  1  0.83836352  0.14058153  0.35667114  1
  O2-  O566  1  0.83290909  0.17307222  0.69250412  1
  O2-  O567  1  0.83400230  0.41665165  0.02811105  1
  O2-  O568  1  0.84873394  0.39372653  0.37007325  1
  O2-  O569  1  0.83623328  0.40580421  0.66732347  1
  O2-  O570  1  0.83555289  0.67235500  0.01953941  1
  O2-  O571  1  0.82626188  0.68326643  0.34981524  1
  O2-  O572  1  0.83808623  0.65931390  0.69423235  1
  O2-  O573  1  0.90519442  0.98663802  0.01206458  1
  O2-  O574  1  0.81685318  0.91454035  0.35198691  1
  O2-  O575  1  0.83444033  0.92562917  0.67808847  1
