# generated using pymatgen
data_H2O
_symmetry_space_group_name_H-M   'P 1'
_cell_length_a   17.99345319
_cell_length_b   17.99094706
_cell_length_c   22.00331801
_cell_angle_alpha   89.99175350
_cell_angle_beta   90.01685063
_cell_angle_gamma   119.97736875
_symmetry_Int_Tables_number   1
_chemical_formula_structural   H2O
_chemical_formula_sum   'H384 O192'
_cell_volume   6170.01652370
_cell_formula_units_Z   192
loop_
 _symmetry_equiv_pos_site_id
 _symmetry_equiv_pos_as_xyz
  1  'x, y, z'
loop_
 _atom_type_symbol
 _atom_type_oxidation_number
  H+  1.0
  O2-  -2.0
loop_
 _atom_site_type_symbol
 _atom_site_label
 _atom_site_symmetry_multiplicity
 _atom_site_fract_x
 _atom_site_fract_y
 _atom_site_fract_z
 _atom_site_occupancy
  H+  H0  1  0.11922156  0.71762809  0.69157588  1
  H+  H1  1  0.65702358  0.32522017  0.27407726  1
  H+  H2  1  0.64485367  0.26343101  0.17545462  1
  H+  H3  1  1.02357522  0.87971847  0.68500061  1
  H+  H4  1  0.47143035  0.11490329  0.33026437  1
  H+  H5  1  0.46589105  0.60974404  0.99437762  1
  H+  H6  1  0.63442940  0.10795354  1.00101947  1
  H+  H7  1  0.38781007  0.01318182  0.99376534  1
  H+  H8  1  0.81464950  0.58604986  0.47434154  1
  H+  H9  1  0.14617877  0.76043057  0.85135092  1
  H+  H10  1  0.02196079  0.12879064  0.50187497  1
  H+  H11  1  0.51651157  0.37516149  0.65977764  1
  H+  H12  1  0.21568003  0.35576052  0.33181870  1
  H+  H13  1  0.62623830  0.35587279  0.33558206  1
  H+  H14  1  0.61760404  0.13837987  0.33975287  1
  H+  H15  1  0.38104698  0.11239615  0.32985895  1
  H+  H16  1  0.96347327  0.83645377  0.18622036  1
  H+  H17  1  0.10933750  0.87253288  0.67700087  1
  H+  H18  1  0.34577317  0.12902913  0.49869587  1
  H+  H19  1  0.13314462  0.26073779  0.32862443  1
  H+  H20  1  0.06020674  0.93054118  0.49065964  1
  H+  H21  1  0.48282453  0.86866276  0.31912033  1
  H+  H22  1  0.89757058  0.53880681  0.84828104  1
  H+  H23  1  0.92862822  0.14693429  0.85043351  1
  H+  H24  1  0.73375516  0.31738137  0.20823106  1
  H+  H25  1  0.88726932  0.01410448  0.50983430  1
  H+  H26  1  0.86871121  0.75964253  0.17738818  1
  H+  H27  1  0.89476343  0.35875834  0.17140408  1
  H+  H28  1  0.71866037  0.86182595  0.83007393  1
  H+  H29  1  0.77009794  0.88685659  0.16702754  1
  H+  H30  1  0.35280601  0.96886523  0.82713671  1
  H+  H31  1  0.61605158  0.38951194  0.16822470  1
  H+  H32  1  0.63195617  0.02794770  0.32733418  1
  H+  H33  1  0.60457756  0.72334088  0.82467175  1
  H+  H34  1  0.11146891  0.12989667  0.50516437  1
  H+  H35  1  0.59493576  0.69487534  0.32543274  1
  H+  H36  1  0.76595483  0.89530669  0.33862463  1
  H+  H37  1  0.13359911  0.87117568  0.31105750  1
  H+  H38  1  0.60080253  0.39827935  0.74357973  1
  H+  H39  1  0.08549828  0.07647688  0.97973469  1
  H+  H40  1  0.29410912  0.13381146  -0.00958437  1
  H+  H41  1  0.52175862  0.13039813  0.00483963  1
  H+  H42  1  0.73179579  0.11281152  0.49676989  1
  H+  H43  1  0.74551426  0.64752122  0.99115730  1
  H+  H44  1  0.81993895  0.65635837  0.77142991  1
  H+  H45  1  0.46614219  0.63167366  0.51015173  1
  H+  H46  1  0.30239223  1.01079711  0.55958872  1
  H+  H47  1  0.23437912  0.62712341  0.99006100  1
  H+  H48  1  0.63095458  0.36597165  0.50609153  1
  H+  H49  1  0.37058068  0.13816690  0.83039035  1
  H+  H50  1  0.36162444  0.26305700  0.32492971  1
  H+  H51  1  0.09690148  0.69208551  0.41062618  1
  H+  H52  1  0.87402371  0.86518586  0.33087064  1
  H+  H53  1  0.07344711  0.55769814  0.52072586  1
  H+  H54  1  0.13164312  0.66044546  0.46645604  1
  H+  H55  1  0.38079426  0.52041082  0.84068797  1
  H+  H56  1  0.88423121  0.87273885  0.81580661  1
  H+  H57  1  0.76992452  0.89076540  0.69918678  1
  H+  H58  1  0.10476926  0.87115280  0.49218189  1
  H+  H59  1  0.41418793  0.14995751  0.65979087  1
  H+  H60  1  0.85698545  0.13118323  0.34273726  1
  H+  H61  1  0.13479063  0.37649664  0.66304490  1
  H+  H62  1  0.63683548  0.86489680  0.51106608  1
  H+  H63  1  0.23482255  0.35147872  0.48600164  1
  H+  H64  1  0.61429184  0.47730473  0.83171861  1
  H+  H65  1  0.77521854  -0.11224892  0.49538759  1
  H+  H66  1  0.86608110  1.01341246  -0.00825851  1
  H+  H67  1  0.64681941  0.01602287  0.67542178  1
  H+  H68  1  0.47380195  0.86621755  0.84111194  1
  H+  H69  1  0.47843166  0.86450632  0.16718400  1
  H+  H70  1  0.36628794  0.47248580  0.67758507  1
  H+  H71  1  0.34581685  0.46751193  0.33194901  1
  H+  H72  1  0.12531605  0.38154662  0.48865275  1
  H+  H73  1  0.71867032  0.86171689  0.99019158  1
  H+  H74  1  0.60872761  0.96794818  0.47980569  1
  H+  H75  1  0.88395624  0.77360671  0.68779026  1
  H+  H76  1  0.46991054  0.09741197  0.84422489  1
  H+  H77  1  0.89018146  0.11898989  0.66746577  1
  H+  H78  1  0.91253324  0.07352374  0.57031809  1
  H+  H79  1  0.14136617  0.78478736  0.15893408  1
  H+  H80  1  0.22982822  0.85458488  0.99918430  1
  H+  H81  1  0.14807929  0.01222878  0.66863606  1
  H+  H82  1  0.60590814  0.63353476  0.16217301  1
  H+  H83  1  0.14459607  0.53319380  0.16411799  1
  H+  H84  1  0.62778787  0.24227401  0.48336848  1
  H+  H85  1  0.08254734  0.24821811  0.00983697  1
  H+  H86  1  0.27406670  0.72953838  0.71328005  1
  H+  H87  1  0.11236558  0.39461857  0.81854589  1
  H+  H88  1  0.32231322  0.67244744  0.07975784  1
  H+  H89  1  0.59256306  0.17644864  0.40789622  1
  H+  H90  1  0.14258952  0.28075426  0.83270896  1
  H+  H91  1  0.39961134  0.53440578  0.49851485  1
  H+  H92  1  0.10753570  0.87827027  0.83431246  1
  H+  H93  1  0.87338636  0.21435577  0.51008553  1
  H+  H94  1  0.94639937  0.81381608  0.49637119  1
  H+  H95  1  0.84978557  0.72514986  0.33996203  1
  H+  H96  1  0.33947447  0.62685230  0.49263196  1
  H+  H97  1  0.27303558  0.38705972  0.82855320  1
  H+  H98  1  0.39086775  0.86297335  0.32018620  1
  H+  H99  1  0.60810924  0.38065514  0.00780340  1
  H+  H100  1  0.39091771  0.36201798  0.50495275  1
  H+  H101  1  0.91790815  0.08688822  0.26917228  1
  H+  H102  1  0.75750028  0.37523025  0.35299073  1
  H+  H103  1  0.61219815  0.88574301  0.82374720  1
  H+  H104  1  0.72841202  0.11177369  0.17436836  1
  H+  H105  1  0.33494843  0.60859766  0.82166599  1
  H+  H106  1  0.27363481  0.88879079  0.32732381  1
  H+  H107  1  0.26498400  0.87735594  0.82851666  1
  H+  H108  1  0.37751490  0.60341062  0.66176731  1
  H+  H109  1  0.03104045  0.39631579  0.00334664  1
  H+  H110  1  0.35609437  0.72795244  0.14213989  1
  H+  H111  1  0.87919595  0.61704364  0.84728243  1
  H+  H112  1  0.34459603  0.37606463  0.33388345  1
  H+  H113  1  0.21057942  0.60787933  0.82716866  1
  H+  H114  1  1.03799948  0.62658757  0.69028043  1
  H+  H115  1  0.84760148  0.42665133  0.09141504  1
  H+  H116  1  0.77723531  0.44712147  0.49649161  1
  H+  H117  1  0.38631423  0.51225082  0.16701849  1
  H+  H118  1  0.28302575  0.89868164  0.15679857  1
  H+  H119  1  0.37428944  0.73147471  0.33475307  1
  H+  H120  1  0.22358061  0.61482286  0.65071697  1
  H+  H121  1  0.58068188  0.16598997  0.06498548  1
  H+  H122  1  0.92521002  0.53597327  0.50741269  1
  H+  H123  1  0.61585805  0.88592997  0.16352781  1
  H+  H124  1  0.82088265  0.57733319  0.69532298  1
  H+  H125  1  0.63108761  1.00752242  0.83168404  1
  H+  H126  1  0.23472649  0.62301186  0.15348812  1
  H+  H127  1  0.46513344  0.61228932  0.83856736  1
  H+  H128  1  0.10366035  0.12449665  0.34815472  1
  H+  H129  1  0.11392702  0.23413705  0.15901450  1
  H+  H130  1  0.36523576  0.22568173  0.67905333  1
  H+  H131  1  0.63521277  0.26714795  0.99256993  1
  H+  H132  1  0.45662511  0.47178713  0.44573761  1
  H+  H133  1  0.09949847  0.47583700  0.82017646  1
  H+  H134  1  0.03163353  0.38509253  0.15521177  1
  H+  H135  1  0.37971757  0.76799522  0.50051004  1
  H+  H136  1  -0.02649015  0.60803680  -0.00369399  1
  H+  H137  1  0.12354948  0.00609886  0.14195149  1
  H+  H138  1  0.67209446  0.33777754  0.55915288  1
  H+  H139  1  0.60141934  0.73206324  0.00986088  1
  H+  H140  1  0.02960404  0.93454112  0.12566252  1
  H+  H141  1  0.87538044  0.28409142  0.67970182  1
  H+  H142  1  0.82166307  0.91458048  0.06707505  1
  H+  H143  1  0.14379449  0.02572937  0.82594148  1
  H+  H144  1  0.35755958  0.97150425  0.68170384  1
  H+  H145  1  0.75788214  0.61019262  0.67500102  1
  H+  H146  1  0.62660320  0.15066007  0.48118926  1
  H+  H147  1  0.61542562  0.97429116  0.15947715  1
  H+  H148  1  0.36235159  0.97621231  0.33241368  1
  H+  H149  1  0.90388750  0.38632383  0.49118567  1
  H+  H150  1  0.27726986  0.39203503  0.15866066  1
  H+  H151  1  0.35588887  0.75314692  0.67407111  1
  H+  H152  1  0.70497753  0.59318531  0.50411640  1
  H+  H153  1  0.86047251  0.98012155  0.34184094  1
  H+  H154  1  0.97871579  0.11234875  0.17302978  1
  H+  H155  1  0.49514386  0.19566707  0.61574608  1
  H+  H156  1  0.40149670  0.87762929  0.65276828  1
  H+  H157  1  0.39439909  0.27823194  0.84080727  1
  H+  H158  1  0.52345040  0.63887215  0.67275125  1
  H+  H159  1  0.51380297  0.37359244  0.50122287  1
  H+  H160  1  0.88958562  0.02185726  0.17532889  1
  H+  H161  1  0.85834238  0.42431479  0.34814716  1
  H+  H162  1  0.61701951  0.46721964  0.34435246  1
  H+  H163  1  0.14371566  0.78230785  0.49675742  1
  H+  H164  1  0.28362036  0.14061152  0.82125095  1
  H+  H165  1  0.11150375  0.74391167  0.32229600  1
  H+  H166  1  0.93237697  0.32209464  0.59366971  1
  H+  H167  1  0.78592063  0.13943915  0.69586117  1
  H+  H168  1  0.16068970  0.03276557  0.52370939  1
  H+  H169  1  0.11738218  0.50734700  0.49493514  1
  H+  H170  1  0.61619302  0.12526674  0.69436452  1
  H+  H171  1  0.35890082  0.38489868  0.00579959  1
  H+  H172  1  0.63277094  0.10474493  0.84239389  1
  H+  H173  1  0.62922280  0.52114717  0.17392985  1
  H+  H174  1  0.48365717  0.61062532  0.17007655  1
  H+  H175  1  0.62643113  0.59307025  0.32715112  1
  H+  H176  1  0.63036333  0.60869343  0.66140687  1
  H+  H177  1  0.86402179  0.34335894  0.49445395  1
  H+  H178  1  0.64217949  0.81303902  0.34508276  1
  H+  H179  1  0.45893823  0.59664772  0.32240969  1
  H+  H180  1  0.88546565  0.26550397  1.00371298  1
  H+  H181  1  0.03366702  0.65023564  0.15923453  1
  H+  H182  1  0.64419172  0.78106208  0.51341501  1
  H+  H183  1  0.36364479  0.43437819  0.41858946  1
  H+  H184  1  0.61459832  0.23273931  0.33850706  1
  H+  H185  1  0.37711182  0.26647860  0.50831090  1
  H+  H186  1  0.05821237  0.09184521  -0.00493415  1
  H+  H187  1  0.39788737  0.07939779  0.57447526  1
  H+  H188  1  0.13943737  0.87309261  0.15238526  1
  H+  H189  1  0.86299003  0.12357794  0.50034341  1
  H+  H190  1  0.60828617  0.20973812  0.83893614  1
  H+  H191  1  0.85668231  0.88359752  0.16282624  1
  H+  H192  1  0.14399277  0.26723238  0.49493152  1
  H+  H193  1  0.36646455  0.87939903  0.00724539  1
  H+  H194  1  0.76258234  0.13254756  1.01678754  1
  H+  H195  1  0.32867589  0.90840357  0.73790197  1
  H+  H196  1  0.53581535  0.13967901  0.68438112  1
  H+  H197  1  0.52813264  0.13918151  0.16252358  1
  H+  H198  1  0.22269389  0.37388537  0.66438873  1
  H+  H199  1  0.36316174  0.38669557  0.83017933  1
  H+  H200  1  0.62863295  0.64123708  0.48875731  1
  H+  H201  1  0.85509293  0.88265448  0.01162837  1
  H+  H202  1  0.38394739  0.86155866  0.84160917  1
  H+  H203  1  0.71942831  0.61593649  0.83736054  1
  H+  H204  1  0.66576839  0.59743701  0.89727635  1
  H+  H205  1  0.52483156  0.38798493  0.83096098  1
  H+  H206  1  0.85223458  0.72993872  0.82262595  1
  H+  H207  1  0.04578785  0.13988671  0.81136159  1
  H+  H208  1  0.08649343  -0.09254233  0.77156245  1
  H+  H209  1  0.39142512  0.36563906  0.16857975  1
  H+  H210  1  0.08940001  0.33645408  0.35063644  1
  H+  H211  1  0.52032919  0.87856873  0.48499573  1
  H+  H212  1  0.33395169  0.41977356  0.09666009  1
  H+  H213  1  0.12222935  0.64739497  0.15570213  1
  H+  H214  1  0.22528748  0.85479486  0.66065368  1
  H+  H215  1  0.34737702  0.64214777  0.99749572  1
  H+  H216  1  0.83540122  0.68641248  0.48755212  1
  H+  H217  1  0.37078159  0.89460378  0.16092727  1
  H+  H218  1  0.76004152  0.63207579  0.16671984  1
  H+  H219  1  0.64266747  0.77241917  0.66805415  1
  H+  H220  1  0.89582862  0.54264012  0.17071200  1
  H+  H221  1  0.61562239  0.13478933  0.15948698  1
  H+  H222  1  0.26050310  0.12093348  0.34420865  1
  H+  H223  1  0.84270738  0.98652627  0.79306251  1
  H+  H224  1  0.23021307  0.86915164  0.50023987  1
  H+  H225  1  0.14335289  0.36964942  0.16988732  1
  H+  H226  1  0.88931470  0.03064487  0.67201372  1
  H+  H227  1  0.85961735  0.21731712  0.84824135  1
  H+  H228  1  0.41314683  0.57498668  0.23138612  1
  H+  H229  1  0.88490574  0.33782766  0.85040269  1
  H+  H230  1  0.35738106  0.47337840  1.00530974  1
  H+  H231  1  0.72410169  0.38312162  0.70520540  1
  H+  H232  1  0.16499103  0.33729883  0.89403576  1
  H+  H233  1  0.12322423  0.66315904  0.32114694  1
  H+  H234  1  0.10100816  0.50261318  0.34894690  1
  H+  H235  1  0.88573003  0.76954267  0.00869234  1
  H+  H236  1  0.51450574  0.87653309  0.00615884  1
  H+  H237  1  0.24118443  0.64871913  0.30958030  1
  H+  H238  1  0.62581364  0.90286952  0.32741172  1
  H+  H239  1  1.03186750  0.15472838  0.66842349  1
  H+  H240  1  0.39473194  0.27812588  0.16542131  1
  H+  H241  1  0.88791245  0.35538730  -0.00528746  1
  H+  H242  1  0.59817497  0.46755654  0.50136979  1
  H+  H243  1  0.12492159  0.49031074  0.32697739  1
  H+  H244  1  0.29218250  0.14970776  0.13964032  1
  H+  H245  1  0.86056553  0.62695244  0.01270343  1
  H+  H246  1  0.37377179  0.76326382  -0.00648559  1
  H+  H247  1  0.97702102  0.62300016  0.32120474  1
  H+  H248  1  0.85374600  0.63721857  0.16758113  1
  H+  H249  1  0.22061173  0.36334579  0.99096828  1
  H+  H250  1  0.62945717  0.86179665  0.98773241  1
  H+  H251  1  0.11318420  0.63242426  0.00341533  1
  H+  H252  1  0.77577682  0.38081186  0.00143985  1
  H+  H253  1  0.57965211  0.14961453  0.78040892  1
  H+  H254  1  0.96786280  0.86615468  0.82883273  1
  H+  H255  1  0.97058690  0.85888943  0.99539897  1
  H+  H256  1  0.38125277  0.35891284  0.66668424  1
  H+  H257  1  0.26661717  0.14273153  0.50121213  1
  H+  H258  1  0.17702881  0.08387563  0.58619702  1
  H+  H259  1  0.37661159  0.60846629  0.31895794  1
  H+  H260  1  0.25431327  0.63248116  0.48696401  1
  H+  H261  1  0.47654435  0.36667486  -0.00615217  1
  H+  H262  1  -0.02556118  0.11539855  0.33036573  1
  H+  H263  1  0.39371146  0.10676645  -0.01036305  1
  H+  H264  1  0.13856907  0.76441128  -0.00255282  1
  H+  H265  1  0.72218233  0.11658196  0.33197933  1
  H+  H266  1  0.92776046  0.63281852  0.64462398  1
  H+  H267  1  0.11706153  0.00129190  0.33704539  1
  H+  H268  1  0.16751640  0.33711950  0.23119490  1
  H+  H269  1  0.80009341  0.39558156  0.85787072  1
  H+  H270  1  0.16440844  0.01438772  0.97028107  1
  H+  H271  1  0.57841768  0.90607167  0.06383778  1
  H+  H272  1  0.11632594  0.87831948  -0.00471849  1
  H+  H273  1  0.88993872  0.26716206  0.17215128  1
  H+  H274  1  0.98997557  0.33446169  0.34640775  1
  H+  H275  1  0.03503288  0.36980302  0.50855461  1
  H+  H276  1  0.86355153  0.13188171  0.16360400  1
  H+  H277  1  0.52473431  0.38463585  0.16673657  1
  H+  H278  1  0.61921338  0.88260490  0.67317990  1
  H+  H279  1  0.06911316  0.18367992  0.09777020  1
  H+  H280  1  0.87572193  0.26171447  0.32673592  1
  H+  H281  1  0.62606382  0.51695073  0.65247514  1
  H+  H282  1  0.69570224  0.33250216  0.80245534  1
  H+  H283  1  1.00573616  0.87483152  0.33718565  1
  H+  H284  1  0.39421097  0.03055033  0.17328857  1
  H+  H285  1  0.65126218  0.07279603  0.54132045  1
  H+  H286  1  0.78982391  0.41073903  0.14834409  1
  H+  H287  1  0.38653929  0.85948903  0.49623973  1
  H+  H288  1  0.84988657  0.13016113  0.01335574  1
  H+  H289  1  0.05478968  0.36508154  0.41534562  1
  H+  H290  1  0.95233879  0.37836807  0.67451962  1
  H+  H291  1  0.95728608  0.58187430  0.60310042  1
  H+  H292  1  0.34194235  0.91729699  0.06609681  1
  H+  H293  1  0.42312921  0.84071093  0.59228992  1
  H+  H294  1  0.08425774  0.66359729  0.06353311  1
  H+  H295  1  0.41502334  0.83334971  0.93775512  1
  H+  H296  1  0.09556460  0.92796147  0.04578474  1
  H+  H297  1  0.14043973  0.37826676  0.98729834  1
  H+  H298  1  0.40938018  0.06888624  0.90159502  1
  H+  H299  1  0.18631417  0.62369519  0.24743434  1
  H+  H300  1  0.11705707  0.24922336  0.66869016  1
  H+  H301  1  0.06691790  0.89119564  0.39460425  1
  H+  H302  1  0.68710832  0.72328119  0.45030000  1
  H+  H303  1  0.35197116  0.17102087  0.05216371  1
  H+  H304  1  0.31180833  0.65047150  0.76452098  1
  H+  H305  1  0.88640959  0.86193633  0.69402078  1
  H+  H306  1  0.63457467  0.77453687  0.18356952  1
  H+  H307  1  0.66381560  0.32602956  0.93356460  1
  H+  H308  1  0.63387777  0.35864011  0.83421289  1
  H+  H309  1  -0.00780612  0.15976077  0.01365910  1
  H+  H310  1  0.10593265  0.47555194  0.66596033  1
  H+  H311  1  0.58560764  0.41001404  0.40537475  1
  H+  H312  1  0.41980912  0.09082041  0.23241920  1
  H+  H313  1  0.15083834  0.11929977  0.82092795  1
  H+  H314  1  0.63416215  0.01874415  1.00128916  1
  H+  H315  1  0.67873450  0.83687693  0.61139074  1
  H+  H316  1  0.40297876  0.32499979  0.60502813  1
  H+  H317  1  0.82629652  0.65539948  0.07203412  1
  H+  H318  1  0.33417630  0.41434769  0.73748521  1
  H+  H319  1  0.40792688  0.58014370  0.60110036  1
  H+  H320  1  0.61499387  0.65370726  0.00955104  1
  H+  H321  1  0.72729409  0.10099554  0.84353760  1
  H+  H322  1  0.66649427  0.08513187  0.23228726  1
  H+  H323  1  0.83178274  0.16177759  0.40388906  1
  H+  H324  1  0.09050266  0.41958297  0.09531695  1
  H+  H325  1  0.40861887  0.57895781  0.93411360  1
  H+  H326  1  0.92162580  0.32297597  0.26850570  1
  H+  H327  1  0.35037468  0.16752795  0.73860995  1
  H+  H328  1  0.16291417  0.59165512  0.93245195  1
  H+  H329  1  0.73383617  0.71480791  0.95455795  1
  H+  H330  1  0.07848714  0.15915572  0.40664067  1
  H+  H331  1  0.24014255  0.10087582  0.66995181  1
  H+  H332  1  0.72194326  0.60655418  0.32438263  1
  H+  H333  1  0.17084768  0.57267404  0.58981272  1
  H+  H334  1  0.89977155  0.82893785  0.27204725  1
  H+  H335  1  0.66571311  0.83523670  0.89385646  1
  H+  H336  1  0.09865429  0.18260626  0.74973125  1
  H+  H337  1  0.57706516  0.66903563  0.10382987  1
  H+  H338  1  0.91232714  0.58576682  0.93805826  1
  H+  H339  1  0.16953051  0.82458299  0.90671063  1
  H+  H340  1  0.82320583  0.46722745  0.43398580  1
  H+  H341  1  0.11825058  0.48996987  0.00119704  1
  H+  H342  1  0.16596711  0.82483486  0.60170673  1
  H+  H343  1  0.19474945  0.08091956  0.91464218  1
  H+  H344  1  0.83017332  0.91492432  0.43350613  1
  H+  H345  1  0.91972646  0.59622574  0.23320059  1
  H+  H346  1  0.58447804  0.91583190  0.76268815  1
  H+  H347  1  0.37801035  0.14506033  0.15256524  1
  H+  H348  1  0.39102621  0.27631099  0.98786112  1
  H+  H349  1  0.86723876  0.82890183  0.49695059  1
  H+  H350  1  0.33169116  0.66707379  0.39162402  1
  H+  H351  1  0.58015746  0.41035922  0.06687172  1
  H+  H352  1  0.13941633  0.05831744  0.27884205  1
  H+  H353  1  0.81374896  0.65478940  0.39432764  1
  H+  H354  1  0.20065727  0.13178750  0.20310397  1
  H+  H355  1  0.65612426  0.57740085  0.23446744  1
  H+  H356  1  0.83355029  0.41057853  0.79182629  1
  H+  H357  1  0.66632096  0.83795992  0.24257712  1
  H+  H358  1  0.69373467  0.09660269  0.63059370  1
  H+  H359  1  0.65200242  0.57907369  0.56704402  1
  H+  H360  1  0.39605031  0.32340770  0.26588503  1
  H+  H361  1  1.01478360  0.62178794  0.50180753  1
  H+  H362  1  0.86439382  0.47175873  0.00087982  1
  H+  H363  1  0.42100509  0.33834538  0.90040797  1
  H+  H364  1  0.14685374  0.14059701  0.14933807  1
  H+  H365  1  0.11220541  0.64336423  0.78208629  1
  H+  H366  1  0.32141619  0.15906909  0.40199408  1
  H+  H367  1  0.16879018  0.85050754  0.24944143  1
  H+  H368  1  0.58079428  0.65863672  0.39278824  1
  H+  H369  1  0.33367503  0.91532142  0.42336838  1
  H+  H370  1  1.00333872  0.29748741  0.58950259  1
  H+  H371  1  0.07224895  0.42129841  0.72855935  1
  H+  H372  1  0.58414108  0.91956832  0.38743291  1
  H+  H373  1  0.85136375  0.17021961  0.74940388  1
  H+  H374  1  0.83046801  0.16129625  0.10475778  1
  H+  H375  1  0.53171656  0.88806979  0.66550009  1
  H+  H376  1  0.35800000  0.96896923  0.48665439  1
  H+  H377  1  0.60433828  0.63409216  0.82631262  1
  H+  H378  1  0.90703356  0.30505815  0.91324452  1
  H+  H379  1  0.80257984  0.36463455  0.69548688  1
  H+  H380  1  0.87472052  0.07294109  0.93410219  1
  H+  H381  1  0.41798082  0.83177770  0.22549591  1
  H+  H382  1  0.57927680  0.66359719  0.73369842  1
  H+  H383  1  0.88515550  0.61553873  0.32410423  1
  O2-  O384  1  0.08466998  0.17500993  0.14112473  1
  O2-  O385  1  0.08169709  0.15739164  0.48511950  1
  O2-  O386  1  0.10402306  0.17856610  0.79749801  1
  O2-  O387  1  0.09202004  0.41696039  0.14093085  1
  O2-  O388  1  0.08310921  0.40198761  0.47904495  1
  O2-  O389  1  0.07746487  0.41852198  0.80209599  1
  O2-  O390  1  0.09278673  0.68015553  0.14243851  1
  O2-  O391  1  0.10358679  0.69406381  0.45705424  1
  O2-  O392  1  0.12559128  0.65252302  0.82700855  1
  O2-  O393  1  0.08785270  0.94446476  0.12972383  1
  O2-  O394  1  0.05973080  0.88126508  0.47201518  1
  O2-  O395  1  0.08338457  0.91250545  0.81678655  1
  O2-  O396  1  0.35487051  0.17923848  0.13213817  1
  O2-  O397  1  0.32458858  0.16613958  0.48144927  1
  O2-  O398  1  0.34703458  0.17301273  0.81198740  1
  O2-  O399  1  0.33780954  0.42235253  0.14299105  1
  O2-  O400  1  0.39767361  0.45182165  0.45863724  1
  O2-  O401  1  0.33428270  0.41761893  0.81375644  1
  O2-  O402  1  0.32424077  0.66875583  0.12661380  1
  O2-  O403  1  0.31508082  0.66076138  0.47477208  1
  O2-  O404  1  0.28815551  0.61162333  0.79958044  1
  O2-  O405  1  0.34501530  0.92998229  0.14608950  1
  O2-  O406  1  0.33361583  0.91087698  0.46905443  1
  O2-  O407  1  0.32375410  0.90938015  0.80964903  1
  O2-  O408  1  0.58833736  0.16919321  0.14626312  1
  O2-  O409  1  0.59739471  0.18212169  0.46654362  1
  O2-  O410  1  0.58100089  0.14824799  0.82699581  1
  O2-  O411  1  0.58582511  0.41750176  0.15171265  1
  O2-  O412  1  0.57415273  0.40745295  0.48577619  1
  O2-  O413  1  0.58646083  0.41652636  0.81700320  1
  O2-  O414  1  0.57402324  0.66380477  0.14963136  1
  O2-  O415  1  0.62755877  0.68907823  0.46385805  1
  O2-  O416  1  0.57345799  0.66317243  0.80938505  1
  O2-  O417  1  0.58524128  0.91386621  0.14487367  1
  O2-  O418  1  0.58132674  0.90595088  0.47075118  1
  O2-  O419  1  0.58626353  0.92038729  0.80810737  1
  O2-  O420  1  0.83285908  0.16276897  0.15089230  1
  O2-  O421  1  0.83720393  0.16008857  0.48801420  1
  O2-  O422  1  0.82597714  0.14892610  0.82710984  1
  O2-  O423  1  0.85005278  0.43317916  0.13712485  1
  O2-  O424  1  0.82454692  0.49500704  0.47419664  1
  O2-  O425  1  0.85339406  0.41651954  0.83467503  1
  O2-  O426  1  0.82086143  0.66505511  0.15177070  1
  O2-  O427  1  0.79483973  0.62862141  0.46884067  1
  O2-  O428  1  0.82064282  0.66594361  0.81600901  1
  O2-  O429  1  0.82948528  0.91687589  0.14918306  1
  O2-  O430  1  0.83416970  0.91107175  0.47897265  1
  O2-  O431  1  0.81918419  0.92522458  0.78264956  1
  O2-  O432  1  0.18381588  0.11330188  0.16129140  1
  O2-  O433  1  0.17314964  0.08888449  0.53826237  1
  O2-  O434  1  0.18000683  0.08794062  0.83595451  1
  O2-  O435  1  0.17316825  0.33872268  0.18629614  1
  O2-  O436  1  0.17615268  0.33105732  0.49865385  1
  O2-  O437  1  0.16958213  0.34050556  0.84859609  1
  O2-  O438  1  0.17425476  0.59517779  0.17358907  1
  O2-  O439  1  0.13089695  0.56545451  0.50973352  1
  O2-  O440  1  0.15059069  0.59013472  0.84665999  1
  O2-  O441  1  0.17026395  0.84708283  0.17166964  1
  O2-  O442  1  0.17090202  0.84016187  0.51755520  1
  O2-  O443  1  0.16609950  0.82121595  0.86096886  1
  O2-  O444  1  0.42419063  0.09225938  0.18720771  1
  O2-  O445  1  0.35738551  0.04802237  0.53989123  1
  O2-  O446  1  0.40839642  0.07135381  0.85568065  1
  O2-  O447  1  0.42045770  0.33560186  0.18586602  1
  O2-  O448  1  0.40982076  0.32582013  0.52610772  1
  O2-  O449  1  0.42258626  0.33926909  0.85451586  1
  O2-  O450  1  0.41996680  0.57410533  0.18528863  1
  O2-  O451  1  0.40812083  0.58693058  0.52073122  1
  O2-  O452  1  0.40587957  0.58115098  0.85519956  1
  O2-  O453  1  0.41725515  0.83752710  0.18054978  1
  O2-  O454  1  0.41568843  0.82908362  0.51341149  1
  O2-  O455  1  0.41617391  0.83542192  0.85918674  1
  O2-  O456  1  0.66649816  0.08287727  0.18717978  1
  O2-  O457  1  0.66665413  0.08356325  0.49855201  1
  O2-  O458  1  0.66252563  0.06916100  0.85140974  1
  O2-  O459  1  0.68403372  0.32158806  0.19539579  1
  O2-  O460  1  0.67036211  0.34173832  0.51502667  1
  O2-  O461  1  0.66453394  0.32517658  0.84082635  1
  O2-  O462  1  0.65577731  0.58182715  0.18890002  1
  O2-  O463  1  0.64549857  0.57292447  0.52142401  1
  O2-  O464  1  0.65832804  0.58415591  0.85302162  1
  O2-  O465  1  0.66732821  0.83537399  0.19619054  1
  O2-  O466  1  0.66950186  0.83953066  0.53049883  1
  O2-  O467  1  0.66065532  0.83246284  0.84812682  1
  O2-  O468  1  0.91981040  0.08236920  0.19072233  1
  O2-  O469  1  0.91540729  0.07487279  0.52484204  1
  O2-  O470  1  0.86791840  0.10188490  0.85173958  1
  O2-  O471  1  0.92281319  0.32786748  0.18798122  1
  O2-  O472  1  0.96274961  0.30423040  0.56375565  1
  O2-  O473  1  0.89917258  0.29517960  0.86739547  1
  O2-  O474  1  0.92115456  0.60175833  0.18699016  1
  O2-  O475  1  0.98215740  0.57018992  0.52791429  1
  O2-  O476  1  0.91541314  0.59568691  0.86557092  1
  O2-  O477  1  0.90405725  0.82138807  0.19315304  1
  O2-  O478  1  0.88568607  0.78727034  0.50831810  1
  O2-  O479  1  0.90463188  0.83646292  0.83398241  1
  O2-  O480  1  0.14900431  0.06379002  0.32257904  1
  O2-  O481  1  0.18240450  0.07082620  0.65088557  1
  O2-  O482  1  0.20634272  0.07394679  0.95767802  1
  O2-  O483  1  0.15580106  0.32159267  0.31503300  1
  O2-  O484  1  0.16390337  0.34578110  0.64752511  1
  O2-  O485  1  0.16251384  0.33987030  0.97261484  1
  O2-  O486  1  0.19160638  0.64721856  0.28936620  1
  O2-  O487  1  0.18872829  0.56024095  0.62901122  1
  O2-  O488  1  0.16606224  0.58905154  0.97712410  1
  O2-  O489  1  0.17004215  0.84855278  0.29493957  1
  O2-  O490  1  0.16469334  0.82279360  0.64679037  1
  O2-  O491  1  0.16981329  0.82581023  0.98280405  1
  O2-  O492  1  0.41316959  0.08480109  0.31268703  1
  O2-  O493  1  0.45609447  0.13974667  0.63352737  1
  O2-  O494  1  0.42137112  0.07277985  0.97613097  1
  O2-  O495  1  0.38288463  0.32209160  0.30977095  1
  O2-  O496  1  0.40955504  0.32657912  0.65012135  1
  O2-  O497  1  0.41649212  0.33833164  0.97661122  1
  O2-  O498  1  0.40130111  0.57211459  0.30328788  1
  O2-  O499  1  0.41364808  0.58144646  0.64620124  1
  O2-  O500  1  0.40625159  0.57495888  0.97946017  1
  O2-  O501  1  0.42123499  0.83249840  0.30642381  1
  O2-  O502  1  0.42973118  0.84572142  0.63760487  1
  O2-  O503  1  0.41347652  0.82993545  0.98313704  1
  O2-  O504  1  0.66242377  0.09153080  0.31554120  1
  O2-  O505  1  0.68051883  0.08145309  0.67316365  1
  O2-  O506  1  0.66914542  0.08072437  0.99104664  1
  O2-  O507  1  0.65414463  0.32090954  0.31906124  1
  O2-  O508  1  0.61384752  0.37728013  0.70457729  1
  O2-  O509  1  0.66821774  0.32844026  0.97800982  1
  O2-  O510  1  0.66054389  0.56858470  0.31038790  1
  O2-  O511  1  0.65978716  0.57965432  0.64251100  1
  O2-  O512  1  0.70124461  0.65502439  0.96774757  1
  O2-  O513  1  0.67352573  0.85665871  0.31451608  1
  O2-  O514  1  0.67618759  0.83492771  0.65670611  1
  O2-  O515  1  0.66015109  0.83165266  0.97144099  1
  O2-  O516  1  0.91446854  0.08745247  0.31462258  1
  O2-  O517  1  0.91386917  0.08450933  0.64852454  1
  O2-  O518  1  0.89041672  0.07406036  0.97707001  1
  O2-  O519  1  0.91765485  0.32181117  0.31390024  1
  O2-  O520  1  0.89099485  0.34066980  0.66173716  1
  O2-  O521  1  0.91827182  0.32347099  0.98364812  1
  O2-  O522  1  0.91652700  0.58821426  0.30691743  1
  O2-  O523  1  0.94157717  0.58685896  0.64584344  1
  O2-  O524  1  0.91158471  0.57754948  0.98391740  1
  O2-  O525  1  0.90275185  0.83179616  0.31728652  1
  O2-  O526  1  0.91581556  0.83377583  0.67550905  1
  O2-  O527  1  0.90732058  0.83058667  0.99816978  1
  O2-  O528  1  0.03799656  0.20588286  0.03789911  1
  O2-  O529  1  0.07866067  0.16037675  0.36107136  1
  O2-  O530  1  0.09114037  0.18760959  0.68359049  1
  O2-  O531  1  0.09140303  0.42890820  0.01753724  1
  O2-  O532  1  0.03853678  0.33298522  0.37423075  1
  O2-  O533  1  0.06400563  0.41788213  0.68290509  1
  O2-  O534  1  0.08032665  0.66157920  0.01831825  1
  O2-  O535  1  0.08562039  0.68501853  0.33989781  1
  O2-  O536  1  0.09601995  0.65968960  0.70886484  1
  O2-  O537  1  0.08868883  0.91440847  0.00208768  1
  O2-  O538  1  0.06782823  0.90206255  0.35007791  1
  O2-  O539  1  0.08630089  0.90775346  0.69498307  1
  O2-  O540  1  0.35461946  0.17102990  0.00708304  1
  O2-  O541  1  0.32150000  0.15552307  0.35669322  1
  O2-  O542  1  0.34800505  0.16585659  0.69244258  1
  O2-  O543  1  0.32758826  0.41336420  0.02262554  1
  O2-  O544  1  0.31987715  0.41118427  0.35356868  1
  O2-  O545  1  0.33435525  0.41227651  0.69169073  1
  O2-  O546  1  0.31845152  0.67378213  0.00975855  1
  O2-  O547  1  0.34112545  0.66933778  0.34714099  1
  O2-  O548  1  0.30746037  0.70507981  0.69667162  1
  O2-  O549  1  0.33620560  0.91203776  0.02105597  1
  O2-  O550  1  0.33213408  0.91496478  0.34585501  1
  O2-  O551  1  0.33373957  0.91091908  0.69125621  1
  O2-  O552  1  0.58241338  0.16619220  0.01980928  1
  O2-  O553  1  0.58606475  0.16954635  0.35637317  1
  O2-  O554  1  0.58626384  0.15479355  0.71022069  1
  O2-  O555  1  0.57572129  0.40838123  0.02212751  1
  O2-  O556  1  0.58959289  0.40765925  0.36054231  1
  O2-  O557  1  0.58131118  0.40888471  0.65590610  1
  O2-  O558  1  0.57648225  0.67293821  0.02731753  1
  O2-  O559  1  0.56425330  0.64199176  0.34917797  1
  O2-  O560  1  0.58347855  0.66649576  0.68783470  1
  O2-  O561  1  0.57728981  0.90684636  0.01859567  1
  O2-  O562  1  0.58732205  0.92860622  0.34285771  1
  O2-  O563  1  0.58959003  0.91532977  0.68537106  1
  O2-  O564  1  0.82529320  0.16429754  0.03120775  1
  O2-  O565  1  0.82519298  0.15976170  0.35905879  1
  O2-  O566  1  0.84847996  0.17437648  0.70436045  1
  O2-  O567  1  0.83663941  0.41066175  0.01586971  1
  O2-  O568  1  0.81112950  0.40055851  0.37722062  1
  O2-  O569  1  0.76984244  0.37756926  0.72566856  1
  O2-  O570  1  0.83079859  0.65863174  0.02697867  1
  O2-  O571  1  0.82035442  0.66233390  0.34914737  1
  O2-  O572  1  0.81447725  0.62816753  0.69494987  1
  O2-  O573  1  0.82181270  0.91261435  0.02187465  1
  O2-  O574  1  0.82774855  0.91949799  0.35616445  1
  O2-  O575  1  0.83008896  0.92581738  0.71599354  1
