# generated using pymatgen
data_H2O
_symmetry_space_group_name_H-M   'P 1'
_cell_length_a   17.98477204
_cell_length_b   17.98878697
_cell_length_c   21.99117131
_cell_angle_alpha   89.98124033
_cell_angle_beta   90.02003440
_cell_angle_gamma   120.02265610
_symmetry_Int_Tables_number   1
_chemical_formula_structural   H2O
_chemical_formula_sum   'H384 O192'
_cell_volume   6160.08326500
_cell_formula_units_Z   192
loop_
 _symmetry_equiv_pos_site_id
 _symmetry_equiv_pos_as_xyz
  1  'x, y, z'
loop_
 _atom_type_symbol
 _atom_type_oxidation_number
  H+  1.0
  O2-  -2.0
loop_
 _atom_site_type_symbol
 _atom_site_label
 _atom_site_symmetry_multiplicity
 _atom_site_fract_x
 _atom_site_fract_y
 _atom_site_fract_z
 _atom_site_occupancy
  H+  H0  1  0.98133222  0.11502813  0.83997096  1
  H+  H1  1  0.39226850  1.04520192  0.83578778  1
  H+  H2  1  0.83944844  0.36111662  0.49026615  1
  H+  H3  1  0.37067942  0.75225160  0.01271820  1
  H+  H4  1  0.38108777  0.53515096  0.99895000  1
  H+  H5  1  0.73711299  0.86556699  0.66211518  1
  H+  H6  1  -0.04727196  0.33201719  0.67572727  1
  H+  H7  1  0.35528770  0.77399319  0.18293261  1
  H+  H8  1  0.82511370  0.42342605  0.72971658  1
  H+  H9  1  0.39588433  0.38142755  0.82862110  1
  H+  H10  1  0.84177620  0.66950959  0.76148621  1
  H+  H11  1  0.64955823  0.26671826  0.32857497  1
  H+  H12  1  0.88612943  0.11383605  0.99170010  1
  H+  H13  1  0.85938682  0.88596286  0.15944164  1
  H+  H14  1  0.14176547  0.36698895  0.83553011  1
  H+  H15  1  0.62798883  0.14578178  0.32987901  1
  H+  H16  1  0.96304452  0.86257448  0.17347166  1
  H+  H17  1  0.27864261  0.38976203  0.01077121  1
  H+  H18  1  0.73084018  0.85437358  0.15979120  1
  H+  H19  1  0.53769504  0.36172438  0.33037653  1
  H+  H20  1  0.13244120  0.10706605  0.84216186  1
  H+  H21  1  0.11811669  0.64251634  0.15875938  1
  H+  H22  1  0.64112436  0.12964801  0.15675787  1
  H+  H23  1  0.95600331  0.85582443  0.32944026  1
  H+  H24  1  0.51646909  0.90045269  1.01929681  1
  H+  H25  1  0.89655509  0.31580118  0.73374520  1
  H+  H26  1  0.52248214  0.62772159  0.33864120  1
  H+  H27  1  0.37987015  0.63689661  0.49009315  1
  H+  H28  1  0.38472981  0.40483205  0.49143225  1
  H+  H29  1  0.89550730  0.61519754  0.83157020  1
  H+  H30  1  0.13993337  0.89681819  0.48975040  1
  H+  H31  1  0.61275389  0.38121555  0.14751627  1
  H+  H32  1  0.11364123  0.34971235  0.32521876  1
  H+  H33  1  0.10222760  0.88513083  0.14502806  1
  H+  H34  1  0.75320443  0.61532082  0.98846277  1
  H+  H35  1  0.85826157  0.13586607  0.33196674  1
  H+  H36  1  0.72113879  0.37307268  0.65383350  1
  H+  H37  1  0.10755561  -0.02144115  1.00130800  1
  H+  H38  1  0.37852437  0.78239362  0.33496843  1
  H+  H39  1  0.15823651  0.51515215  0.00804004  1
  H+  H40  1  0.86445375  0.88504065  1.00396403  1
  H+  H41  1  0.62320295  0.64349855  0.82319518  1
  H+  H42  1  0.87379726  0.88850015  0.82729798  1
  H+  H43  1  0.40185533  0.84955050  0.48463981  1
  H+  H44  1  0.62130297  0.49085350  0.66476524  1
  H+  H45  1  0.22503982  0.86929360  0.14047584  1
  H+  H46  1  0.97821353  0.34652099  0.31602855  1
  H+  H47  1  0.64813325  0.62491740  0.65153032  1
  H+  H48  1  0.15423235  0.03718035  0.50731259  1
  H+  H49  1  0.11154482  0.64250481  0.99814660  1
  H+  H50  1  0.86791459  0.63839603  0.66713050  1
  H+  H51  1  0.63448245  0.51308779  0.31734206  1
  H+  H52  1  0.65127560  0.86339361  0.97759003  1
  H+  H53  1  0.56499069  -0.02603097  0.18989790  1
  H+  H54  1  0.63991341  0.27301943  0.16405284  1
  H+  H55  1  0.37004279  0.90543504  0.34844625  1
  H+  H56  1  0.09078946  0.97352747  0.33526185  1
  H+  H57  1  0.38505091  0.11223370  0.17498816  1
  H+  H58  1  0.87482903  0.97926091  0.82764985  1
  H+  H59  1  0.62911591  0.14668238  0.82950311  1
  H+  H60  1  0.74499698  0.86639539  0.50618397  1
  H+  H61  1  -0.02088898  0.11515718  0.51353870  1
  H+  H62  1  0.86272688  1.00645176  0.31954869  1
  H+  H63  1  0.88418464  0.26550890  0.31909721  1
  H+  H64  1  -0.01870312  0.86055771  0.83843482  1
  H+  H65  1  0.59017071  0.40968318  0.39197888  1
  H+  H66  1  0.42065684  0.59864481  0.89537173  1
  H+  H67  1  0.69681608  0.82516761  0.56900553  1
  H+  H68  1  0.70544515  0.85309138  0.30860631  1
  H+  H69  1  0.12183013  0.65006992  0.66033593  1
  H+  H70  1  0.11248997  0.22842189  0.00382187  1
  H+  H71  1  0.11338204  0.13975748  0.49364844  1
  H+  H72  1  0.13361311  0.86833660  0.00013687  1
  H+  H73  1  0.11598880  0.42654212  0.41350749  1
  H+  H74  1  0.13418527  0.86754912  0.34718981  1
  H+  H75  1  -0.00316622  0.38309494  0.52386690  1
  H+  H76  1  0.61921647  0.39983442  0.66450145  1
  H+  H77  1  0.53096555  0.39914085  -0.00583114  1
  H+  H78  1  0.45005531  0.18103605  0.30266694  1
  H+  H79  1  0.64761988  0.86560722  0.65544394  1
  H+  H80  1  0.38953755  0.25177081  0.82220990  1
  H+  H81  1  0.87147582  0.72966259  0.66941761  1
  H+  H82  1  0.38079820  0.12070969  0.98806896  1
  H+  H83  1  0.88643371  0.02400250  0.99419150  1
  H+  H84  1  0.35098604  0.88966569  0.16474698  1
  H+  H85  1  0.85285607  0.71184044  0.48969669  1
  H+  H86  1  0.24342806  0.44013105  0.37837195  1
  H+  H87  1  0.02945940  0.63252197  0.49695826  1
  H+  H88  1  0.72789640  0.12197541  -0.00559757  1
  H+  H89  1  0.78728271  0.15745826  0.14991485  1
  H+  H90  1  0.35895449  0.65842034  0.01325767  1
  H+  H91  1  0.14603757  0.54178534  0.65199139  1
  H+  H92  1  0.36548325  0.49029825  0.81577405  1
  H+  H93  1  0.77338493  0.14140917  0.32886359  1
  H+  H94  1  0.62308120  0.73277877  0.66920074  1
  H+  H95  1  0.87300580  -0.02656692  0.67529265  1
  H+  H96  1  0.11836777  0.88880958  0.82917751  1
  H+  H97  1  0.25251405  0.12064883  0.16041212  1
  H+  H98  1  0.68071219  0.83852742  0.88718753  1
  H+  H99  1  0.60953211  0.92068559  0.05195345  1
  H+  H100  1  0.62304598  0.39992912  0.99416365  1
  H+  H101  1  0.44403146  0.59682281  0.56159879  1
  H+  H102  1  0.48574355  0.62878710  0.83873960  1
  H+  H103  1  0.42280654  0.13258178  0.68767510  1
  H+  H104  1  0.36171071  0.24980502  0.48850043  1
  H+  H105  1  0.80164554  0.89971427  0.38832562  1
  H+  H106  1  0.88985693  0.51709680  0.50300487  1
  H+  H107  1  0.64999678  0.36475659  0.32919174  1
  H+  H108  1  0.77941277  0.38780659  0.15038303  1
  H+  H109  1  0.29610064  0.14641002  0.67348493  1
  H+  H110  1  0.23244232  0.60950754  0.50123208  1
  H+  H111  1  0.10205270  -0.02712022  0.15922122  1
  H+  H112  1  0.22773488  0.87830160  0.35647111  1
  H+  H113  1  0.48989518  0.37660555  0.65248961  1
  H+  H114  1  0.54094862  0.90652802  0.82746092  1
  H+  H115  1  -0.12535439  0.35882213  0.82486415  1
  H+  H116  1  0.64182457  0.28322123  0.83382576  1
  H+  H117  1  0.85488443  0.61640011  0.14546226  1
  H+  H118  1  0.37830856  0.99857163  0.34709660  1
  H+  H119  1  0.74005547  0.61894870  0.83277365  1
  H+  H120  1  0.15094096  0.61362428  0.83550457  1
  H+  H121  1  0.39582281  0.24966991  0.32056681  1
  H+  H122  1  0.12423090  0.10538432  0.16989959  1
  H+  H123  1  0.15097634  0.49564777  0.35915501  1
  H+  H124  1  0.82719900  0.65366217  0.39305628  1
  H+  H125  1  0.62157378  0.72526009  0.99271994  1
  H+  H126  1  0.26442822  0.14436326  0.99173065  1
  H+  H127  1  0.86870727  0.23182036  -0.00670186  1
  H+  H128  1  0.39713702  0.41353134  0.28994829  1
  H+  H129  1  0.60588853  0.15434673  0.50029402  1
  H+  H130  1  0.59151025  0.66846816  0.39098693  1
  H+  H131  1  0.40042762  0.61216435  0.65384597  1
  H+  H132  1  0.63964830  0.37223558  0.82884360  1
  H+  H133  1  0.73988472  0.87086957  0.82867021  1
  H+  H134  1  0.11378620  0.73067322  0.35524224  1
  H+  H135  1  0.32529677  0.44736215  0.18986901  1
  H+  H136  1  0.59251967  0.67092256  0.72797518  1
  H+  H137  1  0.37022733  0.47629535  0.66102190  1
  H+  H138  1  0.88616850  0.60716061  0.32479889  1
  H+  H139  1  0.73437720  0.38293941  0.98433998  1
  H+  H140  1  0.99901826  0.11567150  0.34215215  1
  H+  H141  1  0.38391668  0.26176457  0.16164809  1
  H+  H142  1  0.38529067  0.03296392  0.98858749  1
  H+  H143  1  0.23148960  0.64279466  0.99278070  1
  H+  H144  1  0.24156525  0.88554893  0.84762377  1
  H+  H145  1  0.87162918  0.72818222  0.82211000  1
  H+  H146  1  0.11559571  0.72824681  0.14356724  1
  H+  H147  1  0.63256390  0.60151467  0.31753413  1
  H+  H148  1  0.64147003  0.51910219  0.98248234  1
  H+  H149  1  0.35719975  0.85521177  0.67754503  1
  H+  H150  1  0.23287295  0.37379722  0.83148694  1
  H+  H151  1  0.15294760  0.50457602  0.19015909  1
  H+  H152  1  0.03050650  0.89408657  0.67072671  1
  H+  H153  1  0.11308292  0.34985426  0.52682089  1
  H+  H154  1  0.48523538  0.37709367  0.49755362  1
  H+  H155  1  0.47763944  0.10684260  0.64730141  1
  H+  H156  1  0.39081478  0.94682754  0.50854473  1
  H+  H157  1  0.50220064  0.88236310  0.49281652  1
  H+  H158  1  0.72942163  0.60454004  0.49696030  1
  H+  H159  1  0.64898567  0.53014873  0.83043694  1
  H+  H160  1  0.07298028  0.91862888  0.39547872  1
  H+  H161  1  0.80754686  0.21883711  0.50182809  1
  H+  H162  1  0.33130347  0.12116701  0.35082887  1
  H+  H163  1  0.07486858  0.20957737  0.33713762  1
  H+  H164  1  0.05864326  0.40622316  0.62303629  1
  H+  H165  1  0.20958391  0.33843700  0.17696823  1
  H+  H166  1  0.12394203  0.22247010  0.67396396  1
  H+  H167  1  0.25114594  0.64885750  0.84605842  1
  H+  H168  1  0.30730819  0.58660840  0.72312177  1
  H+  H169  1  0.83615565  0.86683444  0.33365947  1
  H+  H170  1  0.88019434  0.85568375  0.50244296  1
  H+  H171  1  0.11410254  0.10758914  0.32490368  1
  H+  H172  1  0.50319815  0.62701575  0.49956931  1
  H+  H173  1  0.62510308  0.63446459  0.48193787  1
  H+  H174  1  0.88781962  0.52411276  0.65640703  1
  H+  H175  1  0.63731140  0.01634673  0.65220435  1
  H+  H176  1  0.12712776  0.13540916  0.67716897  1
  H+  H177  1  0.63764950  0.72751655  0.48602818  1
  H+  H178  1  0.89375267  0.10190860  0.66884939  1
  H+  H179  1  0.53124075  0.88433549  0.66787915  1
  H+  H180  1  0.39358760  0.50400114  0.49468425  1
  H+  H181  1  0.11701708  0.22684566  0.82609258  1
  H+  H182  1  0.61800659  0.76608093  0.30813156  1
  H+  H183  1  0.74743764  0.36684187  0.32673113  1
  H+  H184  1  0.62858226  0.51074801  0.16240602  1
  H+  H185  1  0.86851115  0.39100531  0.99446437  1
  H+  H186  1  0.38673108  0.92069885  0.83621738  1
  H+  H187  1  0.64636361  1.03106241  0.84013763  1
  H+  H188  1  0.38307867  0.23722165  0.66784149  1
  H+  H189  1  0.87069747  0.47497617  0.33435659  1
  H+  H190  1  0.39689180  0.36837291  0.65275142  1
  H+  H191  1  0.63907920  0.74576058  0.15193819  1
  H+  H192  1  0.62562856  0.89737164  0.82152803  1
  H+  H193  1  0.76378160  0.61315917  0.14419746  1
  H+  H194  1  0.90976561  0.82854691  0.60099469  1
  H+  H195  1  0.83212291  0.91365677  0.06347801  1
  H+  H196  1  0.38795650  1.02554883  0.17274046  1
  H+  H197  1  0.88977245  0.52403222  0.98595998  1
  H+  H198  1  0.27933453  0.38645149  0.66469417  1
  H+  H199  1  0.39454682  0.37983160  -0.01015148  1
  H+  H200  1  0.88107759  0.27001237  0.82758583  1
  H+  H201  1  0.13761689  0.34834845  0.65898138  1
  H+  H202  1  0.01400386  0.41122306  0.79148006  1
  H+  H203  1  0.72725113  0.09976648  0.65965327  1
  H+  H204  1  0.44420753  0.86337633  0.18864088  1
  H+  H205  1  0.73675304  0.62317007  0.65171008  1
  H+  H206  1  0.38904358  0.67489346  0.83057829  1
  H+  H207  1  0.89190443  0.86287002  0.66271507  1
  H+  H208  1  1.01630599  0.60117174  0.81270113  1
  H+  H209  1  0.41090621  0.81373121  0.84755171  1
  H+  H210  1  0.63257892  1.02592522  0.31045245  1
  H+  H211  1  0.32757256  0.46919399  0.34049213  1
  H+  H212  1  0.76848089  0.62490050  0.33251965  1
  H+  H213  1  0.33748078  0.42783131  0.75699653  1
  H+  H214  1  -0.02747321  0.85896896  -0.00752903  1
  H+  H215  1  0.15961128  0.38038138  0.99280409  1
  H+  H216  1  0.39208697  0.83718001  0.27479857  1
  H+  H217  1  0.20356219  0.10863060  0.32807640  1
  H+  H218  1  0.98150632  0.36917226  0.96772043  1
  H+  H219  1  0.49197829  0.61730542  0.65554882  1
  H+  H220  1  0.92234727  0.33857616  0.22703748  1
  H+  H221  1  0.53479830  0.40480132  0.81657217  1
  H+  H222  1  0.86769438  0.47737682  0.15450682  1
  H+  H223  1  0.96585959  0.10315593  0.16851099  1
  H+  H224  1  0.88426965  -0.00518917  0.49393231  1
  H+  H225  1  0.85237453  0.97298037  0.15570640  1
  H+  H226  1  0.37590030  0.89784216  1.00194533  1
  H+  H227  1  -0.01308192  0.10792894  0.66790350  1
  H+  H228  1  0.27693746  0.62783563  0.67382398  1
  H+  H229  1  0.11305542  0.73385328  0.66831045  1
  H+  H230  1  0.27260348  0.63684158  0.16953321  1
  H+  H231  1  0.97585967  0.61649817  0.98748863  1
  H+  H232  1  0.72271864  0.36787989  0.49790038  1
  H+  H233  1  0.87934240  0.24131556  0.15299262  1
  H+  H234  1  0.66215149  0.05550151  0.14017820  1
  H+  H235  1  0.28416080  0.89147639  0.00549888  1
  H+  H236  1  0.47436862  0.34899950  0.16170366  1
  H+  H237  1  0.89378628  0.37072667  0.16706528  1
  H+  H238  1  0.16518811  0.83649010  0.08352526  1
  H+  H239  1  0.42003373  0.59650786  0.24856729  1
  H+  H240  1  0.43819860  0.44946747  0.27735670  1
  H+  H241  1  0.61485799  0.47934666  0.48155583  1
  H+  H242  1  0.23171820  0.13229260  0.50916751  1
  H+  H243  1  0.09876422  0.21049322  0.15738901  1
  H+  H244  1  0.62580178  0.63240040  0.14674160  1
  H+  H245  1  0.13372033  0.11333804  -0.00957672  1
  H+  H246  1  0.61054820  0.14506017  1.00621130  1
  H+  H247  1  0.43330955  0.10170980  0.26320850  1
  H+  H248  1  0.38100319  0.72510067  0.48879556  1
  H+  H249  1  0.51421930  0.89307212  0.32892049  1
  H+  H250  1  0.43720428  0.29321668  0.25599417  1
  H+  H251  1  0.85881000  0.62457136  -0.00674692  1
  H+  H252  1  0.62596984  0.73395762  0.82000180  1
  H+  H253  1  0.39110904  0.14664338  0.83200126  1
  H+  H254  1  0.63255787  1.00252234  0.47552353  1
  H+  H255  1  0.91824638  0.82970538  0.89666857  1
  H+  H256  1  0.87173244  0.38473474  0.33333821  1
  H+  H257  1  0.86675913  0.13541014  0.83298734  1
  H+  H258  1  0.22890852  0.62348364  0.33795366  1
  H+  H259  1  0.59924382  0.88669005  0.31945374  1
  H+  H260  1  0.54268969  0.15497079  0.33180372  1
  H+  H261  1  -0.02142787  0.61319579  0.65365494  1
  H+  H262  1  0.23173529  0.85947439  0.51240691  1
  H+  H263  1  0.85033975  0.38349428  0.67610225  1
  H+  H264  1  0.21746486  0.49625589  0.04958917  1
  H+  H265  1  0.11366051  0.64087147  0.34594607  1
  H+  H266  1  0.35572206  0.64034737  0.32843136  1
  H+  H267  1  0.13046380  0.01727462  0.84297229  1
  H+  H268  1  0.02706064  0.38849525  0.15520850  1
  H+  H269  1  0.61651296  0.63460656  0.99079130  1
  H+  H270  1  0.36070825  0.18854587  0.76260376  1
  H+  H271  1  0.15343235  1.03036659  0.66356856  1
  H+  H272  1  0.52073003  0.14333740  0.00562405  1
  H+  H273  1  0.66948431  0.10453611  0.57751085  1
  H+  H274  1  0.22610806  0.85647908  0.66589259  1
  H+  H275  1  0.85096067  0.19914474  0.68472508  1
  H+  H276  1  0.02225381  0.13952706  0.00191093  1
  H+  H277  1  0.11851739  0.89324668  0.67390936  1
  H+  H278  1  0.97695524  0.61139136  0.17167339  1
  H+  H279  1  0.87135125  0.76272692  0.32588641  1
  H+  H280  1  0.12576884  0.34590738  0.16811932  1
  H+  H281  1  0.63453177  0.03848380  1.00459346  1
  H+  H282  1  0.74022634  0.86553344  0.98762715  1
  H+  H283  1  0.40516859  0.77012142  0.64077010  1
  H+  H284  1  0.37951934  0.05565813  0.51168833  1
  H+  H285  1  0.17618834  0.34099572  0.93244349  1
  H+  H286  1  0.14621170  0.61728406  0.50292971  1
  H+  H287  1  0.55080232  0.15001763  0.73314137  1
  H+  H288  1  0.92271669  0.58446629  0.89164586  1
  H+  H289  1  0.80045296  0.78874127  0.53463384  1
  H+  H290  1  0.32797983  0.19315978  0.04689768  1
  H+  H291  1  0.07604682  0.66039634  0.05966959  1
  H+  H292  1  0.91733524  0.58025243  0.23076679  1
  H+  H293  1  0.07551403  0.63771670  0.75286260  1
  H+  H294  1  0.47117460  0.13849169  0.50367959  1
  H+  H295  1  0.91443143  0.96469230  0.43630868  1
  H+  H296  1  0.35887177  0.70444467  0.77291530  1
  H+  H297  1  0.33489473  0.43830995  0.43502939  1
  H+  H298  1  0.88370367  0.76882713  0.99102819  1
  H+  H299  1  0.84063240  0.27298715  0.56046669  1
  H+  H300  1  0.18357445  0.59750799  0.59227083  1
  H+  H301  1  0.52555765  0.14038977  0.15758040  1
  H+  H302  1  0.36386759  0.16187666  0.49359514  1
  H+  H303  1  0.83335464  0.40880992  0.43080105  1
  H+  H304  1  0.15290023  0.07879169  0.23215150  1
  H+  H305  1  0.28769299  0.80548009  0.72757484  1
  H+  H306  1  0.12574152  0.27097909  0.50881014  1
  H+  H307  1  0.84527236  0.18205552  0.05754638  1
  H+  H308  1  0.19312881  0.96500689  0.44153015  1
  H+  H309  1  0.34383603  0.66626631  0.39696338  1
  H+  H310  1  0.59028768  0.93901913  0.41922130  1
  H+  H311  1  0.33399557  0.42031899  0.07213119  1
  H+  H312  1  0.29913549  0.10247716  0.10670885  1
  H+  H313  1  0.67152145  0.58413278  0.55708639  1
  H+  H314  1  0.88333740  0.11393591  0.16739438  1
  H+  H315  1  0.35508448  0.37934931  0.17118421  1
  H+  H316  1  0.13219191  0.77646065  -0.00129729  1
  H+  H317  1  0.86212443  0.47690517  0.82273004  1
  H+  H318  1  0.90214510  0.07080178  0.26313464  1
  H+  H319  1  0.91781682  0.57774569  0.56185640  1
  H+  H320  1  0.23957550  0.53361360  0.22760796  1
  H+  H321  1  0.10120813  0.42909109  0.10256581  1
  H+  H322  1  0.07515156  0.16230139  0.43436299  1
  H+  H323  1  0.58281288  0.41322248  0.08866059  1
  H+  H324  1  0.92264245  0.07591529  0.57353138  1
  H+  H325  1  0.90292208  0.83435877  0.23244063  1
  H+  H326  1  0.06549647  0.42152516  0.69954704  1
  H+  H327  1  0.92147397  0.08306797  0.89989175  1
  H+  H328  1  0.47459809  0.81131573  0.96621596  1
  H+  H329  1  0.84292241  0.41931984  0.05725499  1
  H+  H330  1  0.54859449  0.93050877  0.12440372  1
  H+  H331  1  0.42916298  0.35115325  0.56025692  1
  H+  H332  1  0.32076772  0.68509177  0.10686455  1
  H+  H333  1  0.66220047  0.57230444  0.22132946  1
  H+  H334  1  0.91930967  0.33810644  0.91090330  1
  H+  H335  1  0.84092229  0.91388636  0.73449702  1
  H+  H336  1  0.76876564  0.39047488  0.82193391  1
  H+  H337  1  0.43006058  0.83799228  0.58819088  1
  H+  H338  1  0.60028004  0.66704593  0.08513360  1
  H+  H339  1  0.58383166  0.17346823  0.43342994  1
  H+  H340  1  0.82071236  0.64241960  0.05842307  1
  H+  H341  1  0.97793242  0.61269506  0.32831160  1
  H+  H342  1  0.08687746  0.66555992  0.43721760  1
  H+  H343  1  0.34546005  0.92842764  0.09870836  1
  H+  H344  1  0.22530082  0.77744721  0.25160559  1
  H+  H345  1  0.07286370  0.92134254  0.06224028  1
  H+  H346  1  0.38897922  0.28977974  0.97852770  1
  H+  H347  1  0.65776734  0.81696011  0.21552370  1
  H+  H348  1  0.06133168  0.50975247  0.77426381  1
  H+  H349  1  0.77650219  0.13543656  0.83411500  1
  H+  H350  1  0.34866684  0.94232174  0.44272341  1
  H+  H351  1  0.42746629  0.35767320  0.88984470  1
  H+  H352  1  0.82463521  0.13738794  0.73965000  1
  H+  H353  1  0.31595644  0.17146491  0.40436622  1
  H+  H354  1  0.08541447  0.91533202  0.76866737  1
  H+  H355  1  0.18184721  0.09101410  0.60481197  1
  H+  H356  1  0.67344469  0.33528701  0.22172921  1
  H+  H357  1  0.66976189  0.09077619  0.25324366  1
  H+  H358  1  0.16897379  0.57356208  0.28283912  1
  H+  H359  1  0.59061012  0.91844370  0.72774437  1
  H+  H360  1  0.46964211  0.62105106  0.99434205  1
  H+  H361  1  0.18043628  0.85120431  0.90475259  1
  H+  H362  1  0.14191756  0.76995077  0.50951925  1
  H+  H363  1  0.86618750  0.62896643  0.48875766  1
  H+  H364  1  0.66372750  0.34735537  0.59403535  1
  H+  H365  1  0.08812079  0.16566679  0.76777226  1
  H+  H366  1  0.34777148  0.93142057  0.77432826  1
  H+  H367  1  0.67950091  0.58190022  0.91970995  1
  H+  H368  1  0.67467819  0.35508445  0.92501254  1
  H+  H369  1  0.17230537  0.83755287  0.60338316  1
  H+  H370  1  0.16896190  0.32310051  0.59955441  1
  H+  H371  1  0.11015343  0.30428267  0.26216342  1
  H+  H372  1  0.63011111  0.28189523  0.49925378  1
  H+  H373  1  0.61354404  0.38967501  0.48451758  1
  H+  H374  1  0.08864388  0.47115567  0.52591566  1
  H+  H375  1  0.44440721  0.87098815  0.90796847  1
  H+  H376  1  0.20214038  0.80239068  0.25078604  1
  H+  H377  1  0.16035288  0.07957019  0.92990491  1
  H+  H378  1  0.66870284  0.08552037  0.90300069  1
  H+  H379  1  0.41476565  0.10077155  0.89915487  1
  H+  H380  1  0.59402789  0.43187769  0.75657097  1
  H+  H381  1  0.17879071  0.60477600  0.93021080  1
  H+  H382  1  0.07311603  0.15503955  0.09619951  1
  H+  H383  1  0.57946171  0.16996548  0.09365474  1
  O2-  O384  1  0.06935598  0.14967727  0.14154680  1
  O2-  O385  1  0.08091421  0.16807867  0.47955412  1
  O2-  O386  1  0.08396225  0.16599481  0.81341533  1
  O2-  O387  1  0.08988663  0.41415989  0.14619480  1
  O2-  O388  1  0.05421619  0.41182214  0.54204419  1
  O2-  O389  1  0.06111071  0.45486974  0.76625027  1
  O2-  O390  1  0.08229219  0.66352409  0.14109930  1
  O2-  O391  1  0.09073603  0.66525858  0.48303933  1
  O2-  O392  1  0.06752154  0.60566933  0.79150580  1
  O2-  O393  1  0.06878889  0.91505669  0.13974130  1
  O2-  O394  1  0.14082526  0.94453931  0.46557526  1
  O2-  O395  1  0.08183435  0.91275465  0.81398639  1
  O2-  O396  1  0.31116985  0.14273501  0.14006268  1
  O2-  O397  1  0.32924101  0.18802158  0.47638182  1
  O2-  O398  1  0.36220877  0.19048705  0.80854788  1
  O2-  O399  1  0.32005808  0.40468105  0.15780862  1
  O2-  O400  1  0.35657115  0.44123114  0.48026065  1
  O2-  O401  1  0.33506819  0.42929272  0.80273666  1
  O2-  O402  1  0.32464099  0.68650072  0.15182389  1
  O2-  O403  1  0.34642959  0.66433050  0.47560650  1
  O2-  O404  1  0.36384221  0.71102641  0.81738560  1
  O2-  O405  1  0.33230722  0.92787864  0.14281772  1
  O2-  O406  1  0.33895405  0.93832614  0.48815790  1
  O2-  O407  1  0.35170324  0.94474875  0.81811627  1
  O2-  O408  1  0.58506719  0.17173590  0.14095983  1
  O2-  O409  1  0.57357633  0.17826543  0.47687235  1
  O2-  O410  1  0.60009497  0.17861234  0.81452256  1
  O2-  O411  1  0.57822160  0.40774844  0.13411983  1
  O2-  O412  1  0.58285832  0.41885934  0.46579781  1
  O2-  O413  1  0.59563125  0.43198458  0.80258844  1
  O2-  O414  1  0.60301376  0.66978044  0.13072393  1
  O2-  O415  1  0.59932127  0.66994819  0.46715967  1
  O2-  O416  1  0.59147475  0.67200372  0.80780181  1
  O2-  O417  1  0.54453170  0.91911695  0.16935164  1
  O2-  O418  1  0.58993061  0.94216193  0.46414671  1
  O2-  O419  1  0.59809201  0.93057774  0.80703181  1
  O2-  O420  1  0.84754590  0.18141461  0.13586046  1
  O2-  O421  1  0.71611309  0.11379860  0.49266096  1
  O2-  O422  1  0.83587845  0.16430464  0.81606750  1
  O2-  O423  1  0.84048043  0.41812915  0.13660502  1
  O2-  O424  1  0.82842925  0.40767079  0.47573644  1
  O2-  O425  1  0.82964671  0.41713449  0.80589556  1
  O2-  O426  1  0.81997089  0.63611875  0.12284673  1
  O2-  O427  1  0.83182976  0.65392484  0.47139401  1
  O2-  O428  1  0.84185134  0.66729624  0.80711917  1
  O2-  O429  1  0.82589231  0.91267695  0.13988448  1
  O2-  O430  1  0.86736899  0.94145638  0.46558299  1
  O2-  O431  1  0.84398312  0.91911645  0.81138023  1
  O2-  O432  1  0.15662227  0.07738827  0.18660456  1
  O2-  O433  1  0.17213606  0.09428194  0.52540125  1
  O2-  O434  1  0.15935002  0.07604252  0.86078501  1
  O2-  O435  1  0.14671818  0.30838053  0.18571482  1
  O2-  O436  1  0.15389259  0.32857384  0.52865571  1
  O2-  O437  1  0.17427449  0.34072279  0.85059966  1
  O2-  O438  1  0.19726377  0.55390210  0.21421625  1
  O2-  O439  1  0.17417660  0.58468761  0.51941768  1
  O2-  O440  1  0.19317123  0.60666047  0.86050883  1
  O2-  O441  1  0.16260314  0.83352790  0.12847825  1
  O2-  O442  1  0.17104981  0.83008759  0.52603832  1
  O2-  O443  1  0.18052365  0.85240178  0.86012533  1
  O2-  O444  1  0.42018966  0.08671844  0.18809377  1
  O2-  O445  1  0.41276022  0.11719950  0.52133661  1
  O2-  O446  1  0.41788747  0.10517112  0.85325782  1
  O2-  O447  1  0.41736510  0.31697680  0.18283547  1
  O2-  O448  1  0.42544084  0.35378138  0.51434192  1
  O2-  O449  1  0.42968366  0.35544485  0.84449098  1
  O2-  O450  1  0.30260138  0.50054481  0.24653550  1
  O2-  O451  1  0.44241892  0.59652133  0.51574628  1
  O2-  O452  1  0.42389443  0.60316051  0.85032361  1
  O2-  O453  1  0.38195825  0.83460461  0.20114624  1
  O2-  O454  1  0.44106976  0.84005604  0.50972942  1
  O2-  O455  1  0.44215571  0.87445330  0.86212900  1
  O2-  O456  1  0.67693210  0.10202415  0.16918763  1
  O2-  O457  1  0.66777324  0.13100769  0.53556688  1
  O2-  O458  1  0.67487281  0.09037434  0.85768437  1
  O2-  O459  1  0.67246195  0.33530876  0.17708241  1
  O2-  O460  1  0.66216736  0.34369035  0.51221449  1
  O2-  O461  1  0.67097470  0.34478879  0.84709466  1
  O2-  O462  1  0.66220583  0.57220253  0.17592846  1
  O2-  O463  1  0.66853844  0.57980119  0.51141869  1
  O2-  O464  1  0.67948672  0.58962662  0.84909482  1
  O2-  O465  1  0.66692363  0.81475653  0.17024158  1
  O2-  O466  1  0.71172434  0.81193034  0.52775731  1
  O2-  O467  1  0.67790290  0.84043413  0.84214246  1
  O2-  O468  1  0.90511288  0.07645287  0.18345151  1
  O2-  O469  1  0.91928737  0.07767124  0.52838771  1
  O2-  O470  1  0.92014670  0.08272744  0.85440689  1
  O2-  O471  1  0.92553125  0.34136808  0.18153462  1
  O2-  O472  1  0.85211246  0.27758003  0.51689722  1
  O2-  O473  1  0.91333350  0.33430866  0.83332223  1
  O2-  O474  1  0.91615110  0.57857625  0.18525559  1
  O2-  O475  1  0.92075163  0.57829553  0.51614622  1
  O2-  O476  1  0.92190181  0.58096713  0.84637813  1
  O2-  O477  1  0.90297753  0.83853918  0.18744437  1
  O2-  O478  1  0.86049108  0.80247739  0.52678829  1
  O2-  O479  1  0.91895570  0.82993109  0.85134830  1
  O2-  O480  1  0.14524653  0.07760131  0.30953569  1
  O2-  O481  1  0.18714951  0.09166693  0.65008639  1
  O2-  O482  1  0.16490954  0.08330240  0.97699596  1
  O2-  O483  1  0.08061374  0.29609213  0.30186548  1
  O2-  O484  1  0.17510946  0.32530340  0.64595767  1
  O2-  O485  1  0.17578322  0.33822522  0.97767119  1
  O2-  O486  1  0.16671347  0.58555256  0.32737952  1
  O2-  O487  1  0.18408169  0.60084872  0.63862663  1
  O2-  O488  1  0.17220226  0.60349978  0.97674112  1
  O2-  O489  1  0.16567624  0.83930993  0.36235941  1
  O2-  O490  1  0.16813341  0.83752013  0.64887782  1
  O2-  O491  1  0.17005094  0.84049768  0.99632525  1
  O2-  O492  1  0.44311212  0.12234585  0.30665220  1
  O2-  O493  1  0.45883367  0.10488905  0.68913505  1
  O2-  O494  1  0.41350958  0.09310999  0.97324422  1
  O2-  O495  1  0.45058098  0.27836244  0.29710910  1
  O2-  O496  1  0.42970046  0.34200935  0.63552724  1
  O2-  O497  1  0.42342654  0.35206096  0.96860821  1
  O2-  O498  1  0.37734483  0.57019498  0.28093541  1
  O2-  O499  1  0.43281318  0.58603548  0.63647363  1
  O2-  O500  1  0.40851456  0.59462231  0.98229583  1
  O2-  O501  1  0.40423289  0.84272231  0.32011332  1
  O2-  O502  1  0.42427591  0.83056509  0.63352309  1
  O2-  O503  1  0.45103470  0.84581263  0.98243257  1
  O2-  O504  1  0.66467637  0.08820565  0.29809232  1
  O2-  O505  1  0.66934324  0.07826502  0.64159316  1
  O2-  O506  1  0.66678949  0.09280586  0.98077692  1
  O2-  O507  1  0.68245311  0.33378055  0.31325716  1
  O2-  O508  1  0.66135655  0.34881436  0.63899385  1
  O2-  O509  1  0.67514178  0.36226731  0.96995379  1
  O2-  O510  1  0.66366704  0.57288929  0.30153363  1
  O2-  O511  1  0.67725675  0.59474192  0.63414559  1
  O2-  O512  1  0.67869591  0.58173831  0.96667072  1
  O2-  O513  1  0.64663463  0.82433364  0.28975136  1
  O2-  O514  1  0.67851378  0.83465666  0.64280698  1
  O2-  O515  1  0.68098233  0.83224260  0.96752953  1
  O2-  O516  1  0.89903733  0.06794595  0.30851971  1
  O2-  O517  1  0.92641025  0.07435753  0.65286026  1
  O2-  O518  1  0.91761224  0.08397572  0.97820323  1
  O2-  O519  1  0.91889894  0.32937556  0.30545122  1
  O2-  O520  1  0.89190480  0.30947517  0.68935040  1
  O2-  O521  1  0.92085243  0.33789270  0.95681971  1
  O2-  O522  1  0.91853150  0.57815020  0.31097820  1
  O2-  O523  1  0.91791463  0.58370641  0.63885725  1
  O2-  O524  1  0.91573405  0.58497485  0.97078577  1
  O2-  O525  1  0.89549314  0.82426143  0.31399265  1
  O2-  O526  1  0.92312175  0.83429458  0.64525506  1
  O2-  O527  1  0.91177138  0.82899237  0.97688109  1
  O2-  O528  1  0.08249678  0.16773837  0.01793922  1
  O2-  O529  1  0.06027411  0.15228836  0.35521272  1
  O2-  O530  1  0.09354368  0.16292211  0.69140793  1
  O2-  O531  1  0.16008438  0.46724694  0.03157665  1
  O2-  O532  1  0.14822426  0.44167644  0.37566226  1
  O2-  O533  1  0.06067306  0.38367769  0.66376869  1
  O2-  O534  1  0.07709046  0.66851626  0.01488047  1
  O2-  O535  1  0.07939725  0.66682045  0.36129900  1
  O2-  O536  1  0.08473319  0.67075632  0.67794798  1
  O2-  O537  1  0.07639917  0.91770398  0.01680079  1
  O2-  O538  1  0.06150811  0.91312961  0.35123674  1
  O2-  O539  1  0.08950234  0.92479396  0.68858075  1
  O2-  O540  1  0.32812395  0.18037862  0.00373834  1
  O2-  O541  1  0.30888346  0.15987904  0.35872778  1
  O2-  O542  1  0.35671853  0.18001843  0.68826564  1
  O2-  O543  1  0.33818140  0.42560571  0.02710954  1
  O2-  O544  1  0.29669347  0.43626395  0.37670876  1
  O2-  O545  1  0.34047829  0.41827942  0.67994917  1
  O2-  O546  1  0.33032245  0.69094340  0.02592871  1
  O2-  O547  1  0.33633729  0.67405884  0.35279986  1
  O2-  O548  1  0.32926509  0.63760349  0.69733911  1
  O2-  O549  1  0.34556816  0.92668569  0.01768578  1
  O2-  O550  1  0.34757785  0.94211097  0.36676401  1
  O2-  O551  1  0.31495022  0.85922568  0.70477703  1
  O2-  O552  1  0.57744761  0.16915831  0.02578545  1
  O2-  O553  1  0.60370973  0.18178479  0.34707944  1
  O2-  O554  1  0.61148228  0.17687632  0.74875637  1
  O2-  O555  1  0.59061425  0.43007106  0.01072094  1
  O2-  O556  1  0.59617621  0.40427564  0.34645850  1
  O2-  O557  1  0.58901745  0.43122946  0.68128288  1
  O2-  O558  1  0.58865964  0.66528100  0.00841225  1
  O2-  O559  1  0.58424839  0.66279938  0.34534942  1
  O2-  O560  1  0.59156526  0.67088253  0.68244848  1
  O2-  O561  1  0.57229158  0.94540571  0.04891158  1
  O2-  O562  1  0.57773735  0.92372288  0.33621408  1
  O2-  O563  1  0.59125686  0.91248521  0.68251622  1
  O2-  O564  1  0.83865901  0.17404361  0.01231377  1
  O2-  O565  1  0.83381280  0.17299914  0.34259540  1
  O2-  O566  1  0.82750108  0.13719034  0.69415620  1
  O2-  O567  1  0.84256222  0.42358924  0.01188845  1
  O2-  O568  1  0.83844974  0.41278609  0.34773057  1
  O2-  O569  1  0.82808783  0.42299842  0.68396984  1
  O2-  O570  1  0.82259896  0.64974058  0.00974880  1
  O2-  O571  1  0.82890857  0.65591585  0.34755942  1
  O2-  O572  1  0.83788121  0.66837516  0.68343632  1
  O2-  O573  1  0.83356439  0.91560168  0.01762044  1
  O2-  O574  1  0.80182266  0.89598664  0.34364664  1
  O2-  O575  1  0.83888477  0.91154600  0.68890821  1
