# generated using pymatgen
data_H2O
_symmetry_space_group_name_H-M   'P 1'
_cell_length_a   17.99221466
_cell_length_b   17.99409203
_cell_length_c   21.99942648
_cell_angle_alpha   89.96726733
_cell_angle_beta   90.01378098
_cell_angle_gamma   119.99264808
_symmetry_Int_Tables_number   1
_chemical_formula_structural   H2O
_chemical_formula_sum   'H384 O192'
_cell_volume   6168.62897537
_cell_formula_units_Z   192
loop_
 _symmetry_equiv_pos_site_id
 _symmetry_equiv_pos_as_xyz
  1  'x, y, z'
loop_
 _atom_type_symbol
 _atom_type_oxidation_number
  H+  1.0
  O2-  -2.0
loop_
 _atom_site_type_symbol
 _atom_site_label
 _atom_site_symmetry_multiplicity
 _atom_site_fract_x
 _atom_site_fract_y
 _atom_site_fract_z
 _atom_site_occupancy
  H+  H0  1  0.48551746  0.10493667  0.65990073  1
  H+  H1  1  0.39114059  0.01143629  0.51359992  1
  H+  H2  1  0.38652915  0.27632660  0.17130479  1
  H+  H3  1  0.26992964  0.88564508  -0.01653831  1
  H+  H4  1  0.86369130  0.01014672  0.83413438  1
  H+  H5  1  0.28104952  0.39032022  0.82488264  1
  H+  H6  1  0.23739445  0.62150696  0.65832032  1
  H+  H7  1  0.59687232  0.88647071  0.33382997  1
  H+  H8  1  1.01100871  0.36991408  0.34670062  1
  H+  H9  1  0.01773423  0.12614142  0.48488463  1
  H+  H10  1  0.76704488  0.69896653  0.38568702  1
  H+  H11  1  0.19466291  0.58490572  0.31598359  1
  H+  H12  1  0.64686694  0.21555721  0.81228432  1
  H+  H13  1  0.63805201  1.00132293  0.49376951  1
  H+  H14  1  0.01426996  0.85061538  0.51705030  1
  H+  H15  1  0.62519579  0.74812253  0.13811384  1
  H+  H16  1  0.22548481  0.69480803  0.93019602  1
  H+  H17  1  0.11582152  0.60596858  0.32458750  1
  H+  H18  1  0.22569801  0.11238119  0.99184131  1
  H+  H19  1  0.57316560  0.56336432  0.13641545  1
  H+  H20  1  0.61413725  0.46911521  0.34316023  1
  H+  H21  1  0.38600292  0.35642988  0.83136371  1
  H+  H22  1  0.47417072  0.35506993  0.32399253  1
  H+  H23  1  0.64893300  0.76673826  -0.00779513  1
  H+  H24  1  0.04178228  0.22576916  0.01153962  1
  H+  H25  1  0.07993392  0.15939748  0.72103242  1
  H+  H26  1  0.37190846  0.22720584  0.49662270  1
  H+  H27  1  0.13054126  0.84624572  -0.02390394  1
  H+  H28  1  0.48193541  0.62414863  0.35218175  1
  H+  H29  1  0.60941408  0.63503964  0.83132713  1
  H+  H30  1  0.15380274  0.27610774  0.83580820  1
  H+  H31  1  0.15430129  1.02149423  0.17285475  1
  H+  H32  1  0.27850887  0.65236802  -0.00422826  1
  H+  H33  1  0.86965530  0.45367701  0.36911107  1
  H+  H34  1  0.14404097  0.76838411  0.66626515  1
  H+  H35  1  0.93294046  0.93232588  0.98473684  1
  H+  H36  1  0.38412340  0.86644068  0.99032773  1
  H+  H37  1  0.85711575  0.73694919  0.34944780  1
  H+  H38  1  0.62842572  0.36462544  0.97697414  1
  H+  H39  1  0.14775084  0.53124963  0.66177327  1
  H+  H40  1  0.59917473  0.61724168  0.29577929  1
  H+  H41  1  0.50812563  0.86812502  0.81391803  1
  H+  H42  1  0.36004949  0.38744657  0.67033189  1
  H+  H43  1  0.36528327  0.73516990  0.66370571  1
  H+  H44  1  0.09431661  0.47354271  0.16238465  1
  H+  H45  1  0.88920711  0.11239806  0.16412530  1
  H+  H46  1  0.57885512  0.72303753  0.14770764  1
  H+  H47  1  0.37317277  0.38439995  0.34457623  1
  H+  H48  1  0.30689366  0.41946216  0.50028008  1
  H+  H49  1  0.24637677  0.85537427  0.51655685  1
  H+  H50  1  0.38397648  0.61381028  0.83499026  1
  H+  H51  1  0.95784505  0.60396720  0.83587579  1
  H+  H52  1  0.38624602  0.01913024  0.33659987  1
  H+  H53  1  0.27671003  0.88846084  0.67286835  1
  H+  H54  1  0.36528635  0.13271184  0.34482738  1
  H+  H55  1  0.88372658  0.52163207  0.15100774  1
  H+  H56  1  0.11349287  0.48091877  0.49443296  1
  H+  H57  1  0.64359035  0.52665789  0.51560184  1
  H+  H58  1  0.05655699  0.67344927  0.31864266  1
  H+  H59  1  0.12055596  0.61141128  0.16281680  1
  H+  H60  1  0.38032524  0.36332646  0.17498036  1
  H+  H61  1  0.12512105  0.04320337  0.98776647  1
  H+  H62  1  0.15262973  0.65201322  0.98056619  1
  H+  H63  1  0.85959292  0.20640700  0.59830909  1
  H+  H64  1  0.89408150  0.38537147  0.67289234  1
  H+  H65  1  0.76208130  0.90244195  0.33897090  1
  H+  H66  1  0.58221144  0.06511102  0.91995194  1
  H+  H67  1  0.49914855  0.05063217  0.88290235  1
  H+  H68  1  0.85601963  0.14111696  -0.02414345  1
  H+  H69  1  0.76585783  0.38924214  -0.04004801  1
  H+  H70  1  -0.01387137  0.11599076  0.31655041  1
  H+  H71  1  0.15886261  0.77269333  0.33344844  1
  H+  H72  1  0.72422819  0.35115885  0.66302229  1
  H+  H73  1  0.01982848  0.63965320  0.13501798  1
  H+  H74  1  0.61080835  0.39062320  0.50335723  1
  H+  H75  1  0.36524080  0.22204923  0.33991661  1
  H+  H76  1  0.23690958  0.11621333  0.50397192  1
  H+  H77  1  0.70769897  0.11098507  0.99070784  1
  H+  H78  1  0.54179717  0.88340875  0.48346878  1
  H+  H79  1  0.36024451  0.13150088  1.00424793  1
  H+  H80  1  0.60518838  0.11591707  0.82874255  1
  H+  H81  1  0.97636913  0.36423077  0.97576148  1
  H+  H82  1  0.38441757  0.77682344  0.99845400  1
  H+  H83  1  0.63818202  0.13539581  0.29753267  1
  H+  H84  1  0.58753131  0.18560285  1.07832999  1
  H+  H85  1  0.11592183  0.13486793  0.33600543  1
  H+  H86  1  0.51244560  0.40073570  0.67407726  1
  H+  H87  1  0.75792839  0.63673389  0.67736431  1
  H+  H88  1  -0.01179167  0.34867542  0.51774353  1
  H+  H89  1  0.14558930  0.36049485  0.84020260  1
  H+  H90  1  0.98726301  0.86225141  0.17422772  1
  H+  H91  1  0.85075180  0.38328276  -0.03633727  1
  H+  H92  1  0.98908367  0.85490824  0.32710879  1
  H+  H93  1  0.61270055  0.63743517  0.65706766  1
  H+  H94  1  0.11692814  0.87840172  0.16171025  1
  H+  H95  1  0.02880761  0.16056671  0.12982834  1
  H+  H96  1  0.35708299  0.21839078  1.00313752  1
  H+  H97  1  0.03341068  0.40075616  0.67662966  1
  H+  H98  1  0.86729337  0.66340513  0.83053104  1
  H+  H99  1  0.14582455  0.89496928  0.49089491  1
  H+  H100  1  0.72370557  0.64120962  0.16854001  1
  H+  H101  1  0.23183501  0.11035065  0.33055127  1
  H+  H102  1  0.87516574  0.62675378  0.49337544  1
  H+  H103  1  0.14252035  0.89316710  0.67952026  1
  H+  H104  1  0.26385453  0.87924708  0.14700152  1
  H+  H105  1  0.96547444  0.10630604  0.65241217  1
  H+  H106  1  0.68464239  0.36251669  0.26655968  1
  H+  H107  1  0.83951534  0.76455551  0.98594036  1
  H+  H108  1  0.23464483  0.12029527  0.65853716  1
  H+  H109  1  0.62716952  0.17420825  0.19726164  1
  H+  H110  1  0.76791008  0.12218984  0.15547739  1
  H+  H111  1  0.71274999  0.56237015  0.26097395  1
  H+  H112  1  0.60892922  0.14575839  0.02120888  1
  H+  H113  1  0.77939426  0.37929623  0.34669000  1
  H+  H114  1  0.14113385  0.62275116  0.50464892  1
  H+  H115  1  0.63342728  0.62909329  0.99556900  1
  H+  H116  1  0.72982916  0.64610709  0.96816228  1
  H+  H117  1  0.87910269  0.79546805  0.84317425  1
  H+  H118  1  0.92744064  0.83301672  0.23431496  1
  H+  H119  1  0.38949228  0.10115591  0.50792495  1
  H+  H120  1  0.71895800  0.44591375  0.30606857  1
  H+  H121  1  0.18585520  0.29188219  0.99135788  1
  H+  H122  1  0.63431115  0.27988601  0.99215076  1
  H+  H123  1  0.59782009  0.87078821  0.81503105  1
  H+  H124  1  0.41395710  0.58845491  0.89688652  1
  H+  H125  1  0.56708026  0.90139361  0.71925112  1
  H+  H126  1  -0.03949598  0.36997155  0.00614342  1
  H+  H127  1  0.98413601  0.59502562  0.37470256  1
  H+  H128  1  0.64733822  0.25502581  0.65667415  1
  H+  H129  1  0.34312478  0.32373107  0.97484853  1
  H+  H130  1  -0.03286466  0.35433724  0.17759668  1
  H+  H131  1  0.12458098  0.44986794  0.00800032  1
  H+  H132  1  0.59011560  0.92065710  0.40050357  1
  H+  H133  1  0.38882773  0.52817820  0.65946135  1
  H+  H134  1  0.62542714  0.85572664  0.64821338  1
  H+  H135  1  0.63248717  0.77112297  0.84241452  1
  H+  H136  1  0.71845124  0.60716522  0.84100125  1
  H+  H137  1  0.58358027  0.57351612  0.30946385  1
  H+  H138  1  0.88298638  0.11722151  0.64524371  1
  H+  H139  1  0.36186405  0.12717043  0.83193372  1
  H+  H140  1  0.62440625  0.53296667  0.66416221  1
  H+  H141  1  0.25309033  0.46080555  0.04181132  1
  H+  H142  1  0.28897637  0.40959859  0.00901034  1
  H+  H143  1  0.13862410  0.79618128  0.89448777  1
  H+  H144  1  0.86136018  0.49433756  0.68332422  1
  H+  H145  1  0.60421934  0.47792321  0.98491316  1
  H+  H146  1  0.15086032  0.77496526  0.50648676  1
  H+  H147  1  0.87819182  0.35307351  0.18476644  1
  H+  H148  1  0.62345673  0.11178790  0.65965299  1
  H+  H149  1  0.76752131  0.12698876  0.48998895  1
  H+  H150  1  0.77145086  0.89018679  0.82237154  1
  H+  H151  1  0.61055403  0.46573935  0.82832100  1
  H+  H152  1  0.15189513  0.71208830  0.79484472  1
  H+  H153  1  0.63650257  0.28560857  0.18132754  1
  H+  H154  1  0.16283968  0.38974265  0.50689098  1
  H+  H155  1  0.56884776  0.74528580  0.32647396  1
  H+  H156  1  0.88023548  0.33861391  0.33665944  1
  H+  H157  1  0.71233105  0.02857497  0.62755509  1
  H+  H158  1  0.35762756  0.59569621  0.32184184  1
  H+  H159  1  0.38282426  0.86963747  0.65522043  1
  H+  H160  1  0.27303860  0.65075621  0.49723877  1
  H+  H161  1  0.09120422  0.46410194  0.33929907  1
  H+  H162  1  0.05621299  0.62585604  0.72439959  1
  H+  H163  1  0.60910018  0.38262748  0.34729169  1
  H+  H164  1  1.04276202  0.64510620  1.00108546  1
  H+  H165  1  0.96710971  0.64370152  0.66729921  1
  H+  H166  1  0.12973551  0.88326454  0.33627714  1
  H+  H167  1  0.45353774  0.58617907  0.17165969  1
  H+  H168  1  0.48251378  0.62285483  -0.00964206  1
  H+  H169  1  0.13851297  -0.01938659  0.48886491  1
  H+  H170  1  0.62959879  0.99499774  0.15378908  1
  H+  H171  1  0.19514605  0.96784470  0.72446893  1
  H+  H172  1  0.84718935  0.75103749  0.15171442  1
  H+  H173  1  0.10886015  0.13233287  0.66170580  1
  H+  H174  1  0.37554051  0.88930869  0.34914353  1
  H+  H175  1  0.27908993  0.69467778  0.35180741  1
  H+  H176  1  0.12994487  0.36733291  0.17751457  1
  H+  H177  1  0.41988855  0.55875945  0.48735720  1
  H+  H178  1  0.36663318  0.64862178  0.00152195  1
  H+  H179  1  0.14020293  0.14025223  0.81966715  1
  H+  H180  1  0.59505984  0.91349133  -0.04450878  1
  H+  H181  1  1.00987095  0.89771490  0.82953320  1
  H+  H182  1  0.66766944  0.58870655  0.60142636  1
  H+  H183  1  0.75252220  0.57888111  0.03042842  1
  H+  H184  1  0.83137946  0.20475828  0.81214927  1
  H+  H185  1  0.64655620  0.89449119  0.16115967  1
  H+  H186  1  0.38431017  0.27329838  0.66098280  1
  H+  H187  1  0.51210809  0.87946830  -0.00477570  1
  H+  H188  1  0.42368812  0.08160332  0.60234288  1
  H+  H189  1  0.83860125  0.42679013  0.86154321  1
  H+  H190  1  0.47221142  0.13198722  0.84128965  1
  H+  H191  1  0.60794703  0.14400196  0.72238598  1
  H+  H192  1  0.12553703  0.35573709  0.32699338  1
  H+  H193  1  0.02763294  0.37476636  0.82040316  1
  H+  H194  1  0.11879874  0.39228752  0.67147635  1
  H+  H195  1  0.26484250  0.38224746  0.16902727  1
  H+  H196  1  0.39030340  0.61825466  0.65714223  1
  H+  H197  1  0.84398872  0.97246258  0.67537983  1
  H+  H198  1  0.16996438  0.82240971  0.60251117  1
  H+  H199  1  0.94781648  0.86108716  0.66413213  1
  H+  H200  1  0.87175220  0.62832337  0.66600454  1
  H+  H201  1  0.75907922  0.59929682  0.32558835  1
  H+  H202  1  0.79814500  0.18492760  0.89755596  1
  H+  H203  1  0.89087402  0.29479727  0.66248502  1
  H+  H204  1  0.76304862  0.89269591  0.18688763  1
  H+  H205  1  1.02227233  0.88704553  0.99915407  1
  H+  H206  1  0.89966984  0.08709230  0.92124163  1
  H+  H207  1  0.13956710  0.51355327  0.83057484  1
  H+  H208  1  0.86674563  0.74356085  -0.01480271  1
  H+  H209  1  0.12961017  0.26945692  0.32430046  1
  H+  H210  1  0.76283053  0.38455924  0.16928063  1
  H+  H211  1  0.35727581  0.72489631  0.82119598  1
  H+  H212  1  0.64639983  0.85313546  0.99999711  1
  H+  H213  1  0.63294518  0.68884643  0.39707615  1
  H+  H214  1  0.34143575  0.16878250  0.10146028  1
  H+  H215  1  0.48722390  0.88130207  0.33591586  1
  H+  H216  1  0.51246458  0.63533100  0.65619498  1
  H+  H217  1  0.62704597  0.34612072  0.82832676  1
  H+  H218  1  0.85691275  0.21676713  0.49763147  1
  H+  H219  1  0.52502873  0.11421988  0.48889822  1
  H+  H220  1  0.87017267  0.98263601  0.48279724  1
  H+  H221  1  0.13269762  0.76392994  0.17032387  1
  H+  H222  1  0.64854072  0.62362424  0.21727013  1
  H+  H223  1  0.82993110  0.47144343  0.47850762  1
  H+  H224  1  0.72310595  0.90779194  0.34359249  1
  H+  H225  1  0.14529321  0.01976704  0.32691751  1
  H+  H226  1  0.11493590  0.24604937  0.14109675  1
  H+  H227  1  0.92687550  0.76582003  0.52462501  1
  H+  H228  1  0.89268052  0.52976762  0.96848248  1
  H+  H229  1  0.39447267  0.37019521  0.51057741  1
  H+  H230  1  0.84163774  0.08603332  0.84047380  1
  H+  H231  1  0.40700932  0.63988342  0.48752148  1
  H+  H232  1  0.64509422  0.86345725  0.48622037  1
  H+  H233  1  0.15198507  0.02975318  0.66020605  1
  H+  H234  1  0.62043395  1.02171594  0.00311612  1
  H+  H235  1  0.37196133  0.13773812  0.67435196  1
  H+  H236  1  0.90542213  0.30003948  0.87767770  1
  H+  H237  1  0.37562077  0.98794170  0.83010626  1
  H+  H238  1  0.84956618  0.60109098  0.01853199  1
  H+  H239  1  0.40368466  0.13248917  0.17965069  1
  H+  H240  1  0.90687164  0.86776870  0.32682982  1
  H+  H241  1  0.63459448  0.37574836  0.17959659  1
  H+  H242  1  0.38788179  0.62099943  0.17547345  1
  H+  H243  1  0.22601285  0.36301697  0.66409298  1
  H+  H244  1  0.35765057  -0.02250237  0.99096078  1
  H+  H245  1  0.86154147  0.86353937  0.68149592  1
  H+  H246  1  0.41114125  0.33094521  0.60005991  1
  H+  H247  1  0.88032125  0.11251604  0.49791144  1
  H+  H248  1  0.61022800  0.73353868  0.65322090  1
  H+  H249  1  0.37253592  0.84950907  0.14024547  1
  H+  H250  1  0.12977835  0.01936409  0.84111368  1
  H+  H251  1  0.88576364  0.04938665  0.99000550  1
  H+  H252  1  0.84591511  0.72828501  0.68480959  1
  H+  H253  1  0.79333869  0.90154552  0.00738021  1
  H+  H254  1  0.51904971  0.38873584  0.17085887  1
  H+  H255  1  0.13567461  0.27397185  0.65711344  1
  H+  H256  1  0.60852615  0.47736832  0.17456222  1
  H+  H257  1  0.36702101  0.75949597  0.14846445  1
  H+  H258  1  1.01683251  0.70115740  0.85368961  1
  H+  H259  1  0.60370952  0.21736493  0.34982807  1
  H+  H260  1  0.71273101  0.36175303  0.51257699  1
  H+  H261  1  0.87225864  0.58870398  0.11356421  1
  H+  H262  1  0.81813415  0.38846291  0.11181435  1
  H+  H263  1  0.10320168  0.91443910  0.39601851  1
  H+  H264  1  0.13839872  0.64037375  0.68866144  1
  H+  H265  1  0.88651610  0.99069646  0.15538828  1
  H+  H266  1  0.53043901  0.15370103  0.17993072  1
  H+  H267  1  0.52108948  0.37734071  0.82489466  1
  H+  H268  1  0.89447644  0.98227332  0.33222253  1
  H+  H269  1  0.40186826  0.78878907  0.33312817  1
  H+  H270  1  0.47497397  0.10759860  0.33436113  1
  H+  H271  1  0.60517571  -0.03234855  0.66206654  1
  H+  H272  1  0.89420892  0.59135471  0.36973349  1
  H+  H273  1  0.36456941  0.46859846  0.34232017  1
  H+  H274  1  0.85543437  0.19972052  0.32751187  1
  H+  H275  1  0.87615932  0.88495043  0.83119815  1
  H+  H276  1  0.88946118  0.10100890  0.30756749  1
  H+  H277  1  0.62271334  0.08093178  0.14146273  1
  H+  H278  1  0.38213878  0.86429758  0.83845355  1
  H+  H279  1  0.10587686  0.12452497  0.48601643  1
  H+  H280  1  0.88383889  0.34948481  0.82768322  1
  H+  H281  1  0.47940722  0.36472599  0.51302195  1
  H+  H282  1  0.38376366  0.54580958  0.99822791  1
  H+  H283  1  0.88619960  0.90000920  0.15960892  1
  H+  H284  1  0.52345238  0.63924009  0.83044310  1
  H+  H285  1  0.24971213  0.61305306  0.15494468  1
  H+  H286  1  0.51435948  0.39052152  0.98691868  1
  H+  H287  1  0.28473166  0.13761974  0.16215401  1
  H+  H288  1  0.79546935  0.27649273  0.06009980  1
  H+  H289  1  0.36966138  0.47950358  0.82555343  1
  H+  H290  1  0.34407387  0.91269113  0.41148892  1
  H+  H291  1  0.69446171  0.75361127  0.44532833  1
  H+  H292  1  0.82438385  0.39257923  0.44789005  1
  H+  H293  1  0.32289226  0.67355354  0.40543989  1
  H+  H294  1  0.18866385  0.35915336  0.56644546  1
  H+  H295  1  0.27125400  0.63278623  0.81426357  1
  H+  H296  1  0.27143346  0.12651992  0.82743055  1
  H+  H297  1  0.84352677  0.30416656  0.05799971  1
  H+  H298  1  0.18829052  0.21532297  0.77328526  1
  H+  H299  1  0.72971140  0.15228296  0.81219172  1
  H+  H300  1  0.11437357  0.35572721  0.03135746  1
  H+  H301  1  0.66644342  0.06332951  0.55575443  1
  H+  H302  1  0.65514859  0.33122370  0.57142703  1
  H+  H303  1  0.57454743  0.42667643  0.73196171  1
  H+  H304  1  0.13562589  0.75806225  0.98450375  1
  H+  H305  1  0.77484717  0.14220228  0.63748812  1
  H+  H306  1  0.77044571  0.12912520  0.29943807  1
  H+  H307  1  0.67277026  0.82628259  0.54316467  1
  H+  H308  1  0.35231359  0.74644212  0.48985838  1
  H+  H309  1  0.68482588  0.84687603  0.23687809  1
  H+  H310  1  0.39613255  0.86022235  0.55754374  1
  H+  H311  1  0.65201092  0.31463246  0.88863530  1
  H+  H312  1  0.40223924  0.31839559  0.92495875  1
  H+  H313  1  0.08662206  0.41444701  0.10679474  1
  H+  H314  1  0.36603428  0.97970339  0.67183536  1
  H+  H315  1  0.08304978  0.90169148  0.10157401  1
  H+  H316  1  0.34007368  0.67766492  0.72543197  1
  H+  H317  1  0.93433061  0.09019663  0.21859948  1
  H+  H318  1  0.78519258  0.89204335  0.47760031  1
  H+  H319  1  0.42457885  0.09621855  0.24074446  1
  H+  H320  1  0.31346111  0.64454113  0.09700601  1
  H+  H321  1  0.33679219  0.42087072  0.73092639  1
  H+  H322  1  0.91326841  0.31817793  0.27435708  1
  H+  H323  1  0.52531901  0.56417667  0.07718973  1
  H+  H324  1  0.01501464  0.80349271  0.03103691  1
  H+  H325  1  0.03561695  0.64670991  0.49064605  1
  H+  H326  1  0.73778397  0.60940863  0.51804428  1
  H+  H327  1  0.83897144  0.66674495  0.44329675  1
  H+  H328  1  0.14011466  0.57675380  0.22582734  1
  H+  H329  1  0.34458584  0.92736545  0.77125130  1
  H+  H330  1  0.57977092  0.42014705  0.44358429  1
  H+  H331  1  0.16810569  0.59288687  0.56621622  1
  H+  H332  1  0.83542534  0.43339428  0.74192032  1
  H+  H333  1  0.08052840  0.91806144  0.77758652  1
  H+  H334  1  0.09611306  0.67712666  0.08534542  1
  H+  H335  1  0.41406437  0.32680527  0.26398009  1
  H+  H336  1  0.38224263  0.26400283  0.83211016  1
  H+  H337  1  0.32770491  0.42779381  0.11400436  1
  H+  H338  1  0.08081321  0.15876661  0.39582868  1
  H+  H339  1  0.42111392  0.09241557  0.92813229  1
  H+  H340  1  0.92429283  0.52332488  0.53182629  1
  H+  H341  1  0.65697406  0.57459334  0.89899643  1
  H+  H342  1  0.17148253  0.82213747  0.23147567  1
  H+  H343  1  0.33791765  0.16166718  0.73445823  1
  H+  H344  1  0.85342276  0.93645351  0.06605837  1
  H+  H345  1  0.31645351  0.90998890  0.08499011  1
  H+  H346  1  0.66028644  0.09793879  0.23647805  1
  H+  H347  1  0.81266617  0.67567952  0.10063463  1
  H+  H348  1  0.08166021  0.41753449  0.43695968  1
  H+  H349  1  0.96671059  0.66798684  0.25121527  1
  H+  H350  1  0.57999802  0.14541854  0.40168013  1
  H+  H351  1  0.53726258  0.76207655  0.26397154  1
  H+  H352  1  0.66763733  0.83514199  0.89889766  1
  H+  H353  1  0.95506084  0.62183645  0.25571430  1
  H+  H354  1  0.46989198  0.86682906  0.64513319  1
  H+  H355  1  0.75808889  0.36409092  0.82518102  1
  H+  H356  1  0.95376318  0.89987491  0.92305613  1
  H+  H357  1  0.24561000  0.86370458  0.33354151  1
  H+  H358  1  0.16741622  0.58696133  0.88091785  1
  H+  H359  1  0.61041949  0.10556473  0.48505065  1
  H+  H360  1  0.93185211  0.34120459  0.57516465  1
  H+  H361  1  0.71542761  0.85939097  0.65823833  1
  H+  H362  1  0.60198476  0.67797000  0.05605726  1
  H+  H363  1  0.47318590  0.11790717  0.99410246  1
  H+  H364  1  0.18222886  0.07935009  0.23237586  1
  H+  H365  1  0.50172863  0.65543071  0.42047582  1
  H+  H366  1  0.36304655  0.43307892  0.44067980  1
  H+  H367  1  0.17490171  0.08364002  0.56150632  1
  H+  H368  1  0.90945717  0.07834456  0.55617110  1
  H+  H369  1  0.85278364  0.21218072  0.16753956  1
  H+  H370  1  0.34285287  0.16846295  0.43669964  1
  H+  H371  1  0.93257747  0.61796762  0.93348383  1
  H+  H372  1  0.16919750  0.08731539  0.89807129  1
  H+  H373  1  0.82108794  0.67198740  0.77161481  1
  H+  H374  1  0.22610095  0.33126666  0.92757401  1
  H+  H375  1  0.92882783  0.59358165  0.57701596  1
  H+  H376  1  0.81881492  0.91940317  0.74128614  1
  H+  H377  1  0.59709814  0.89145375  0.09799509  1
  H+  H378  1  0.86370817  0.92679984  0.39597616  1
  H+  H379  1  0.40872473  0.82755002  0.89600177  1
  H+  H380  1  0.08965551  0.67456089  0.42762721  1
  H+  H381  1  0.15611736  0.33060716  0.23512232  1
  H+  H382  1  0.09288018  0.41203991  0.76486621  1
  H+  H383  1  0.40568958  0.58423392  0.26428430  1
  O2-  O384  1  0.08814727  0.19488790  0.11371165  1
  O2-  O385  1  0.07705119  0.15363089  0.46801675  1
  O2-  O386  1  0.13321305  0.18489371  0.79414256  1
  O2-  O387  1  0.06720109  0.41173604  0.15001506  1
  O2-  O388  1  0.08649805  0.41974536  0.48249445  1
  O2-  O389  1  0.08994037  0.40575682  0.81032837  1
  O2-  O390  1  0.08378013  0.67040325  0.13139571  1
  O2-  O391  1  0.09443374  0.67701180  0.47329443  1
  O2-  O392  1  0.15943346  0.72338430  0.83918160  1
  O2-  O393  1  0.08777286  0.91004321  0.14626905  1
  O2-  O394  1  0.11480957  0.92156048  0.47145027  1
  O2-  O395  1  0.07326315  0.92321527  0.82128472  1
  O2-  O396  1  0.34583904  0.17410473  0.14662375  1
  O2-  O397  1  0.34350048  0.16626372  0.48230130  1
  O2-  O398  1  0.33223674  0.15702543  0.81217776  1
  O2-  O399  1  0.32652060  0.40964655  0.15645511  1
  O2-  O400  1  0.36765187  0.44249816  0.48624977  1
  O2-  O401  1  0.34156438  0.41950569  0.80892893  1
  O2-  O402  1  0.31035205  0.63633564  0.14189683  1
  O2-  O403  1  0.33162852  0.68585874  0.47880703  1
  O2-  O404  1  0.33361046  0.66661315  0.80204380  1
  O2-  O405  1  0.32229967  0.91027596  0.12969088  1
  O2-  O406  1  0.34705502  0.90446325  0.49408281  1
  O2-  O407  1  0.34671694  0.92663486  0.81606091  1
  O2-  O408  1  0.59464302  0.18487557  0.16524715  1
  O2-  O409  1  0.58037574  0.13604456  0.46766311  1
  O2-  O410  1  0.64300536  0.16158666  0.79771940  1
  O2-  O411  1  0.58184740  0.41777286  0.16039893  1
  O2-  O412  1  0.58064567  0.42295534  0.48848215  1
  O2-  O413  1  0.58204408  0.40647137  0.81064198  1
  O2-  O414  1  0.51770353  0.55312236  0.12093583  1
  O2-  O415  1  0.69146803  0.71273790  0.41423116  1
  O2-  O416  1  0.58525043  0.67180306  0.81973908  1
  O2-  O417  1  0.60194243  0.90498887  0.14095544  1
  O2-  O418  1  0.60049543  0.91364162  0.46835010  1
  O2-  O419  1  0.56394917  0.89178734  0.79261986  1
  O2-  O420  1  0.83036007  0.15607090  0.14704209  1
  O2-  O421  1  0.83004434  0.15920339  0.47917744  1
  O2-  O422  1  0.78207652  0.15140794  0.82746162  1
  O2-  O423  1  0.82423794  0.40598109  0.15423089  1
  O2-  O424  1  0.82360401  0.41591141  0.48898876  1
  O2-  O425  1  0.82284606  0.39991052  0.82095309  1
  O2-  O426  1  0.79527215  0.70575568  0.13011692  1
  O2-  O427  1  0.84365053  0.65782108  0.48757676  1
  O2-  O428  1  0.82232645  0.67606761  0.81715827  1
  O2-  O429  1  0.85487286  0.92781518  0.14244800  1
  O2-  O430  1  0.84707070  0.92353884  0.46606861  1
  O2-  O431  1  0.83033913  0.92279527  0.80592726  1
  O2-  O432  1  0.18875906  0.08114297  0.18744903  1
  O2-  O433  1  0.17519169  0.08169028  0.51639555  1
  O2-  O434  1  0.16834364  0.08285112  0.85187188  1
  O2-  O435  1  0.16033617  0.33600659  0.18896859  1
  O2-  O436  1  0.20487216  0.37470821  0.52354759  1
  O2-  O437  1  0.18166445  0.33515853  0.85299634  1
  O2-  O438  1  0.14569206  0.57717026  0.18068210  1
  O2-  O439  1  0.17030554  0.59185705  0.52095947  1
  O2-  O440  1  0.16825777  0.57668180  0.83667168  1
  O2-  O441  1  0.16293210  0.82384159  0.18709307  1
  O2-  O442  1  0.18378454  0.83137666  0.52785574  1
  O2-  O443  1  0.11769678  0.77450264  0.84921385  1
  O2-  O444  1  0.43939519  0.10948002  0.19714193  1
  O2-  O445  1  0.41989636  0.07323624  0.52636728  1
  O2-  O446  1  0.42003425  0.08779267  0.86055053  1
  O2-  O447  1  0.41457890  0.33549740  0.18924594  1
  O2-  O448  1  0.41712247  0.33193285  0.52528951  1
  O2-  O449  1  0.41464303  0.32483391  0.84696070  1
  O2-  O450  1  0.43519118  0.61880551  0.19759572  1
  O2-  O451  1  0.45060255  0.62251139  0.48378125  1
  O2-  O452  1  0.41262150  0.58267785  0.85158937  1
  O2-  O453  1  0.40697219  0.82016656  0.13947750  1
  O2-  O454  1  0.39448231  0.86022360  0.51152146  1
  O2-  O455  1  0.40448810  0.82453051  0.85098127  1
  O2-  O456  1  0.65424104  0.05951499  0.16467839  1
  O2-  O457  1  0.66362029  0.06453282  0.50997749  1
  O2-  O458  1  0.55316231  0.04881300  0.88003881  1
  O2-  O459  1  0.66978510  0.34816650  0.19373076  1
  O2-  O460  1  0.65314645  0.33964621  0.52661550  1
  O2-  O461  1  0.65578347  0.31373531  0.84328294  1
  O2-  O462  1  0.67166086  0.59432071  0.19330133  1
  O2-  O463  1  0.67850491  0.58467277  0.53395902  1
  O2-  O464  1  0.65709335  0.57025834  0.85366140  1
  O2-  O465  1  0.71234446  0.89147381  0.20582122  1
  O2-  O466  1  0.67762124  0.83150209  0.49874514  1
  O2-  O467  1  0.65886784  0.83352305  0.85448833  1
  O2-  O468  1  0.92945315  0.08988058  0.17313770  1
  O2-  O469  1  0.91371796  0.08288095  0.51124693  1
  O2-  O470  1  0.88464976  0.07089030  0.85270229  1
  O2-  O471  1  0.90883694  0.32257142  0.19721408  1
  O2-  O472  1  0.93110889  0.31216312  0.53707289  1
  O2-  O473  1  0.91811029  0.32052226  0.83528744  1
  O2-  O474  1  0.90967844  0.58411797  0.14398044  1
  O2-  O475  1  0.93998288  0.58383025  0.53397744  1
  O2-  O476  1  0.95614067  0.65053701  0.85710644  1
  O2-  O477  1  0.92645581  0.83677190  0.18883083  1
  O2-  O478  1  0.97362833  0.81221658  0.54807997  1
  O2-  O479  1  0.91149313  0.85747942  0.85177967  1
  O2-  O480  1  0.17280526  0.08046880  0.31272137  1
  O2-  O481  1  0.17428465  0.08828408  0.64294330  1
  O2-  O482  1  0.17089621  0.09561775  0.96985113  1
  O2-  O483  1  0.15486645  0.32822454  0.30701343  1
  O2-  O484  1  0.16582299  0.33645508  0.64812149  1
  O2-  O485  1  0.24289894  0.32119270  0.96820170  1
  O2-  O486  1  0.13549598  0.56533562  0.30378456  1
  O2-  O487  1  0.17432444  0.59228425  0.64736192  1
  O2-  O488  1  0.19576310  0.64104390  0.95290497  1
  O2-  O489  1  0.18653331  0.83095139  0.31475209  1
  O2-  O490  1  0.16994438  0.82634648  0.64832575  1
  O2-  O491  1  0.16175695  0.81871346  0.95893008  1
  O2-  O492  1  0.41355271  0.07912239  0.32044510  1
  O2-  O493  1  0.42437331  0.08318090  0.64811225  1
  O2-  O494  1  0.41548032  0.08665345  0.97580067  1
  O2-  O495  1  0.41381924  0.32192317  0.30982221  1
  O2-  O496  1  0.40826013  0.33305675  0.64593903  1
  O2-  O497  1  0.39583746  0.31931720  0.97005187  1
  O2-  O498  1  0.39126494  0.56924789  0.30908645  1
  O2-  O499  1  0.42098511  0.58800722  0.64363533  1
  O2-  O500  1  0.42258666  0.60039830  0.97526618  1
  O2-  O501  1  0.42422203  0.84869077  0.32134176  1
  O2-  O502  1  0.40801799  0.83950148  0.63157688  1
  O2-  O503  1  0.41531313  0.83504220  0.97858790  1
  O2-  O504  1  0.67926719  0.14850515  0.26367622  1
  O2-  O505  1  0.68636410  0.06479054  0.63082906  1
  O2-  O506  1  0.64340288  0.08264004  0.99119254  1
  O2-  O507  1  0.69741615  0.38308871  0.31022466  1
  O2-  O508  1  0.66634563  0.31548184  0.64626716  1
  O2-  O509  1  0.65982749  0.33281084  0.96644572  1
  O2-  O510  1  0.72460835  0.54543536  0.30095102  1
  O2-  O511  1  0.66033951  0.59418160  0.64769895  1
  O2-  O512  1  0.67331403  0.59744725  0.97717627  1
  O2-  O513  1  0.58699432  0.78549156  0.29077033  1
  O2-  O514  1  0.65903501  0.82755211  0.63582627  1
  O2-  O515  1  0.68189791  0.83058946  0.98320187  1
  O2-  O516  1  0.92946703  0.07963353  0.29579414  1
  O2-  O517  1  0.90478587  0.07647413  0.63854163  1
  O2-  O518  1  0.90518567  0.10343495  0.96677747  1
  O2-  O519  1  0.91366505  0.31273699  0.31969629  1
  O2-  O520  1  0.92791201  0.35843157  0.65892554  1
  O2-  O521  1  0.82344528  0.22540106  0.93373120  1
  O2-  O522  1  0.92122639  0.56047849  0.38632465  1
  O2-  O523  1  0.91005621  0.60336207  0.65205538  1
  O2-  O524  1  0.92167748  0.59285829  0.97500371  1
  O2-  O525  1  0.92861773  0.82772609  0.31230340  1
  O2-  O526  1  0.88981268  0.82670524  0.67948410  1
  O2-  O527  1  0.97886213  0.92715318  0.96312886  1
  O2-  O528  1  0.09775540  0.27267896  0.02426771  1
  O2-  O529  1  0.08352819  0.16324674  0.34956731  1
  O2-  O530  1  0.07553339  0.15980028  0.67603244  1
  O2-  O531  1  0.13882893  0.42424338  0.04160266  1
  O2-  O532  1  0.07195991  0.40871515  0.36071639  1
  O2-  O533  1  0.09531838  0.42816432  0.68870667  1
  O2-  O534  1  0.10279772  0.67988297  0.01401224  1
  O2-  O535  1  0.08486703  0.66055680  0.35140081  1
  O2-  O536  1  0.11308725  0.67137416  0.71260827  1
  O2-  O537  1  0.05582819  0.86375323  0.02340546  1
  O2-  O538  1  0.09711357  0.91143529  0.35045511  1
  O2-  O539  1  0.14072999  0.94066505  0.70256425  1
  O2-  O540  1  0.32874853  0.15969533  0.02149704  1
  O2-  O541  1  0.33532808  0.16385955  0.35955131  1
  O2-  O542  1  0.33860076  0.16511153  0.68884050  1
  O2-  O543  1  0.30856965  0.46185472  0.03567288  1
  O2-  O544  1  0.35497580  0.41953477  0.36799705  1
  O2-  O545  1  0.33135690  0.41956781  0.68556866  1
  O2-  O546  1  0.33279618  0.67320875  0.01990638  1
  O2-  O547  1  0.31487342  0.66928096  0.35957712  1
  O2-  O548  1  0.33835259  0.67519038  0.67966926  1
  O2-  O549  1  0.32775717  0.91550680  0.00274121  1
  O2-  O550  1  0.34139606  0.91668374  0.36643757  1
  O2-  O551  1  0.33688359  0.91948693  0.68813212  1
  O2-  O552  1  0.58487650  0.18311515  0.03345392  1
  O2-  O553  1  0.57834647  0.15562652  0.35453003  1
  O2-  O554  1  0.59451467  0.14080063  0.67809726  1
  O2-  O555  1  0.57680118  0.41606549  -0.00714863  1
  O2-  O556  1  0.57639473  0.41127424  0.36002273  1
  O2-  O557  1  0.57169188  0.44005072  0.68861507  1
  O2-  O558  1  0.59070211  0.66331915  0.01310269  1
  O2-  O559  1  0.52952456  0.66604636  0.37872550  1
  O2-  O560  1  0.57847333  0.66985611  0.66712955  1
  O2-  O561  1  0.57819354  0.90946242  -0.00198917  1
  O2-  O562  1  0.58118953  0.92525773  0.35422309  1
  O2-  O563  1  0.56827507  0.90539777  0.67311417  1
  O2-  O564  1  0.81525946  0.17013315  -0.01478895  1
  O2-  O565  1  0.82039273  0.13651699  0.32268783  1
  O2-  O566  1  0.84149735  0.18708521  0.64019960  1
  O2-  O567  1  0.82936784  0.42082766  -0.04978670  1
  O2-  O568  1  0.83246238  0.38974937  0.36863770  1
  O2-  O569  1  0.83722319  0.43408394  0.69698598  1
  O2-  O570  1  0.80818761  0.59774556  0.05050803  1
  O2-  O571  1  0.81154252  0.68417510  0.37078482  1
  O2-  O572  1  0.81826989  0.66407753  0.69389881  1
  O2-  O573  1  0.85245371  0.94345565  0.02069691  1
  O2-  O574  1  0.86837066  0.92332819  0.34973302  1
  O2-  O575  1  0.81148507  0.91386918  0.69273309  1
