# generated using pymatgen
data_H2O
_symmetry_space_group_name_H-M   'P 1'
_cell_length_a   17.98003662
_cell_length_b   17.97685420
_cell_length_c   22.00253544
_cell_angle_alpha   90.00296718
_cell_angle_beta   89.96287454
_cell_angle_gamma   119.99939729
_symmetry_Int_Tables_number   1
_chemical_formula_structural   H2O
_chemical_formula_sum   'H384 O192'
_cell_volume   6158.99929016
_cell_formula_units_Z   192
loop_
 _symmetry_equiv_pos_site_id
 _symmetry_equiv_pos_as_xyz
  1  'x, y, z'
loop_
 _atom_type_symbol
 _atom_type_oxidation_number
  H+  1.0
  O2-  -2.0
loop_
 _atom_site_type_symbol
 _atom_site_label
 _atom_site_symmetry_multiplicity
 _atom_site_fract_x
 _atom_site_fract_y
 _atom_site_fract_z
 _atom_site_occupancy
  H+  H0  1  0.60809572  0.63787866  0.99522996  1
  H+  H1  1  0.61966013  0.29904975  0.33615411  1
  H+  H2  1  0.85683039  0.44907895  0.01012944  1
  H+  H3  1  0.13852825  0.86878469  0.66727394  1
  H+  H4  1  0.14718542  0.27013816  0.27447375  1
  H+  H5  1  0.98335616  0.12983095  0.16456577  1
  H+  H6  1  0.63789748  0.02765542  0.98353316  1
  H+  H7  1  0.59121368  0.34793639  0.82891192  1
  H+  H8  1  0.61995404  0.97131093  0.50163843  1
  H+  H9  1  0.39484175  0.38722827  0.84393163  1
  H+  H10  1  0.36171088  0.62405812  0.00230165  1
  H+  H11  1  0.36513552  0.72421329  0.48996823  1
  H+  H12  1  0.37376408  0.10349124  0.51180595  1
  H+  H13  1  0.10579727  0.73978023  0.42034580  1
  H+  H14  1  0.64220366  0.85831700  0.14896920  1
  H+  H15  1  0.47497161  0.35889851  0.84314175  1
  H+  H16  1  0.88113580  0.91270231  0.31967002  1
  H+  H17  1  0.33301750  0.05185613  0.66064963  1
  H+  H18  1  0.16624015  0.10894514  0.83492628  1
  H+  H19  1  0.46898390  0.60828558  0.67474169  1
  H+  H20  1  0.11102885  0.89993507  0.77796762  1
  H+  H21  1  0.86944509  0.45420590  0.83199880  1
  H+  H22  1  0.46064516  0.37156352  -0.00101001  1
  H+  H23  1  0.34597853  -0.04919890  0.75839454  1
  H+  H24  1  0.40465935  0.12587968  0.99770553  1
  H+  H25  1  0.81696532  0.63880069  0.85203561  1
  H+  H26  1  0.13906002  1.03117215  0.32905325  1
  H+  H27  1  0.51563336  0.14653807  0.15232907  1
  H+  H28  1  0.16121370  0.41457898  0.13777161  1
  H+  H29  1  0.86001738  0.14330999  0.67669615  1
  H+  H30  1  0.09327261  0.72401567  0.32994945  1
  H+  H31  1  0.85985524  0.47586274  0.68179300  1
  H+  H32  1  0.41238992  0.57865496  0.92659701  1
  H+  H33  1  0.16938721  0.84829897  0.92851464  1
  H+  H34  1  0.36247871  0.78700851  -0.02486978  1
  H+  H35  1  0.67189508  0.14749128  0.84087022  1
  H+  H36  1  0.61404810  0.86170008  0.83334526  1
  H+  H37  1  0.89425627  0.77656425  0.67725127  1
  H+  H38  1  0.00858814  0.02934708  0.44766223  1
  H+  H39  1  0.17118969  0.28763924  0.84219445  1
  H+  H40  1  0.50941072  0.88834651  -0.01324032  1
  H+  H41  1  0.90889150  0.33128259  0.60088380  1
  H+  H42  1  0.34880512  0.37834790  1.00342791  1
  H+  H43  1  0.33907818  0.22154460  0.16016916  1
  H+  H44  1  0.85907906  0.96096225  0.53786829  1
  H+  H45  1  0.68197530  0.52658886  0.29862272  1
  H+  H46  1  0.89871063  1.02198107  0.31645569  1
  H+  H47  1  0.54234719  0.46014943  0.37431098  1
  H+  H48  1  0.73332254  0.86356722  0.15538668  1
  H+  H49  1  0.10667189  0.37688362  0.49628751  1
  H+  H50  1  0.38915870  0.85996895  0.35217573  1
  H+  H51  1  0.62114472  0.17215572  0.24421913  1
  H+  H52  1  0.24046576  0.60909439  0.50861618  1
  H+  H53  1  0.68658522  0.60943731  0.83443117  1
  H+  H54  1  0.88332036  0.99106771  0.00111508  1
  H+  H55  1  0.35866320  0.90366488  0.81442405  1
  H+  H56  1  1.00551544  0.39103316  0.34986151  1
  H+  H57  1  0.66546891  0.90010811  0.30716650  1
  H+  H58  1  0.26060453  0.61169550  0.16909881  1
  H+  H59  1  0.28025486  0.64321502  0.68452801  1
  H+  H60  1  0.97327851  0.60088914  0.17130388  1
  H+  H61  1  0.78511190  0.14231714  0.82938936  1
  H+  H62  1  0.21997017  0.36948024  -0.00678481  1
  H+  H63  1  0.10259265  0.86425669  0.16686514  1
  H+  H64  1  0.24065414  0.34867613  0.29621253  1
  H+  H65  1  0.37579060  -0.00451320  1.00869585  1
  H+  H66  1  0.84791473  0.16891564  0.41075740  1
  H+  H67  1  0.83223666  0.89735683  0.59374382  1
  H+  H68  1  0.75210281  0.10734084  0.15125777  1
  H+  H69  1  0.51950119  0.12717819  0.51799987  1
  H+  H70  1  0.13410388  0.27897238  -0.01184834  1
  H+  H71  1  0.92506868  0.13381381  0.83183968  1
  H+  H72  1  0.33432270  0.17989019  0.06093523  1
  H+  H73  1  0.35896160  0.47045011  0.67636044  1
  H+  H74  1  0.97269732  0.35948322  0.50810957  1
  H+  H75  1  0.10971931  0.72612855  0.00371139  1
  H+  H76  1  0.60607343  0.44508298  0.83176509  1
  H+  H77  1  0.73207321  0.11050916  -0.00806485  1
  H+  H78  1  0.76368081  0.11917294  0.33365922  1
  H+  H79  1  0.47665017  0.88152610  0.83121883  1
  H+  H80  1  0.88858634  0.78968336  0.33362159  1
  H+  H81  1  0.38910342  0.74861576  0.82223413  1
  H+  H82  1  0.22364864  0.35579061  0.66276402  1
  H+  H83  1  0.11660519  0.22305498  0.36591432  1
  H+  H84  1  0.48103844  0.86429775  0.50254692  1
  H+  H85  1  0.20877585  0.34835141  0.20563205  1
  H+  H86  1  0.16739822  0.83852832  0.57644624  1
  H+  H87  1  0.58977265  0.76080522  0.83754668  1
  H+  H88  1  0.63890127  0.61805967  0.15982308  1
  H+  H89  1  0.35915833  0.70395450  0.34252658  1
  H+  H90  1  0.07463817  0.41834935  0.41221230  1
  H+  H91  1  0.28989672  0.14980468  -0.00332632  1
  H+  H92  1  0.58299256  0.39528783  0.35467511  1
  H+  H93  1  0.72577616  0.61351353  0.66755567  1
  H+  H94  1  0.86185054  0.63925092  0.69128330  1
  H+  H95  1  0.63714732  0.82214786  0.91117291  1
  H+  H96  1  0.11670760  0.47096184  0.49934762  1
  H+  H97  1  0.13861796  0.23560613  0.14265107  1
  H+  H98  1  0.36306585  0.35561283  0.18120179  1
  H+  H99  1  0.84934836  0.46274921  0.16231081  1
  H+  H100  1  0.85995569  0.21930524  0.50142801  1
  H+  H101  1  0.12857923  0.15045034  -0.00682846  1
  H+  H102  1  0.39925169  0.65664704  0.82573828  1
  H+  H103  1  0.71478400  0.86105090  0.65945085  1
  H+  H104  1  0.98180164  0.58366716  0.53526663  1
  H+  H105  1  0.35631692  0.17436643  0.33306596  1
  H+  H106  1  0.28256904  0.90750930  0.00441762  1
  H+  H107  1  0.71569552  0.84084896  0.52236719  1
  H+  H108  1  0.60878940  0.21520701  0.51578968  1
  H+  H109  1  0.60523473  0.88848005  0.67893446  1
  H+  H110  1  0.59149379  0.66979891  0.74013355  1
  H+  H111  1  0.34821964  0.28732378  0.33504547  1
  H+  H112  1  0.93166794  0.81953626  0.99983699  1
  H+  H113  1  0.63174047  0.11393152  0.66869906  1
  H+  H114  1  1.00620172  0.13568902  0.32828145  1
  H+  H115  1  0.10425320  0.48551893  0.34999702  1
  H+  H116  1  0.18380092  0.34537290  0.90055840  1
  H+  H117  1  0.15311440  0.62054699  0.84392348  1
  H+  H118  1  0.21751470  0.60479464  0.33568530  1
  H+  H119  1  0.68307739  0.59159443  0.25097872  1
  H+  H120  1  0.90619095  0.58773984  0.84651422  1
  H+  H121  1  0.85754926  -0.01884913  0.67125908  1
  H+  H122  1  0.35253424  0.20218687  0.66237981  1
  H+  H123  1  0.54183762  0.64913968  0.89568616  1
  H+  H124  1  0.98785495  0.86245945  0.50430504  1
  H+  H125  1  0.63533627  0.10339313  0.51923184  1
  H+  H126  1  0.81836201  0.32066017  0.19088842  1
  H+  H127  1  0.38161649  0.05356628  0.56982588  1
  H+  H128  1  0.52141299  0.86184890  0.13389860  1
  H+  H129  1  0.63089383  -0.01733526  0.34526067  1
  H+  H130  1  0.42811561  0.14314370  0.79698102  1
  H+  H131  1  0.31898177  0.40790514  0.06344349  1
  H+  H132  1  0.61774077  0.98749574  0.82610740  1
  H+  H133  1  0.42924795  0.86345641  0.21733218  1
  H+  H134  1  0.23321586  0.89046276  0.65305814  1
  H+  H135  1  0.91333331  0.90042057  0.99774111  1
  H+  H136  1  0.16691888  0.01925758  0.84059459  1
  H+  H137  1  0.49721128  0.08987556  0.29615463  1
  H+  H138  1  0.61119839  0.72129532  0.15106789  1
  H+  H139  1  0.98429836  0.61524902  0.46921334  1
  H+  H140  1  0.47416151  0.60306645  0.52126027  1
  H+  H141  1  0.13791925  0.52246053  0.17320296  1
  H+  H142  1  0.11773404  0.85178999  0.32376604  1
  H+  H143  1  0.86416591  0.86724780  0.81541127  1
  H+  H144  1  0.60937920  0.85671169  0.97706670  1
  H+  H145  1  0.11935479  1.00810255  0.17655948  1
  H+  H146  1  0.99495803  0.85353500  0.84526425  1
  H+  H147  1  -0.01908127  0.59579127  -0.00310454  1
  H+  H148  1  0.72531395  0.61193789  0.15449990  1
  H+  H149  1  0.10730327  0.62956453  0.16144518  1
  H+  H150  1  0.02553287  0.38577994  0.66264480  1
  H+  H151  1  0.29595367  0.40604840  0.83538429  1
  H+  H152  1  -0.04133169  0.08746605  0.50319145  1
  H+  H153  1  0.16198242  0.04706022  0.98248834  1
  H+  H154  1  0.14576419  0.61768107  0.66494108  1
  H+  H155  1  0.97007273  0.35874177  0.99023155  1
  H+  H156  1  0.84205977  0.67140119  -0.00858988  1
  H+  H157  1  0.14096559  0.77148712  0.52309404  1
  H+  H158  1  0.42480994  0.82086526  0.39934805  1
  H+  H159  1  0.88398705  0.36459041  0.66137435  1
  H+  H160  1  0.70752144  0.58582131  -0.01638117  1
  H+  H161  1  0.39113193  0.93603254  0.66011742  1
  H+  H162  1  0.38035878  0.51494086  0.98705206  1
  H+  H163  1  0.88262250  0.35767101  0.50420019  1
  H+  H164  1  0.72613202  0.30620848  0.82693853  1
  H+  H165  1  0.37717494  0.34766618  0.66660439  1
  H+  H166  1  0.96898199  0.32836404  0.16123721  1
  H+  H167  1  0.39337036  0.61675759  0.51865577  1
  H+  H168  1  0.57426460  0.73165925  0.33454566  1
  H+  H169  1  0.06233701  0.15013003  0.83032307  1
  H+  H170  1  0.35704416  0.68084948  0.75863024  1
  H+  H171  1  0.77787493  0.63320489  0.49893562  1
  H+  H172  1  0.37916841  0.88182210  -0.01230573  1
  H+  H173  1  0.60785703  0.70077857  0.48816123  1
  H+  H174  1  0.89628121  0.11605915  0.98835944  1
  H+  H175  1  0.39541022  0.79288053  0.13442554  1
  H+  H176  1  0.79633793  0.93012956  0.30356080  1
  H+  H177  1  0.46577001  0.34769751  0.66698138  1
  H+  H178  1  0.14383897  0.52737994  0.84909553  1
  H+  H179  1  0.13397398  0.76477957  0.17029571  1
  H+  H180  1  0.88376138  0.57596028  0.98893850  1
  H+  H181  1  0.11504764  0.13837011  0.15251397  1
  H+  H182  1  0.33623678  0.45457540  0.15960106  1
  H+  H183  1  0.11193510  0.96928429  0.50080923  1
  H+  H184  1  0.51026211  0.11234595  0.66525365  1
  H+  H185  1  0.86224009  0.23389075  0.67657678  1
  H+  H186  1  0.37763526  1.05130117  0.16671981  1
  H+  H187  1  0.64362980  0.11630532  0.28928481  1
  H+  H188  1  0.11046551  0.23487448  0.67614930  1
  H+  H189  1  0.12249599  0.73269768  0.67359581  1
  H+  H190  1  0.86672788  0.47271508  0.48960880  1
  H+  H191  1  0.59943374  0.47457107  0.17094734  1
  H+  H192  1  0.22336112  0.89358519  0.82475642  1
  H+  H193  1  0.46045914  0.58675499  0.16911915  1
  H+  H194  1  0.37475643  0.79679895  0.65803917  1
  H+  H195  1  0.87119991  0.62127664  0.15115198  1
  H+  H196  1  0.36854423  0.45106025  0.48257918  1
  H+  H197  1  0.96944001  0.11609548  0.65984246  1
  H+  H198  1  0.60755657  0.47020612  0.67885226  1
  H+  H199  1  0.66970497  0.33563137  0.57408522  1
  H+  H200  1  0.40742149  0.55764218  0.26932582  1
  H+  H201  1  0.13560001  0.36015171  0.65707010  1
  H+  H202  1  0.37203061  0.97437437  0.33936125  1
  H+  H203  1  0.39104979  0.86594285  0.49721231  1
  H+  H204  1  0.72395231  0.11991393  0.67147632  1
  H+  H205  1  0.45054394  0.11972632  0.34091771  1
  H+  H206  1  0.12963276  0.39544076  0.83366041  1
  H+  H207  1  0.70878573  0.36291841  0.18117110  1
  H+  H208  1  0.12937717  0.26654841  0.50891451  1
  H+  H209  1  0.63374094  0.15651989  1.00366154  1
  H+  H210  1  0.63016058  0.26889162  0.66518273  1
  H+  H211  1  0.40940388  0.84926080  0.88629474  1
  H+  H212  1  0.36101838  0.97501447  0.49433631  1
  H+  H213  1  0.61701391  0.38064255  0.50306715  1
  H+  H214  1  0.58306119  0.49098072  1.01732447  1
  H+  H215  1  0.02632800  0.89652762  0.34276772  1
  H+  H216  1  1.03763224  0.38596677  0.83731586  1
  H+  H217  1  0.21970708  0.61093321  -0.00266593  1
  H+  H218  1  0.45730782  0.36725850  0.19275511  1
  H+  H219  1  0.72678259  0.36167801  0.51253184  1
  H+  H220  1  0.77034795  0.38560858  0.67951651  1
  H+  H221  1  0.91963774  0.83959801  0.27105587  1
  H+  H222  1  0.86984206  0.89656693  0.16129483  1
  H+  H223  1  0.78122588  0.64991068  0.33494138  1
  H+  H224  1  0.53841701  0.89487341  0.34750034  1
  H+  H225  1  0.12072907  0.10410269  0.66463228  1
  H+  H226  1  0.87310654  0.98748696  0.15979082  1
  H+  H227  1  0.77464386  0.86457523  0.81743361  1
  H+  H228  1  0.12101230  0.08757122  0.50284310  1
  H+  H229  1  0.76214183  0.39416281  0.34114358  1
  H+  H230  1  0.88849975  0.76584846  0.50397263  1
  H+  H231  1  0.85266305  0.73678687  0.83995992  1
  H+  H232  1  0.93434207  0.55743241  0.90524021  1
  H+  H233  1  0.87319882  0.34419103  0.99159703  1
  H+  H234  1  0.98836930  0.12168359  0.98671136  1
  H+  H235  1  0.25852318  0.14949632  0.33749397  1
  H+  H236  1  0.21787845  0.10395379  0.51067087  1
  H+  H237  1  0.87123291  0.76797415  0.18230193  1
  H+  H238  1  0.16591462  0.58783995  0.93486847  1
  H+  H239  1  0.88583623  0.35152397  0.83913594  1
  H+  H240  1  0.61337511  0.09605314  0.14367317  1
  H+  H241  1  0.10189914  0.47720439  -0.00118873  1
  H+  H242  1  0.11651117  0.47284884  0.66802889  1
  H+  H243  1  0.89170518  0.15613732  0.34902037  1
  H+  H244  1  0.41916291  0.78289324  0.15871309  1
  H+  H245  1  0.69869779  0.30512338  0.00577860  1
  H+  H246  1  0.04943961  0.92561292  0.00979515  1
  H+  H247  1  0.61014047  0.72846117  0.68161567  1
  H+  H248  1  0.94403372  0.11517670  0.26359573  1
  H+  H249  1  0.27505109  0.88435664  0.49604937  1
  H+  H250  1  0.15229545  0.60832353  0.51100574  1
  H+  H251  1  0.11676985  0.73855624  0.82381716  1
  H+  H252  1  0.77001275  0.12955686  0.50112167  1
  H+  H253  1  0.61541460  0.76525071  -0.02000627  1
  H+  H254  1  0.11372015  0.97160331  0.68748383  1
  H+  H255  1  0.86993231  0.63917566  0.49347802  1
  H+  H256  1  -0.02225326  0.36608863  0.18067661  1
  H+  H257  1  0.81074871  0.39675613  0.10653947  1
  H+  H258  1  0.88948888  0.28172087  0.34407224  1
  H+  H259  1  0.36655149  0.48888651  0.32205316  1
  H+  H260  1  0.38455658  0.27173881  -0.00771775  1
  H+  H261  1  0.24829052  0.13911965  0.15074220  1
  H+  H262  1  0.36220629  0.92504216  0.17021727  1
  H+  H263  1  0.86357088  0.21835978  1.00707485  1
  H+  H264  1  0.25743577  0.12077256  0.66628709  1
  H+  H265  1  0.64267784  0.60158638  0.51026764  1
  H+  H266  1  0.50824711  0.47877475  0.06005089  1
  H+  H267  1  0.14756786  0.87597565  0.99086064  1
  H+  H268  1  0.10991672  0.87842033  0.49953989  1
  H+  H269  1  0.98373453  0.62236102  0.67108056  1
  H+  H270  1  0.61967023  0.47361569  0.50431054  1
  H+  H271  1  0.09472458  0.17164384  0.05506819  1
  H+  H272  1  0.63264488  0.35866434  0.66664285  1
  H+  H273  1  0.36974003  0.58363496  0.17402343  1
  H+  H274  1  0.35483250  0.21632258  0.50230589  1
  H+  H275  1  0.59630172  0.74908164  0.36444857  1
  H+  H276  1  0.82618853  0.90298702  0.72011916  1
  H+  H277  1  0.51437041  0.63036032  0.99760283  1
  H+  H278  1  0.58798798  0.58251658  0.84143273  1
  H+  H279  1  0.14699233  0.07155255  0.60484768  1
  H+  H280  1  1.02822479  0.88070972  0.69052059  1
  H+  H281  1  0.05998177  0.12353456  0.41795200  1
  H+  H282  1  0.36791572  0.64011322  0.67959552  1
  H+  H283  1  0.59487160  0.57686417  0.33787191  1
  H+  H284  1  0.30720458  0.13693583  0.81786818  1
  H+  H285  1  0.21923850  0.86122191  0.17160567  1
  H+  H286  1  0.63179471  0.84715514  0.50770569  1
  H+  H287  1  0.96675232  0.84827471  0.17799658  1
  H+  H288  1  0.96458115  0.60863921  0.32377054  1
  H+  H289  1  0.57225190  0.90888085  0.04436296  1
  H+  H290  1  0.61778082  0.36040725  0.18098124  1
  H+  H291  1  0.41462653  0.58463442  0.61315791  1
  H+  H292  1  0.49274486  0.12589673  0.99489632  1
  H+  H293  1  0.41882752  0.10306813  0.22616993  1
  H+  H294  1  0.08790740  0.91906600  0.40031925  1
  H+  H295  1  0.94181185  0.85308282  0.90273797  1
  H+  H296  1  0.36065729  0.42567530  0.41422462  1
  H+  H297  1  0.46514334  0.34562889  0.51590210  1
  H+  H298  1  0.30880475  0.62156142  0.10665994  1
  H+  H299  1  0.08027405  0.66099547  0.10047635  1
  H+  H300  1  0.32911049  0.93084808  0.10294750  1
  H+  H301  1  0.49673224  0.55030154  0.34998271  1
  H+  H302  1  0.64598522  0.34799430  0.27292008  1
  H+  H303  1  0.67598680  0.57775795  0.57068893  1
  H+  H304  1  0.55363985  0.21956311  0.39852222  1
  H+  H305  1  0.88875382  0.11911355  0.17033076  1
  H+  H306  1  0.15138721  0.57303423  0.23719827  1
  H+  H307  1  0.11561553  0.63966961  0.00522691  1
  H+  H308  1  0.81721532  0.62200078  0.05351324  1
  H+  H309  1  0.56833231  0.61827560  0.44210358  1
  H+  H310  1  0.38743571  0.49746509  0.83105413  1
  H+  H311  1  0.81034889  0.91004011  0.43286495  1
  H+  H312  1  0.56719947  0.40814788  0.43304973  1
  H+  H313  1  0.53796170  0.14781865  0.72993086  1
  H+  H314  1  0.04232136  0.64029575  0.82938498  1
  H+  H315  1  0.12883100  0.17752984  0.77512671  1
  H+  H316  1  0.82229207  0.19998925  0.16930571  1
  H+  H317  1  0.12449557  0.98329019  0.05934439  1
  H+  H318  1  0.82292863  0.66855378  0.74590892  1
  H+  H319  1  0.68999143  0.87515799  0.24151419  1
  H+  H320  1  0.85820870  0.29775900  0.24654724  1
  H+  H321  1  0.91443933  0.59579509  0.61841708  1
  H+  H322  1  0.10339426  0.38860640  -0.00333260  1
  H+  H323  1  0.33388446  0.65461949  0.43520892  1
  H+  H324  1  0.41623565  0.34178469  0.90842865  1
  H+  H325  1  0.57626558  0.40481785  0.73567650  1
  H+  H326  1  0.63738192  0.61303658  0.66185607  1
  H+  H327  1  0.13132882  0.61343245  0.33802001  1
  H+  H328  1  0.55391424  0.41255298  0.11720200  1
  H+  H329  1  0.66997571  0.07605039  0.57552500  1
  H+  H330  1  0.90265206  0.86784117  0.66959720  1
  H+  H331  1  0.85612408  0.93298035  0.06227675  1
  H+  H332  1  0.15246975  0.07513360  0.23195655  1
  H+  H333  1  0.13272242  0.11821748  0.32819397  1
  H+  H334  1  0.59718967  0.91822120  0.43918277  1
  H+  H335  1  0.87610607  0.10085321  0.50956558  1
  H+  H336  1  0.83406603  0.67350372  0.39779350  1
  H+  H337  1  0.06392416  0.88241408  0.10762002  1
  H+  H338  1  0.87878957  0.36647682  0.33864747  1
  H+  H339  1  0.40614276  0.31294761  0.57438427  1
  H+  H340  1  0.88086269  0.61711073  0.32301281  1
  H+  H341  1  0.82465067  0.41187149  0.43319504  1
  H+  H342  1  0.44667558  0.06743839  0.81186069  1
  H+  H343  1  0.58302891  0.92683096  0.76587050  1
  H+  H344  1  0.14451592  0.81784455  0.26343469  1
  H+  H345  1  0.38050166  0.70813493  0.03758226  1
  H+  H346  1  0.84326828  0.17717415  0.76742209  1
  H+  H347  1  0.64185074  0.56359210  0.92730810  1
  H+  H348  1  0.83156220  0.15797222  0.06621589  1
  H+  H349  1  0.60684674  0.23109269  0.15756779  1
  H+  H350  1  0.60139750  0.18623838  0.06166506  1
  H+  H351  1  0.09380073  0.67475261  0.73323375  1
  H+  H352  1  0.90428617  0.70626258  0.11299424  1
  H+  H353  1  0.61158847  0.05492174  0.20428238  1
  H+  H354  1  0.10333208  0.43123559  0.09081212  1
  H+  H355  1  0.41431467  0.91945088  0.26343474  1
  H+  H356  1  0.85299387  0.47966018  0.33863974  1
  H+  H357  1  0.15736079  0.32304653  0.56876570  1
  H+  H358  1  0.19536210  0.10079459  0.92209078  1
  H+  H359  1  0.83898274  0.40295734  0.76895207  1
  H+  H360  1  0.55948203  0.18083652  0.39602025  1
  H+  H361  1  0.68241245  0.09879100  0.89773365  1
  H+  H362  1  0.34031594  0.15875981  0.75037183  1
  H+  H363  1  0.90899432  0.08597271  0.60174887  1
  H+  H364  1  0.94752374  0.10069428  0.89100333  1
  H+  H365  1  0.88247313  0.25143012  0.83756396  1
  H+  H366  1  0.33244603  0.91669457  0.39815203  1
  H+  H367  1  0.85739605  0.92507596  0.43538307  1
  H+  H368  1  0.55429007  0.20762073  0.83613967  1
  H+  H369  1  0.04258845  0.18007206  0.72862065  1
  H+  H370  1  0.61081052  -0.01995966  0.67901153  1
  H+  H371  1  0.72770584  0.05453357  0.27825741  1
  H+  H372  1  0.59633018  0.95980150  0.13652274  1
  H+  H373  1  0.35236642  0.61111336  0.33913089  1
  H+  H374  1  0.91037844  0.31909455  0.90462580  1
  H+  H375  1  0.33526355  0.41438358  0.73563934  1
  H+  H376  1  0.57743672  0.66278533  0.09234624  1
  H+  H377  1  0.38138050  0.34723404  0.27027800  1
  H+  H378  1  0.89118115  0.85924247  0.52916708  1
  H+  H379  1  0.90975116  0.57614614  0.22947869  1
  H+  H380  1  0.32188220  0.16394952  0.44001289  1
  H+  H381  1  0.64669178  0.81879697  0.60549425  1
  H+  H382  1  0.39438240  0.83749962  0.59270846  1
  H+  H383  1  0.18204539  0.58844483  0.60913308  1
  O2-  O384  1  0.09427186  0.17529814  0.13397421  1
  O2-  O385  1  0.04045067  0.08932041  0.46055243  1
  O2-  O386  1  0.12569910  0.17607134  0.81971814  1
  O2-  O387  1  0.12676810  0.44291051  0.13267250  1
  O2-  O388  1  0.08040688  0.41244105  0.48155214  1
  O2-  O389  1  0.09700281  0.42518369  0.82504728  1
  O2-  O390  1  0.07667805  0.65991523  0.14586258  1
  O2-  O391  1  0.05811762  0.68068218  0.41533137  1
  O2-  O392  1  0.09832797  0.67946605  0.81002116  1
  O2-  O393  1  0.06623761  0.89022559  0.15179553  1
  O2-  O394  1  0.07944170  0.90849327  0.48387596  1
  O2-  O395  1  0.11493507  0.90189646  0.82417155  1
  O2-  O396  1  0.29845554  0.18497889  0.12900117  1
  O2-  O397  1  0.32067665  0.15538996  0.48437204  1
  O2-  O398  1  0.35987310  0.17043878  0.79345073  1
  O2-  O399  1  0.30746395  0.39363693  0.14201486  1
  O2-  O400  1  0.40254151  0.45824357  0.44634473  1
  O2-  O401  1  0.35720048  0.43412417  0.81964926  1
  O2-  O402  1  0.31701115  0.62597950  0.15091008  1
  O2-  O403  1  0.33494675  0.66127045  0.48033379  1
  O2-  O404  1  0.36888244  0.68775597  0.80727931  1
  O2-  O405  1  0.31905920  0.93327585  0.14739943  1
  O2-  O406  1  0.33317264  0.91459286  0.47784097  1
  O2-  O407  1  0.33261108  0.93876529  0.80214758  1
  O2-  O408  1  0.57802772  0.17243935  0.13976531  1
  O2-  O409  1  0.58111520  0.15290578  0.50807996  1
  O2-  O410  1  0.60669435  0.26233351  0.85093060  1
  O2-  O411  1  0.56142784  0.41235963  0.16194921  1
  O2-  O412  1  0.58540499  0.41193885  0.48956396  1
  O2-  O413  1  0.56925760  0.38685521  0.81541730  1
  O2-  O414  1  0.57997206  0.65986594  0.13728941  1
  O2-  O415  1  0.58172633  0.63754637  0.48485848  1
  O2-  O416  1  0.52880732  0.64282350  0.85185173  1
  O2-  O417  1  0.57999895  0.90105663  0.11949773  1
  O2-  O418  1  0.58967457  0.91162865  0.48416366  1
  O2-  O419  1  0.58231983  0.92682586  0.81306030  1
  O2-  O420  1  0.81421305  0.14790780  0.14607078  1
  O2-  O421  1  0.83121597  0.15898691  0.48581792  1
  O2-  O422  1  0.84688239  0.17552929  0.81379597  1
  O2-  O423  1  0.80844774  0.40188101  0.15141167  1
  O2-  O424  1  0.83002565  0.41152062  0.47849041  1
  O2-  O425  1  0.83893013  0.39529359  0.81434959  1
  O2-  O426  1  0.85071779  0.65749415  0.12767608  1
  O2-  O427  1  0.83826260  0.66856068  0.48174700  1
  O2-  O428  1  0.80725060  0.67750454  0.82665024  1
  O2-  O429  1  0.84322246  0.92790848  0.14273566  1
  O2-  O430  1  0.83573178  0.89883585  0.54887873  1
  O2-  O431  1  0.81817179  0.86584118  0.79015219  1
  O2-  O432  1  0.14696505  0.06971542  0.18670210  1
  O2-  O433  1  0.15683584  0.06864930  0.52568602  1
  O2-  O434  1  0.19876207  0.08121815  0.85049291  1
  O2-  O435  1  0.21465213  0.35428760  0.15644750  1
  O2-  O436  1  0.15140992  0.32489008  0.52355079  1
  O2-  O437  1  0.19521738  0.34821366  0.85551942  1
  O2-  O438  1  0.15657306  0.58036562  0.19266389  1
  O2-  O439  1  0.17958505  0.57683894  0.52605874  1
  O2-  O440  1  0.17438494  0.58732519  0.86591678  1
  O2-  O441  1  0.15852776  0.82462735  0.18673857  1
  O2-  O442  1  0.16538723  0.83284002  0.53000238  1
  O2-  O443  1  0.16268460  0.85704396  0.84130203  1
  O2-  O444  1  0.41842302  0.10959230  0.18180441  1
  O2-  O445  1  0.40180338  0.07116772  0.52753150  1
  O2-  O446  1  0.47603699  0.12740618  0.79831778  1
  O2-  O447  1  0.39636664  0.33673294  0.20725697  1
  O2-  O448  1  0.40560371  0.30879395  0.52922027  1
  O2-  O449  1  0.41800696  0.34692454  0.86129745  1
  O2-  O450  1  0.40207998  0.55252617  0.18612157  1
  O2-  O451  1  0.41974156  0.58869073  0.54174983  1
  O2-  O452  1  0.43133340  0.59894437  0.85410559  1
  O2-  O453  1  0.43601677  0.92042322  0.22253423  1
  O2-  O454  1  0.41751088  0.83063418  0.50954144  1
  O2-  O455  1  0.41378625  0.84568867  0.84135551  1
  O2-  O456  1  0.63031384  0.05579138  0.16194087  1
  O2-  O457  1  0.66964767  0.07450176  0.53009793  1
  O2-  O458  1  0.68650578  0.10278893  0.85195710  1
  O2-  O459  1  0.64907570  0.33253529  0.19859214  1
  O2-  O460  1  0.66691928  0.33444241  0.52850683  1
  O2-  O461  1  0.67336091  0.25008521  0.82034277  1
  O2-  O462  1  0.67004712  0.58802798  0.17573006  1
  O2-  O463  1  0.67780561  0.57513350  0.52517944  1
  O2-  O464  1  0.63025383  0.56342987  0.84932467  1
  O2-  O465  1  0.67190597  0.83066394  0.16897240  1
  O2-  O466  1  0.65239501  0.80886520  0.52469967  1
  O2-  O467  1  0.63360529  0.82034818  0.84864407  1
  O2-  O468  1  0.92674737  0.09697014  0.18527187  1
  O2-  O469  1  0.90496791  0.06995123  0.52699607  1
  O2-  O470  1  0.96092270  0.11058455  0.84677134  1
  O2-  O471  1  0.81507411  0.27180640  0.21416072  1
  O2-  O472  1  0.91169752  0.32764607  0.52190831  1
  O2-  O473  1  0.91447709  0.31888704  0.85764038  1
  O2-  O474  1  0.91108844  0.57185421  0.18407129  1
  O2-  O475  1  0.94455143  0.58606696  0.50394894  1
  O2-  O476  1  0.93751686  0.55914335  0.85911052  1
  O2-  O477  1  0.90716606  0.82823020  0.19432878  1
  O2-  O478  1  0.92444028  0.82727246  0.52002602  1
  O2-  O479  1  0.93607694  0.83628719  0.85901965  1
  O2-  O480  1  0.16551214  0.08987289  0.31094993  1
  O2-  O481  1  0.14868179  0.07220255  0.65032198  1
  O2-  O482  1  0.19015525  0.10679121  0.96736379  1
  O2-  O483  1  0.18723206  0.33114318  0.26818749  1
  O2-  O484  1  0.16367094  0.32408281  0.64663275  1
  O2-  O485  1  0.16147010  0.34041155  0.97461021  1
  O2-  O486  1  0.15512798  0.57665944  0.32432840  1
  O2-  O487  1  0.17916084  0.58897266  0.65414664  1
  O2-  O488  1  0.16057819  0.58588078  0.98185189  1
  O2-  O489  1  0.13227569  0.80874716  0.30789026  1
  O2-  O490  1  0.17288051  0.84422683  0.64781794  1
  O2-  O491  1  0.17193176  0.84233982  0.97313568  1
  O2-  O492  1  0.43866625  0.07931132  0.30777700  1
  O2-  O493  1  0.33270345  0.00039038  0.64197509  1
  O2-  O494  1  0.43087940  0.09082982  0.98559858  1
  O2-  O495  1  0.37586022  0.34918192  0.31880571  1
  O2-  O496  1  0.40528701  0.31476224  0.65275906  1
  O2-  O497  1  0.40675943  0.33342561  0.97622044  1
  O2-  O498  1  0.40268964  0.55279762  0.31433086  1
  O2-  O499  1  0.40911999  0.57979362  0.65938968  1
  O2-  O500  1  0.41308901  0.57628826  0.97310972  1
  O2-  O501  1  0.42213980  0.82727449  0.35535169  1
  O2-  O502  1  0.37227418  0.84079313  0.63313703  1
  O2-  O503  1  0.40323280  0.84735725  0.96637401  1
  O2-  O504  1  0.70934408  0.07967121  0.31021749  1
  O2-  O505  1  0.66488400  0.08642555  0.65445379  1
  O2-  O506  1  0.67392738  0.08929111  0.97328590  1
  O2-  O507  1  0.64592978  0.35684806  0.31863034  1
  O2-  O508  1  0.66518405  0.32993929  0.65242103  1
  O2-  O509  1  0.73784002  0.36750138  0.99533022  1
  O2-  O510  1  0.68687677  0.58302077  0.29587206  1
  O2-  O511  1  0.66716180  0.58148448  0.64918237  1
  O2-  O512  1  0.64811782  0.57145391  0.97247996  1
  O2-  O513  1  0.71270619  0.91350718  0.27783599  1
  O2-  O514  1  0.65217434  0.82623995  0.65059051  1
  O2-  O515  1  0.63950523  0.82438068  0.96085596  1
  O2-  O516  1  0.94161432  0.10843885  0.30887915  1
  O2-  O517  1  0.90819910  0.08702853  0.64749131  1
  O2-  O518  1  0.92825921  0.08910979  0.97058018  1
  O2-  O519  1  0.91549002  0.34144247  0.32701789  1
  O2-  O520  1  0.91194228  0.33220529  0.64624413  1
  O2-  O521  1  0.90921610  0.32089967  0.97451551  1
  O2-  O522  1  0.90408478  0.58038512  0.30784926  1
  O2-  O523  1  0.91987111  0.59117114  0.66213496  1
  O2-  O524  1  0.92280503  0.55349478  0.97952500  1
  O2-  O525  1  0.92153199  0.84896631  0.31600497  1
  O2-  O526  1  0.93309359  0.83595211  0.66248332  1
  O2-  O527  1  0.95446706  0.87593635  0.98116778  1
  O2-  O528  1  0.09315834  0.17449000  0.00971966  1
  O2-  O529  1  0.08310825  0.16153024  0.35845535  1
  O2-  O530  1  0.07438626  0.17387643  0.69481737  1
  O2-  O531  1  0.07018186  0.41570507  0.01230446  1
  O2-  O532  1  0.06927824  0.42267566  0.36551471  1
  O2-  O533  1  0.08747941  0.40956279  0.67066474  1
  O2-  O534  1  0.08136520  0.66701095  0.02045056  1
  O2-  O535  1  0.06584643  0.66076176  0.35121712  1
  O2-  O536  1  0.08944845  0.67202404  0.68760479  1
  O2-  O537  1  0.11071194  0.94603775  0.02393532  1
  O2-  O538  1  0.08787373  0.92328251  0.35536177  1
  O2-  O539  1  0.09106056  0.91224188  0.70349608  1
  O2-  O540  1  0.34786175  0.17984486  0.01649469  1
  O2-  O541  1  0.31888385  0.19078986  0.35405704  1
  O2-  O542  1  0.31914578  0.14019865  0.67410963  1
  O2-  O543  1  0.32446045  0.41446548  0.01832614  1
  O2-  O544  1  0.31770849  0.38218075  0.33594700  1
  O2-  O545  1  0.32978531  0.40931486  0.69085315  1
  O2-  O546  1  0.33365648  0.65528289  0.02078536  1
  O2-  O547  1  0.32375888  0.64315014  0.35503404  1
  O2-  O548  1  0.34256697  0.67527549  0.69639324  1
  O2-  O549  1  0.34079091  0.93237294  0.02239202  1
  O2-  O550  1  0.34078968  0.91400928  0.35350487  1
  O2-  O551  1  0.39464765  0.98940863  0.67923916  1
  O2-  O552  1  0.61309337  0.19574006  0.01723460  1
  O2-  O553  1  0.59578662  0.12015364  0.26907564  1
  O2-  O554  1  0.56127526  0.15385314  0.68783480  1
  O2-  O555  1  0.53723537  0.44849242  0.04551491  1
  O2-  O556  1  0.54620829  0.40567659  0.38349551  1
  O2-  O557  1  0.57733772  0.40844727  0.69051446  1
  O2-  O558  1  0.57710088  0.66838738  0.00848483  1
  O2-  O559  1  0.54768793  0.55028792  0.36779939  1
  O2-  O560  1  0.58290586  0.66702382  0.69627434  1
  O2-  O561  1  0.57090398  0.91135389  -0.00127444  1
  O2-  O562  1  0.60022292  0.92140098  0.35823488  1
  O2-  O563  1  0.57946950  0.92109256  0.69659940  1
  O2-  O564  1  0.83436264  0.15730548  0.02086395  1
  O2-  O565  1  0.85541574  0.17927189  0.36550916  1
  O2-  O566  1  0.83283208  0.17462878  0.69531752  1
  O2-  O567  1  0.81943082  0.38878618  0.02547474  1
  O2-  O568  1  0.82223690  0.41941279  0.35516731  1
  O2-  O569  1  0.83150342  0.41456241  0.69384380  1
  O2-  O570  1  0.81048135  0.61353664  0.00836569  1
  O2-  O571  1  0.83999924  0.68123969  0.35302925  1
  O2-  O572  1  0.82823124  0.66798812  0.70106748  1
  O2-  O573  1  0.86016849  0.93101235  0.01727511  1
  O2-  O574  1  0.85665606  0.95249193  0.32291764  1
  O2-  O575  1  0.82785017  0.91710270  0.67557388  1
