# generated using pymatgen
data_H2O
_symmetry_space_group_name_H-M   'P 1'
_cell_length_a   17.99712569
_cell_length_b   17.99945934
_cell_length_c   21.99145417
_cell_angle_alpha   90.01805049
_cell_angle_beta   90.00686260
_cell_angle_gamma   120.01399030
_symmetry_Int_Tables_number   1
_chemical_formula_structural   H2O
_chemical_formula_sum   'H384 O192'
_cell_volume   6168.58997139
_cell_formula_units_Z   192
loop_
 _symmetry_equiv_pos_site_id
 _symmetry_equiv_pos_as_xyz
  1  'x, y, z'
loop_
 _atom_type_symbol
 _atom_type_oxidation_number
  H+  1.0
  O2-  -2.0
loop_
 _atom_site_type_symbol
 _atom_site_label
 _atom_site_symmetry_multiplicity
 _atom_site_fract_x
 _atom_site_fract_y
 _atom_site_fract_z
 _atom_site_occupancy
  H+  H0  1  0.90586487  0.23628819  0.70270442  1
  H+  H1  1  0.52526225  -0.11245331  0.48967840  1
  H+  H2  1  0.77036294  0.87999536  0.68418073  1
  H+  H3  1  0.77037172  0.40304163  0.81600814  1
  H+  H4  1  1.00823725  0.87694730  0.14177317  1
  H+  H5  1  0.83555293  0.62794948  0.00600568  1
  H+  H6  1  0.55529921  0.37920295  0.51050583  1
  H+  H7  1  0.62581926  0.10986273  0.83710621  1
  H+  H8  1  0.30917182  0.65894375  0.81679509  1
  H+  H9  1  0.97058642  0.37723417  0.98744929  1
  H+  H10  1  0.89631312  0.54393331  0.65225107  1
  H+  H11  1  0.37285616  0.48200962  0.82698793  1
  H+  H12  1  0.56361820  -0.04787842  0.64794468  1
  H+  H13  1  0.95480227  0.47691851  0.77074892  1
  H+  H14  1  0.28268160  0.38783515  0.66905895  1
  H+  H15  1  0.38737917  0.51632704  0.32813979  1
  H+  H16  1  0.83655342  0.68974288  0.76786431  1
  H+  H17  1  0.39442276  0.90456902  0.66787455  1
  H+  H18  1  0.50364658  0.12194744  0.33656737  1
  H+  H19  1  0.47810286  0.12720142  0.66011822  1
  H+  H20  1  0.76384640  0.39587060  0.66044897  1
  H+  H21  1  0.09765606  0.16931326  0.75879660  1
  H+  H22  1  0.59743385  0.38938772  0.03200573  1
  H+  H23  1  0.12965293  0.77528583  0.85604681  1
  H+  H24  1  0.10806143  0.94398762  0.54782623  1
  H+  H25  1  0.61903273  0.33017433  0.92057005  1
  H+  H26  1  0.12531098  0.07346572  0.23022693  1
  H+  H27  1  0.54815768  0.91470174  0.74741821  1
  H+  H28  1  0.37259711  0.87412815  0.32027105  1
  H+  H29  1  0.38588331  0.51115880  0.98756174  1
  H+  H30  1  0.61039262  0.97440665  0.00545077  1
  H+  H31  1  0.04451452  0.62229115  0.06294025  1
  H+  H32  1  0.26159227  0.37590211  -0.00079318  1
  H+  H33  1  0.98564329  0.12262410  0.83831133  1
  H+  H34  1  0.33352202  0.42057484  0.38921850  1
  H+  H35  1  0.24101820  0.88734625  0.13092747  1
  H+  H36  1  0.35492980  0.88079782  0.83761356  1
  H+  H37  1  0.61442576  0.24618644  0.15941070  1
  H+  H38  1  0.34562840  -0.02798409  0.83580593  1
  H+  H39  1  0.09338524  0.38126106  -0.00057268  1
  H+  H40  1  0.18364735  0.56736994  0.67389648  1
  H+  H41  1  1.08991645  0.61911127  1.00209794  1
  H+  H42  1  0.62453115  0.11682861  0.33453548  1
  H+  H43  1  0.61120804  0.14627482  1.00232199  1
  H+  H44  1  0.26233190  0.39579674  0.48766779  1
  H+  H45  1  0.88762829  0.13098882  0.50775539  1
  H+  H46  1  0.44087213  0.36467270  0.28086720  1
  H+  H47  1  0.40409045  0.61931887  0.84205702  1
  H+  H48  1  0.71256802  0.10369902  0.83881672  1
  H+  H49  1  0.99150374  0.01683787  0.23918798  1
  H+  H50  1  0.29465346  0.15907568  0.31907312  1
  H+  H51  1  0.74640590  0.61695401  0.16413545  1
  H+  H52  1  0.91961321  0.82973982  0.31588421  1
  H+  H53  1  0.79095440  0.40822532  0.84699416  1
  H+  H54  1  0.36512834  0.14654370  0.48222826  1
  H+  H55  1  0.04875800  0.42562936  0.47923144  1
  H+  H56  1  0.88979509  0.26428854  0.17417457  1
  H+  H57  1  0.47405510  0.62647978  0.17106799  1
  H+  H58  1  0.11481058  0.15266722  0.49072442  1
  H+  H59  1  0.23488948  0.13292916  0.48716350  1
  H+  H60  1  0.88571386  0.04209239  0.50108758  1
  H+  H61  1  0.88155911  0.39110871  0.96833788  1
  H+  H62  1  0.35941409  0.92249535  0.06624132  1
  H+  H63  1  0.35478729  0.13052766  1.00561742  1
  H+  H64  1  0.63136576  0.01982385  0.49653705  1
  H+  H65  1  0.97713412  0.58223964  0.15062478  1
  H+  H66  1  0.05184027  0.17524307  0.34111838  1
  H+  H67  1  0.22161926  0.35028375  0.16219734  1
  H+  H68  1  0.58217824  0.21378827  0.83838223  1
  H+  H69  1  0.85518237  0.37918518  0.33764824  1
  H+  H70  1  0.22960420  0.11974911  0.82612372  1
  H+  H71  1  0.71517900  0.60551440  0.00792594  1
  H+  H72  1  0.78350647  0.40300186  0.20929429  1
  H+  H73  1  0.36442567  0.82826941  0.15391332  1
  H+  H74  1  0.16292752  0.54515680  0.51890073  1
  H+  H75  1  0.61085358  0.22228779  0.49218734  1
  H+  H76  1  0.33238525  0.17041994  0.75796442  1
  H+  H77  1  0.61931731  0.61327539  0.00839351  1
  H+  H78  1  0.43149824  0.27470590  0.28429856  1
  H+  H79  1  0.40626053  0.06628940  0.26271043  1
  H+  H80  1  0.39056646  0.02094320  0.99186998  1
  H+  H81  1  0.43936403  0.84471759  0.56838330  1
  H+  H82  1  0.59992843  0.41960683  0.44434053  1
  H+  H83  1  0.29196580  0.65079810  0.49721362  1
  H+  H84  1  0.50661156  0.37290853  0.19515038  1
  H+  H85  1  0.39950373  0.78407515  0.50864247  1
  H+  H86  1  0.37143461  0.23415776  0.66685111  1
  H+  H87  1  0.87673320  -0.01264812  0.83701176  1
  H+  H88  1  0.61496488  0.72928591  0.67441672  1
  H+  H89  1  0.72980583  0.63764846  0.83344523  1
  H+  H90  1  0.37246524  0.66512975  0.16383206  1
  H+  H91  1  0.89783063  0.77723877  0.50511156  1
  H+  H92  1  0.69951887  0.36063048  1.05629416  1
  H+  H93  1  0.59154681  0.97674203  0.80612015  1
  H+  H94  1  1.01900743  0.35887663  0.83672837  1
  H+  H95  1  0.84667328  0.40412024  0.63019200  1
  H+  H96  1  0.03916959  0.63972928  0.48976104  1
  H+  H97  1  0.96289486  0.33613782  0.54738521  1
  H+  H98  1  0.95444586  0.16191842  0.30616800  1
  H+  H99  1  0.76287109  0.14086708  0.50113037  1
  H+  H100  1  0.38332549  0.02926704  0.50580814  1
  H+  H101  1  0.14464031  0.77202314  0.51142794  1
  H+  H102  1  0.33121781  0.28589998  0.14935593  1
  H+  H103  1  0.13734969  0.36252918  0.16560496  1
  H+  H104  1  0.10307648  0.27232481  0.99160020  1
  H+  H105  1  0.95723957  0.59489221  0.34142035  1
  H+  H106  1  0.87107728  0.48683233  0.20669742  1
  H+  H107  1  0.15805379  0.36555672  0.66046572  1
  H+  H108  1  0.37793553  0.64547055  0.49421752  1
  H+  H109  1  0.93444306  0.12847872  0.33155260  1
  H+  H110  1  0.62132988  0.26569149  0.33015576  1
  H+  H111  1  0.36807748  0.23659199  0.47958263  1
  H+  H112  1  0.87907675  0.63606230  0.83529287  1
  H+  H113  1  0.62141211  0.63890237  0.49707839  1
  H+  H114  1  0.60813261  0.40891556  0.82982974  1
  H+  H115  1  0.52351161  0.63650550  0.82907884  1
  H+  H116  1  0.32177574  0.95075624  0.34262154  1
  H+  H117  1  0.39671454  0.03193119  0.65708814  1
  H+  H118  1  0.81755991  0.07241554  0.03330413  1
  H+  H119  1  0.07240527  0.41252820  0.67639707  1
  H+  H120  1  0.11118533  0.60902117  0.84254953  1
  H+  H121  1  0.63215218  0.36728630  0.66013330  1
  H+  H122  1  0.30306805  0.89958551  0.67140650  1
  H+  H123  1  0.97946566  0.79084068  0.29562834  1
  H+  H124  1  0.89981287  0.52734445  0.50398317  1
  H+  H125  1  0.64373636  0.62053711  0.66310258  1
  H+  H126  1  0.15344454  0.86832830  0.66924270  1
  H+  H127  1  0.87254198  0.38747210  0.50477588  1
  H+  H128  1  0.97259486  0.05945896  0.99160268  1
  H+  H129  1  0.87394595  0.24961510  0.84528627  1
  H+  H130  1  1.03650552  0.13132917  0.67062626  1
  H+  H131  1  0.47624158  0.29641906  0.86856804  1
  H+  H132  1  0.13077103  0.64524551  0.50065025  1
  H+  H133  1  0.20965346  0.61496543  1.00078662  1
  H+  H134  1  0.86395055  0.74697548  0.83067279  1
  H+  H135  1  0.40373606  0.62641666  0.65724724  1
  H+  H136  1  0.12987532  0.13922524  0.66336767  1
  H+  H137  1  0.75860440  0.14572241  0.34829788  1
  H+  H138  1  0.87052133  0.64800822  0.67575472  1
  H+  H139  1  0.59935286  0.51208675  0.18151998  1
  H+  H140  1  0.62798197  0.02883822  0.33253768  1
  H+  H141  1  0.17078842  0.84151416  1.04372404  1
  H+  H142  1  0.87293912  0.63988656  0.48880402  1
  H+  H143  1  0.12951387  0.65695263  0.68291619  1
  H+  H144  1  0.28132349  0.65610015  0.17231292  1
  H+  H145  1  0.89256076  0.86659268  0.66358526  1
  H+  H146  1  0.90577479  0.15545034  0.02755360  1
  H+  H147  1  0.76482223  0.14947005  0.15819857  1
  H+  H148  1  0.09769656  0.45209245  0.84115588  1
  H+  H149  1  0.15164225  0.88934541  0.12947354  1
  H+  H150  1  0.09987198  0.47351089  1.00251093  1
  H+  H151  1  0.52777212  0.88176462  1.00695354  1
  H+  H152  1  0.77823120  0.64242438  0.67570524  1
  H+  H153  1  0.56403551  0.03725429  0.20218463  1
  H+  H154  1  0.10676033  0.47731309  0.15303683  1
  H+  H155  1  0.14006439  0.85856279  0.51389915  1
  H+  H156  1  0.31255623  0.69026641  0.08295077  1
  H+  H157  1  0.60903480  0.72420869  0.16547269  1
  H+  H158  1  0.60475789  0.72494366  0.34445105  1
  H+  H159  1  0.86730344  0.13748355  0.68587932  1
  H+  H160  1  0.59786652  0.13644083  0.67429947  1
  H+  H161  1  0.98830245  0.62978884  0.65932380  1
  H+  H162  1  0.02965651  0.87919790  0.67887802  1
  H+  H163  1  0.13945804  0.35316466  0.83912088  1
  H+  H164  1  0.71404539  0.35148147  0.33299352  1
  H+  H165  1  0.38745606  0.77475447  0.99058143  1
  H+  H166  1  0.62753095  0.63729029  0.82881785  1
  H+  H167  1  0.08150194  1.00741293  0.17351154  1
  H+  H168  1  0.35268107  0.16133573  0.16212539  1
  H+  H169  1  0.47240314  0.11516998  -0.01157035  1
  H+  H170  1  0.16688787  0.63714267  0.33270576  1
  H+  H171  1  0.47819592  0.61294883  0.33358697  1
  H+  H172  1  0.75517223  0.86433931  0.07192882  1
  H+  H173  1  0.89910777  0.91753715  -0.02677861  1
  H+  H174  1  0.23907118  0.12883327  0.64803610  1
  H+  H175  1  0.65130061  0.78314935  0.86002855  1
  H+  H176  1  0.70323149  0.87060232  0.33360238  1
  H+  H177  1  0.63762705  0.86364617  0.50208973  1
  H+  H178  1  0.36674480  0.10222531  0.83620325  1
  H+  H179  1  0.58113063  0.66667960  0.40504117  1
  H+  H180  1  0.21773884  0.09917715  0.99217037  1
  H+  H181  1  0.12423821  0.40136417  0.32811387  1
  H+  H182  1  0.77740310  0.40484174  -0.02236594  1
  H+  H183  1  0.28225288  0.62998204  0.34037845  1
  H+  H184  1  0.34590553  0.38783654  0.48834767  1
  H+  H185  1  0.25559522  0.87648582  0.84703922  1
  H+  H186  1  0.16031649  0.14349602  0.32405780  1
  H+  H187  1  0.11779337  0.89765137  0.84482767  1
  H+  H188  1  0.63502627  0.27896291  0.66632096  1
  H+  H189  1  0.51689220  0.13738036  0.49291722  1
  H+  H190  1  0.36842418  0.14299725  0.66834959  1
  H+  H191  1  0.83801129  0.61052333  0.34553757  1
  H+  H192  1  0.13409197  0.12803682  0.82394097  1
  H+  H193  1  0.77311641  0.90437341  0.48838463  1
  H+  H194  1  0.45939171  0.40155317  0.15247215  1
  H+  H195  1  0.62271732  0.60512615  0.33338976  1
  H+  H196  1  0.61120016  0.51608631  1.01409597  1
  H+  H197  1  0.62074343  0.85347915  0.65371371  1
  H+  H198  1  0.86620468  0.84035582  0.15747575  1
  H+  H199  1  0.09893806  -0.03453652  0.98803648  1
  H+  H200  1  0.14405910  0.04621389  0.49671132  1
  H+  H201  1  0.65832076  0.36516720  0.50842906  1
  H+  H202  1  0.36946940  0.89428779  0.49979710  1
  H+  H203  1  0.68048053  0.35006915  0.86590462  1
  H+  H204  1  0.02248198  0.88846256  0.50961151  1
  H+  H205  1  0.89575741  0.34610133  0.82699586  1
  H+  H206  1  0.89594027  0.88019517  0.85213592  1
  H+  H207  1  0.26723096  0.73322394  0.04917385  1
  H+  H208  1  0.53039242  0.63622754  0.49727581  1
  H+  H209  1  0.63920225  0.38121204  0.18544645  1
  H+  H210  1  0.38944118  0.74882130  0.82655995  1
  H+  H211  1  0.27773052  0.88858490  0.50257541  1
  H+  H212  1  0.85574708  0.12664764  0.84427930  1
  H+  H213  1  0.65245251  0.53003823  0.51396102  1
  H+  H214  1  0.82855930  0.85314730  0.35766721  1
  H+  H215  1  0.87266351  0.54471646  0.84219656  1
  H+  H216  1  0.37875962  0.10161944  0.31815656  1
  H+  H217  1  0.96607716  0.62224630  0.99260405  1
  H+  H218  1  0.89032046  0.77775523  0.66217616  1
  H+  H219  1  0.64249242  0.77718538  0.50481087  1
  H+  H220  1  0.87250495  0.50603203  0.33012149  1
  H+  H221  1  1.02245938  0.14918910  0.49277510  1
  H+  H222  1  0.70984409  0.60158543  0.33142558  1
  H+  H223  1  0.10935694  0.85962451  0.33208897  1
  H+  H224  1  0.60498189  0.63264957  0.16622137  1
  H+  H225  1  0.83512214  0.70653119  0.15399903  1
  H+  H226  1  0.87629484  0.61901795  0.18100926  1
  H+  H227  1  0.64414710  0.86228858  1.01231851  1
  H+  H228  1  0.16688465  0.65450105  0.18614008  1
  H+  H229  1  0.38727202  0.52670790  0.50329951  1
  H+  H230  1  0.01596140  0.65105245  0.82664876  1
  H+  H231  1  0.13616350  0.02703516  0.83467061  1
  H+  H232  1  0.09009759  0.87247520  -0.00436261  1
  H+  H233  1  0.05021031  0.93439072  0.36985685  1
  H+  H234  1  0.58859853  0.88654665  0.32993630  1
  H+  H235  1  0.05453547  0.56549422  0.14998885  1
  H+  H236  1  0.14166268  0.45979531  0.62602625  1
  H+  H237  1  0.09524257  0.76619886  0.32825785  1
  H+  H238  1  0.15493547  0.29927280  0.32074518  1
  H+  H239  1  0.59933699  0.92327567  0.10332051  1
  H+  H240  1  0.64069511  0.86345735  0.17709152  1
  H+  H241  1  0.71645338  0.11109393  0.98386554  1
  H+  H242  1  0.07159107  0.41687905  0.09403783  1
  H+  H243  1  0.47211761  0.60247732  0.99290375  1
  H+  H244  1  0.12585454  0.74229270  0.68007083  1
  H+  H245  1  0.60715136  0.47179407  0.35705399  1
  H+  H246  1  0.12352987  0.40311972  0.49273120  1
  H+  H247  1  0.35999307  0.22258268  0.82222051  1
  H+  H248  1  0.98596528  0.36128636  0.17145530  1
  H+  H249  1  0.73880828  0.62056816  0.50912458  1
  H+  H250  1  0.03990746  0.17083494  0.06070719  1
  H+  H251  1  0.81380606  -0.05963113  0.12024933  1
  H+  H252  1  0.74243218  0.86615194  0.86154591  1
  H+  H253  1  0.85016953  0.70033148  0.32990330  1
  H+  H254  1  0.52331644  0.40937412  0.82601092  1
  H+  H255  1  1.08197642  0.13109487  0.14411628  1
  H+  H256  1  0.52642234  0.03422490  0.60835903  1
  H+  H257  1  0.37205225  0.39348838  0.82519478  1
  H+  H258  1  0.37896023  0.61432750  0.33805296  1
  H+  H259  1  0.85358531  -0.03138806  0.67783435  1
  H+  H260  1  0.45952251  0.39214027  0.49722889  1
  H+  H261  1  0.48073519  0.37077660  0.65214877  1
  H+  H262  1  0.86361746  0.49740062  -0.03108943  1
  H+  H263  1  0.40799764  0.75922481  0.66736507  1
  H+  H264  1  0.12915043  0.28214288  0.50409304  1
  H+  H265  1  0.62849087  0.10884565  0.49473907  1
  H+  H266  1  0.36899802  0.35312686  0.98878235  1
  H+  H267  1  0.61367445  0.72732937  1.01608766  1
  H+  H268  1  0.83454975  0.15689567  0.78148279  1
  H+  H269  1  0.47293592  0.12523897  0.16961512  1
  H+  H270  1  0.16106977  1.05662314  0.33026088  1
  H+  H271  1  0.88974386  0.27568043  0.32843832  1
  H+  H272  1  0.98223706  0.36438603  0.32501333  1
  H+  H273  1  0.28395555  0.39827583  0.32596666  1
  H+  H274  1  0.46906218  0.87987868  0.82644827  1
  H+  H275  1  0.61719439  0.48528648  0.66833899  1
  H+  H276  1  0.23271092  0.36020546  0.83889337  1
  H+  H277  1  0.95358444  0.10361487  0.90556860  1
  H+  H278  1  0.12949700  0.23155571  0.82081682  1
  H+  H279  1  0.94633091  0.37325070  0.70947276  1
  H+  H280  1  0.95152021  0.05796040  0.28258224  1
  H+  H281  1  0.29274736  0.88539718  0.00897834  1
  H+  H282  1  -0.02927536  0.86014114  -0.04901197  1
  H+  H283  1  0.39301500  0.03069696  0.16437796  1
  H+  H284  1  0.11008653  0.23062506  0.14406979  1
  H+  H285  1  0.90260579  0.93418801  0.32428793  1
  H+  H286  1  0.17869164  0.58217849  0.82477354  1
  H+  H287  1  0.63925272  0.54412851  0.83343995  1
  H+  H288  1  0.83283144  0.40345761  0.40269711  1
  H+  H289  1  0.13866536  0.70572821  0.40590616  1
  H+  H290  1  0.35120287  0.21748003  0.00348089  1
  H+  H291  1  0.11625349  0.95210187  0.42068267  1
  H+  H292  1  0.90428234  0.81084964  0.21413917  1
  H+  H293  1  0.37763049  0.69623881  0.72736766  1
  H+  H294  1  0.50736461  0.90071040  0.32812476  1
  H+  H295  1  0.80115771  0.37922811  0.10512937  1
  H+  H296  1  0.93222123  0.59528124  0.55880638  1
  H+  H297  1  0.83296343  0.66535086  0.43291596  1
  H+  H298  1  0.82653374  0.18489748  0.44550395  1
  H+  H299  1  0.50075920  0.12249987  0.82861638  1
  H+  H300  1  0.26913127  0.65705008  0.66688770  1
  H+  H301  1  0.16625010  0.59525803  0.23907359  1
  H+  H302  1  0.65341992  0.33653041  0.24310227  1
  H+  H303  1  0.08565187  0.90763023  0.73907876  1
  H+  H304  1  0.79981155  0.03215070  0.62611538  1
  H+  H305  1  0.71745482  0.84507431  0.17195837  1
  H+  H306  1  0.08489467  0.68243570  0.77209227  1
  H+  H307  1  0.42249894  0.58468486  0.56419888  1
  H+  H308  1  0.42138554  0.84467997  0.89404771  1
  H+  H309  1  0.14558864  0.26984970  0.65721324  1
  H+  H310  1  0.63872465  0.28263534  1.01472433  1
  H+  H311  1  0.14437745  0.53657151  0.32778913  1
  H+  H312  1  0.91667712  0.60439843  0.24234211  1
  H+  H313  1  0.19512145  0.60989969  0.57767622  1
  H+  H314  1  0.41602119  0.34477210  0.56034854  1
  H+  H315  1  0.91912299  0.83345380  0.56578731  1
  H+  H316  1  0.66033112  0.83154139  0.26911207  1
  H+  H317  1  0.15217515  0.32433626  0.93220339  1
  H+  H318  1  0.52816382  0.63851642  0.67344649  1
  H+  H319  1  0.78361424  0.38429211  0.49948582  1
  H+  H320  1  0.31865037  0.39291908  0.05915402  1
  H+  H321  1  0.39167527  0.36963247  0.65462716  1
  H+  H322  1  0.42010771  0.32230177  0.90806469  1
  H+  H323  1  0.45934907  0.35686175  1.00007350  1
  H+  H324  1  0.57753145  0.16884215  0.73765642  1
  H+  H325  1  0.84404394  0.07555954  0.16512791  1
  H+  H326  1  0.91420334  0.61426904  0.93089278  1
  H+  H327  1  0.31836276  0.17022048  0.09876672  1
  H+  H328  1  0.93913253  0.34013300  0.64027629  1
  H+  H329  1  0.87181244  0.42266085  0.73034639  1
  H+  H330  1  0.54731804  0.40892600  0.08428735  1
  H+  H331  1  0.35333545  0.18571491  0.37770109  1
  H+  H332  1  0.39370562  0.53123705  0.65912736  1
  H+  H333  1  0.61791225  0.06437667  0.58168114  1
  H+  H334  1  0.41501885  0.59739602  0.22917182  1
  H+  H335  1  0.34199010  0.65974311  0.40256127  1
  H+  H336  1  0.80067646  0.64253168  0.07036908  1
  H+  H337  1  0.16315843  0.08347911  0.93240073  1
  H+  H338  1  0.16046705  0.58053021  0.93575116  1
  H+  H339  1  0.02998836  0.89897097  0.84181420  1
  H+  H340  1  0.57631176  0.66388661  0.07284791  1
  H+  H341  1  0.61173364  0.15622341  0.16165131  1
  H+  H342  1  0.34086804  0.42100144  0.72910513  1
  H+  H343  1  0.58173727  0.42743171  0.72757810  1
  H+  H344  1  0.31626705  0.90724346  0.40630763  1
  H+  H345  1  0.60888680  0.38393851  0.35602391  1
  H+  H346  1  0.18222492  0.83804679  0.60961242  1
  H+  H347  1  0.56266498  0.15900247  0.39733755  1
  H+  H348  1  0.12517812  0.75613441  1.00638079  1
  H+  H349  1  0.83590241  0.37843837  0.08646886  1
  H+  H350  1  0.66567349  0.83348686  0.59946972  1
  H+  H351  1  0.84242541  0.92375143  0.77872770  1
  H+  H352  1  0.64339811  0.08586847  0.24528764  1
  H+  H353  1  0.17327226  0.34615443  0.25554773  1
  H+  H354  1  0.58324180  0.67236250  0.76612855  1
  H+  H355  1  0.16199145  0.83016257  0.91862829  1
  H+  H356  1  0.18335184  0.11143143  0.58697724  1
  H+  H357  1  0.58146941  0.17446454  0.06307826  1
  H+  H358  1  0.62792944  0.98085766  0.16347638  1
  H+  H359  1  0.67678972  0.59378151  0.60318186  1
  H+  H360  1  0.91060097  0.33358593  0.92383955  1
  H+  H361  1  0.82971085  0.16056154  0.10424965  1
  H+  H362  1  0.67315969  0.32699865  0.56861011  1
  H+  H363  1  0.09978661  0.43006960  0.39044914  1
  H+  H364  1  0.16632507  0.33829534  0.56473614  1
  H+  H365  1  0.68931169  0.83626075  0.96187023  1
  H+  H366  1  0.84347825  0.14062039  0.35315125  1
  H+  H367  1  0.65243001  0.07886725  0.92753670  1
  H+  H368  1  0.88002292  0.02149387  0.19947097  1
  H+  H369  1  0.88908121  0.07584004  0.59374510  1
  H+  H370  1  0.21068818  0.77734212  0.36294502  1
  H+  H371  1  0.40760845  0.88145040  0.25304434  1
  H+  H372  1  0.42538246  0.57859415  0.90146828  1
  H+  H373  1  0.64487848  0.56965110  0.24042963  1
  H+  H374  1  0.92509243  0.32864281  0.23832402  1
  H+  H375  1  0.88010757  0.93546489  0.04019194  1
  H+  H376  1  0.06172613  0.92331798  0.08355504  1
  H+  H377  1  0.41322025  0.09289916  0.56301536  1
  H+  H378  1  0.10119457  0.19431469  0.40303628  1
  H+  H379  1  0.86924277  0.26548959  0.53417439  1
  H+  H380  1  0.57757825  0.91722895  0.42718246  1
  H+  H381  1  0.40195210  0.86706633  0.98748281  1
  H+  H382  1  0.85751742  0.92236753  0.45226669  1
  H+  H383  1  0.39786877  0.07571976  0.89857473  1
  O2-  O384  1  0.08394709  0.17741184  0.11885012  1
  O2-  O385  1  0.08303394  0.18258227  0.47748338  1
  O2-  O386  1  0.09846019  0.16922364  0.80495384  1
  O2-  O387  1  0.07493209  0.41707320  0.13976530  1
  O2-  O388  1  0.10980078  0.44643490  0.47399813  1
  O2-  O389  1  0.07979174  0.39522231  0.82396782  1
  O2-  O390  1  0.00995440  0.56391728  0.12362766  1
  O2-  O391  1  0.10181080  0.67357874  0.48017315  1
  O2-  O392  1  0.07852872  0.67719265  0.81782499  1
  O2-  O393  1  0.06616765  0.92255380  0.12849984  1
  O2-  O394  1  0.08956167  0.92635347  0.50587583  1
  O2-  O395  1  0.09020062  0.92801647  0.82589029  1
  O2-  O396  1  0.31998280  0.18493283  0.14242906  1
  O2-  O397  1  0.33801168  0.17754536  0.46290660  1
  O2-  O398  1  0.32555537  0.16435140  0.80403512  1
  O2-  O399  1  0.30203842  0.37669801  0.12786363  1
  O2-  O400  1  0.32250615  0.42343665  0.47211148  1
  O2-  O401  1  0.34113443  0.42152922  0.81024440  1
  O2-  O402  1  0.33700031  0.69277064  0.15249998  1
  O2-  O403  1  0.34956516  0.67702062  0.47744896  1
  O2-  O404  1  0.37092224  0.68947435  0.81050274  1
  O2-  O405  1  0.35636017  0.93150876  0.13348786  1
  O2-  O406  1  0.33688357  0.92223728  0.48512071  1
  O2-  O407  1  0.31523211  0.90743368  0.82696242  1
  O2-  O408  1  0.58797862  0.18812681  0.14001731  1
  O2-  O409  1  0.57633463  0.16313693  0.47539488  1
  O2-  O410  1  0.56266759  0.15879858  0.81733505  1
  O2-  O411  1  0.51906552  0.41063825  0.15855278  1
  O2-  O412  1  0.60912818  0.42231266  0.49227473  1
  O2-  O413  1  0.58322380  0.44109645  0.81051755  1
  O2-  O414  1  0.57881900  0.66511849  0.14772490  1
  O2-  O415  1  0.59060938  0.66839745  0.48143846  1
  O2-  O416  1  0.58505513  0.67064076  0.81240483  1
  O2-  O417  1  0.61044383  0.92348655  0.14763229  1
  O2-  O418  1  0.58523232  0.91811385  0.47220694  1
  O2-  O419  1  0.55074452  0.91757584  0.79243208  1
  O2-  O420  1  0.82517565  0.16931314  0.14941186  1
  O2-  O421  1  0.82550653  0.17898314  0.49060580  1
  O2-  O422  1  0.82271780  0.15254036  0.82703896  1
  O2-  O423  1  0.84325363  0.42807497  0.22271710  1
  O2-  O424  1  0.84460660  0.41595358  0.48435117  1
  O2-  O425  1  0.90978687  0.41832423  0.76204691  1
  O2-  O426  1  0.80458320  0.64347601  0.14507689  1
  O2-  O427  1  0.84041960  0.66952840  0.47813937  1
  O2-  O428  1  0.83061596  0.68748276  0.81353263  1
  O2-  O429  1  0.79621345  0.88048447  0.10647725  1
  O2-  O430  1  0.82662535  0.94968767  0.46857539  1
  O2-  O431  1  0.84821316  0.92603396  0.82391307  1
  O2-  O432  1  0.07826255  0.05135448  0.19971363  1
  O2-  O433  1  0.17587462  0.10834169  0.50563577  1
  O2-  O434  1  0.16801073  0.09240122  0.84245849  1
  O2-  O435  1  0.16139864  0.32872013  0.18309556  1
  O2-  O436  1  0.15987621  0.34291906  0.51980808  1
  O2-  O437  1  0.17182200  0.32270393  0.85131834  1
  O2-  O438  1  0.16157089  0.59848119  0.19333464  1
  O2-  O439  1  0.19163439  0.60589764  0.53215410  1
  O2-  O440  1  0.13626800  0.57239650  0.85584204  1
  O2-  O441  1  0.18153071  0.85948390  0.11469878  1
  O2-  O442  1  0.17356831  0.83200614  0.52816133  1
  O2-  O443  1  0.16300679  0.83479591  0.87341057  1
  O2-  O444  1  0.41383923  0.08831539  0.18452126  1
  O2-  O445  1  0.41266107  0.09154003  0.51747134  1
  O2-  O446  1  0.39440378  0.07011109  0.85268885  1
  O2-  O447  1  0.35362503  0.34784818  0.16041167  1
  O2-  O448  1  0.40901569  0.34277826  0.51446783  1
  O2-  O449  1  0.43554115  0.31697611  0.86346292  1
  O2-  O450  1  0.41495101  0.60821928  0.18552229  1
  O2-  O451  1  0.42346494  0.58669472  0.51861149  1
  O2-  O452  1  0.42887919  0.58304269  0.85419607  1
  O2-  O453  1  0.39688038  0.88860836  0.16700234  1
  O2-  O454  1  0.42967904  0.84475738  0.52278512  1
  O2-  O455  1  0.41024211  0.84624866  0.84943735  1
  O2-  O456  1  0.62595630  0.07717222  0.20088050  1
  O2-  O457  1  0.65821590  0.07995524  0.51371826  1
  O2-  O458  1  0.65063523  0.07427369  0.85084839  1
  O2-  O459  1  0.66000169  0.34269152  0.19732311  1
  O2-  O460  1  0.68043012  0.32721812  0.52355431  1
  O2-  O461  1  0.61922180  0.32482096  0.87621327  1
  O2-  O462  1  0.64397520  0.57088483  0.19476977  1
  O2-  O463  1  0.67883516  0.59153649  0.52595054  1
  O2-  O464  1  0.66736998  0.60572676  0.84669920  1
  O2-  O465  1  0.66354931  0.82630257  0.19483221  1
  O2-  O466  1  0.67075229  0.83776193  0.51966933  1
  O2-  O467  1  0.68778101  0.83457867  0.88403968  1
  O2-  O468  1  0.85653909  0.02858490  0.16082008  1
  O2-  O469  1  0.91861496  0.10067560  0.52114097  1
  O2-  O470  1  0.93243543  0.09433085  0.86262621  1
  O2-  O471  1  0.92660100  0.32475546  0.19124797  1
  O2-  O472  1  0.90426332  0.32229715  0.55625325  1
  O2-  O473  1  0.91013678  0.31352838  0.85622592  1
  O2-  O474  1  0.92306072  0.61072157  0.19773800  1
  O2-  O475  1  0.93172934  0.58992321  0.51365192  1
  O2-  O476  1  0.91040306  0.60582822  0.85032124  1
  O2-  O477  1  0.89961523  0.81284585  0.16889587  1
  O2-  O478  1  0.92695653  0.83723161  0.52073592  1
  O2-  O479  1  0.92549479  0.84642495  0.86599199  1
  O2-  O480  1  0.18227911  0.10848961  0.30450114  1
  O2-  O481  1  0.17973829  0.10507794  0.63184284  1
  O2-  O482  1  0.15859823  0.06636197  0.97499409  1
  O2-  O483  1  0.17930433  0.35663824  0.30137266  1
  O2-  O484  1  0.17965004  0.32978835  0.64123424  1
  O2-  O485  1  0.14583752  0.33053151  0.97649490  1
  O2-  O486  1  0.18281459  0.59658592  0.31305891  1
  O2-  O487  1  0.20547296  0.62540340  0.65689044  1
  O2-  O488  1  0.15356043  0.57525065  0.98050945  1
  O2-  O489  1  0.07512742  0.80414702  0.31166258  1
  O2-  O490  1  0.18683216  0.84034352  0.65471210  1
  O2-  O491  1  0.16085194  0.81964228  0.99965603  1
  O2-  O492  1  0.40135728  0.06228670  0.30816568  1
  O2-  O493  1  0.41964995  0.09345979  0.64214774  1
  O2-  O494  1  0.41209641  0.07986025  0.97419766  1
  O2-  O495  1  0.46741572  0.33224379  0.26621680  1
  O2-  O496  1  0.42067725  0.33967579  0.63605514  1
  O2-  O497  1  0.40468690  0.32516573  0.97693315  1
  O2-  O498  1  0.41702281  0.58237224  0.31739831  1
  O2-  O499  1  0.42856391  0.59036745  0.64234093  1
  O2-  O500  1  0.41717935  0.57021101  0.97051357  1
  O2-  O501  1  0.41374579  0.86601047  0.29503273  1
  O2-  O502  1  0.45070539  0.84884490  0.64404099  1
  O2-  O503  1  0.42606999  0.83102886  0.97140072  1
  O2-  O504  1  0.66069142  0.09127268  0.32040347  1
  O2-  O505  1  0.58480085  0.05161763  0.62134909  1
  O2-  O506  1  0.65551785  0.08413536  0.97340494  1
  O2-  O507  1  0.65384973  0.32765123  0.31845872  1
  O2-  O508  1  0.66402445  0.33745336  0.64714020  1
  O2-  O509  1  0.67085482  0.34802167  1.01663172  1
  O2-  O510  1  0.64825306  0.57068446  0.31812195  1
  O2-  O511  1  0.67426058  0.59009124  0.64887654  1
  O2-  O512  1  0.64507735  0.57473916  0.99509493  1
  O2-  O513  1  0.64915333  0.82977842  0.31450019  1
  O2-  O514  1  0.66094417  0.83227649  0.64491661  1
  O2-  O515  1  0.67705935  0.83173522  1.00670573  1
  O2-  O516  1  0.93765322  0.00349560  0.26336002  1
  O2-  O517  1  0.86084688  0.05701576  0.63509897  1
  O2-  O518  1  1.01222309  0.11930544  0.97452956  1
  O2-  O519  1  0.92259063  0.33266972  0.30802054  1
  O2-  O520  1  0.96797169  0.34640274  0.67971276  1
  O2-  O521  1  0.91028122  0.35113578  0.96856858  1
  O2-  O522  1  0.90113619  0.56955931  0.32209516  1
  O2-  O523  1  0.92998629  0.60524956  0.64059386  1
  O2-  O524  1  0.90671394  0.60034794  0.97495455  1
  O2-  O525  1  0.92234363  0.78735006  0.28835749  1
  O2-  O526  1  0.92233249  0.83765085  0.64610474  1
  O2-  O527  1  0.91161712  0.83855765  0.93253507  1
  O2-  O528  1  0.01108656  0.17838769  0.02059958  1
  O2-  O529  1  0.10989810  0.19881831  0.35752746  1
  O2-  O530  1  0.09572828  0.16562356  0.68448282  1
  O2-  O531  1  0.06329752  0.41192434  0.01568644  1
  O2-  O532  1  0.09055951  0.42759441  0.34594904  1
  O2-  O533  1  0.13625192  0.44871492  0.66967104  1
  O2-  O534  1  0.06068017  0.64831875  0.02055386  1
  O2-  O535  1  0.15747674  0.72047057  0.36267809  1
  O2-  O536  1  0.09215666  0.68058690  0.69508164  1
  O2-  O537  1  0.05726593  0.90284374  -0.00193059  1
  O2-  O538  1  0.11172256  0.95913489  0.37663865  1
  O2-  O539  1  0.08879157  0.90270960  0.69475479  1
  O2-  O540  1  0.32115446  0.15752524  0.01913257  1
  O2-  O541  1  0.35478995  0.18075111  0.33291232  1
  O2-  O542  1  0.33927862  0.17482601  0.68380821  1
  O2-  O543  1  0.32208903  0.40097486  0.01229702  1
  O2-  O544  1  0.34256116  0.42494960  0.34453762  1
  O2-  O545  1  0.34319864  0.42272172  0.68383979  1
  O2-  O546  1  0.29224057  0.69707176  0.04070351  1
  O2-  O547  1  0.34168034  0.65196201  0.35704895  1
  O2-  O548  1  0.37210141  0.69489497  0.68253563  1
  O2-  O549  1  0.35463241  0.91857541  0.01800632  1
  O2-  O550  1  0.29889233  0.89411401  0.36278993  1
  O2-  O551  1  0.36509283  0.93682323  0.68003177  1
  O2-  O552  1  0.58236321  0.17792022  0.01735689  1
  O2-  O553  1  0.56440240  0.15818909  0.35192566  1
  O2-  O554  1  0.58210117  0.17706092  0.69267724  1
  O2-  O555  1  0.56028799  0.41451836  0.03957730  1
  O2-  O556  1  0.58699213  0.41665044  0.37912839  1
  O2-  O557  1  0.58374019  0.42388170  0.68268202  1
  O2-  O558  1  0.57859555  0.66427154  0.02697179  1
  O2-  O559  1  0.57565684  0.66456157  0.35935596  1
  O2-  O560  1  0.58749644  0.66975628  0.69172161  1
  O2-  O561  1  0.58670123  0.91686951  0.02414238  1
  O2-  O562  1  0.56617506  0.92228531  0.34712674  1
  O2-  O563  1  0.54189811  0.89338603  0.66532652  1
  O2-  O564  1  0.84298643  0.13468775  0.03384544  1
  O2-  O565  1  0.81988954  0.17733168  0.36420683  1
  O2-  O566  1  0.85879998  0.17762542  0.71163987  1
  O2-  O567  1  0.83472493  0.43389201  -0.04149115  1
  O2-  O568  1  0.82279650  0.40306021  0.35820694  1
  O2-  O569  1  0.82938044  0.42874719  0.66308476  1
  O2-  O570  1  0.79588019  0.64517202  0.02474278  1
  O2-  O571  1  0.81361445  0.64827097  0.35535947  1
  O2-  O572  1  0.83801917  0.67500491  0.69247130  1
  O2-  O573  1  0.89981780  0.96211684  0.00006520  1
  O2-  O574  1  0.89033420  0.89271710  0.35847632  1
  O2-  O575  1  0.83090421  0.91206915  0.69809713  1
