# generated using pymatgen
data_H2O
_symmetry_space_group_name_H-M   'P 1'
_cell_length_a   17.99288785
_cell_length_b   17.99185738
_cell_length_c   21.99922880
_cell_angle_alpha   89.98651442
_cell_angle_beta   89.99026777
_cell_angle_gamma   119.99416487
_symmetry_Int_Tables_number   1
_chemical_formula_structural   H2O
_chemical_formula_sum   'H384 O192'
_cell_volume   6167.94451360
_cell_formula_units_Z   192
loop_
 _symmetry_equiv_pos_site_id
 _symmetry_equiv_pos_as_xyz
  1  'x, y, z'
loop_
 _atom_type_symbol
 _atom_type_oxidation_number
  H+  1.0
  O2-  -2.0
loop_
 _atom_site_type_symbol
 _atom_site_label
 _atom_site_symmetry_multiplicity
 _atom_site_fract_x
 _atom_site_fract_y
 _atom_site_fract_z
 _atom_site_occupancy
  H+  H0  1  0.37979858  0.78261545  0.65419298  1
  H+  H1  1  0.51806537  0.13604087  0.68294954  1
  H+  H2  1  0.43561419  0.05988918  0.15737633  1
  H+  H3  1  0.10450887  0.45073334  0.96787986  1
  H+  H4  1  0.11652855  0.89926299  0.69499365  1
  H+  H5  1  0.84843379  0.42454290  0.36860734  1
  H+  H6  1  0.60889237  0.50437780  0.67514020  1
  H+  H7  1  0.39105573  0.27314496  1.00553484  1
  H+  H8  1  0.12032508  0.75498287  0.15770638  1
  H+  H9  1  0.58384195  0.92362120  0.39882580  1
  H+  H10  1  0.47573821  0.61375908  0.65754575  1
  H+  H11  1  0.61685432  0.66286635  0.48986614  1
  H+  H12  1  0.60974223  0.64661324  0.67876779  1
  H+  H13  1  0.27579482  0.35905337  0.99873369  1
  H+  H14  1  0.73505408  0.85665077  -0.01987404  1
  H+  H15  1  0.40510109  0.13418147  0.83868227  1
  H+  H16  1  0.84514476  0.12795761  0.13047661  1
  H+  H17  1  0.36763987  0.14151752  0.00510157  1
  H+  H18  1  0.87357137  0.48732589  0.15989018  1
  H+  H19  1  0.03091795  0.14722674  0.18364842  1
  H+  H20  1  0.38576505  0.54056028  0.50008039  1
  H+  H21  1  0.38727877  0.64773135  0.67661847  1
  H+  H22  1  0.59332274  0.88404172  0.16235774  1
  H+  H23  1  0.51793771  0.13817102  0.48091805  1
  H+  H24  1  0.88671306  0.52142547  -0.01261951  1
  H+  H25  1  0.42587934  0.57427928  0.93657153  1
  H+  H26  1  0.10994660  0.64990316  0.68262931  1
  H+  H27  1  0.16593050  0.57446628  0.22335825  1
  H+  H28  1  0.85927144  0.12202927  0.67365734  1
  H+  H29  1  0.84213034  0.42533958  0.06857898  1
  H+  H30  1  0.53635089  0.15818312  0.82918753  1
  H+  H31  1  0.92779750  0.35406654  0.59007086  1
  H+  H32  1  0.88214658  0.86074376  0.50838236  1
  H+  H33  1  0.35149902  0.39213786  0.66629705  1
  H+  H34  1  0.86624781  0.40159169  0.52295985  1
  H+  H35  1  0.22777592  0.36089363  0.82561144  1
  H+  H36  1  0.37594645  0.47871225  0.82827063  1
  H+  H37  1  0.47158603  0.38790652  0.66205717  1
  H+  H38  1  0.87465996  0.74721181  0.48818830  1
  H+  H39  1  0.85573572  0.13451549  -0.00695527  1
  H+  H40  1  0.47448809  0.87159455  0.49936706  1
  H+  H41  1  0.36604768  0.47429018  0.17045835  1
  H+  H42  1  0.52306400  0.65312547  0.48934306  1
  H+  H43  1  0.65393981  0.29294189  0.16667614  1
  H+  H44  1  0.87889818  0.39585474  0.83512639  1
  H+  H45  1  0.61536822  0.44823492  0.48699193  1
  H+  H46  1  -0.02897076  0.38179381  0.84118613  1
  H+  H47  1  0.14130052  0.09468624  0.83419423  1
  H+  H48  1  0.38090428  0.22560499  0.34856296  1
  H+  H49  1  0.90491183  0.07599980  0.92840384  1
  H+  H50  1  0.89097301  0.53487562  0.31268216  1
  H+  H51  1  -0.03590872  0.09974740  -0.01203680  1
  H+  H52  1  0.85740989  0.74253927  0.66773859  1
  H+  H53  1  0.39595576  0.36163533  0.50123310  1
  H+  H54  1  0.42081690  0.33297953  0.94572425  1
  H+  H55  1  0.02333348  0.62851498  0.33604903  1
  H+  H56  1  0.62125472  0.89638578  0.82084764  1
  H+  H57  1  0.32877382  0.94775763  0.16226935  1
  H+  H58  1  0.60010221  0.73021410  0.67585737  1
  H+  H59  1  0.61262546  0.97969333  0.48726222  1
  H+  H60  1  0.61494415  0.47958315  0.34572689  1
  H+  H61  1  0.59820483  0.63508909  0.82917252  1
  H+  H62  1  0.58396023  0.16829149  -0.08256058  1
  H+  H63  1  0.62730927  0.77515606  0.83681279  1
  H+  H64  1  0.23868484  0.11486913  0.52129280  1
  H+  H65  1  0.52371260  0.90584768  0.34112986  1
  H+  H66  1  0.15067711  0.06801619  0.32409211  1
  H+  H67  1  0.48534159  0.35995488  0.32747196  1
  H+  H68  1  0.90664914  0.28394347  0.51515699  1
  H+  H69  1  0.13584938  0.01559144  0.15648022  1
  H+  H70  1  0.38393900  0.78209901  0.49565014  1
  H+  H71  1  0.23068668  0.86129083  -0.03557514  1
  H+  H72  1  0.30783418  0.12820890  0.34396093  1
  H+  H73  1  0.88170265  0.73047185  0.82027194  1
  H+  H74  1  0.86947837  0.97369162  0.50385981  1
  H+  H75  1  0.10522965  0.38999230  0.67390975  1
  H+  H76  1  0.54063381  0.63415180  0.00689136  1
  H+  H77  1  0.67756106  0.34746734  0.22914099  1
  H+  H78  1  0.11044810  0.13755378  0.16278722  1
  H+  H79  1  0.84307134  0.86462258  0.67769852  1
  H+  H80  1  0.89214141  0.22416801  0.33522178  1
  H+  H81  1  0.61205187  0.36012630  0.49314198  1
  H+  H82  1  0.76129866  0.64188090  0.34581365  1
  H+  H83  1  0.73135113  0.62176469  0.67144051  1
  H+  H84  1  0.61106529  0.62524961  0.16894888  1
  H+  H85  1  0.85390380  0.06286336  0.21803552  1
  H+  H86  1  0.61967615  0.74223814  0.33528623  1
  H+  H87  1  0.12059092  0.48695455  0.49353516  1
  H+  H88  1  0.98561779  0.86795811  0.81360282  1
  H+  H89  1  0.33181652  0.43429057  0.42520852  1
  H+  H90  1  0.62574776  0.86350606  0.66236853  1
  H+  H91  1  0.89176902  0.14160116  0.51969502  1
  H+  H92  1  0.02619149  0.64136386  -0.00691591  1
  H+  H93  1  0.11253099  0.73363564  -0.01234547  1
  H+  H94  1  0.36768719  0.22142497  0.50120298  1
  H+  H95  1  0.89146672  0.38856062  0.65410797  1
  H+  H96  1  0.21329111  0.15910582  0.29989900  1
  H+  H97  1  0.14463242  0.01492152  0.98597981  1
  H+  H98  1  0.38029490  0.35216811  0.85870063  1
  H+  H99  1  -0.02185200  0.63179413  0.50477189  1
  H+  H100  1  0.14949269  0.03909721  0.68317361  1
  H+  H101  1  0.06911770  0.45958074  -0.02316610  1
  H+  H102  1  -0.01108927  0.37862696  0.50340460  1
  H+  H103  1  0.86766801  0.91441827  0.34042904  1
  H+  H104  1  0.63915817  0.82097425  0.23969813  1
  H+  H105  1  0.72637799  0.36381657  0.52804780  1
  H+  H106  1  0.86456533  0.13364283  0.82265013  1
  H+  H107  1  0.11416740  0.64372634  0.49533608  1
  H+  H108  1  0.73711102  0.09890469  0.49382933  1
  H+  H109  1  0.15051589  0.29470304  0.32537303  1
  H+  H110  1  0.89617235  0.16211940  0.21272196  1
  H+  H111  1  0.25633447  0.88183735  0.84139914  1
  H+  H112  1  0.13253405  0.52961831  0.66142926  1
  H+  H113  1  0.21714203  0.60807198  0.83373549  1
  H+  H114  1  0.27627131  0.47256478  0.44709503  1
  H+  H115  1  0.47627321  0.11068126  0.98206408  1
  H+  H116  1  0.22799530  0.10864317  -0.01345825  1
  H+  H117  1  0.66184774  0.58773087  0.27966957  1
  H+  H118  1  0.64860561  0.76889509  -0.01313599  1
  H+  H119  1  0.76925315  0.38242217  0.01916280  1
  H+  H120  1  0.38128986  0.52754140  0.65406914  1
  H+  H121  1  0.30389278  0.40601279  0.33452153  1
  H+  H122  1  0.12269997  0.84798330  0.16286807  1
  H+  H123  1  0.11285676  0.47366318  0.13959138  1
  H+  H124  1  0.50870505  0.88956890  0.16586634  1
  H+  H125  1  0.64482445  0.27851172  1.06386516  1
  H+  H126  1  0.63344807  0.78532228  0.50716485  1
  H+  H127  1  0.27914799  0.13588624  0.82768744  1
  H+  H128  1  0.12969974  0.97490348  0.79873711  1
  H+  H129  1  0.83269642  0.16141675  0.72763505  1
  H+  H130  1  0.39689651  0.60415065  0.99732256  1
  H+  H131  1  0.87198602  0.49686647  0.82462609  1
  H+  H132  1  0.89847861  0.35535302  0.31563166  1
  H+  H133  1  0.21201822  0.36456917  0.66019650  1
  H+  H134  1  0.15523386  0.64786020  0.98695298  1
  H+  H135  1  0.64408560  0.51040655  0.17785374  1
  H+  H136  1  0.97888454  0.62217218  0.16257699  1
  H+  H137  1  0.03382181  0.88838626  -0.00730982  1
  H+  H138  1  0.14138259  0.27983150  0.16620291  1
  H+  H139  1  0.48107606  0.35580338  0.50483545  1
  H+  H140  1  0.35858695  0.92756691  0.83479663  1
  H+  H141  1  0.64562280  0.28395500  0.82881238  1
  H+  H142  1  0.11175164  0.64865444  0.83202834  1
  H+  H143  1  0.38411990  1.02415789  -0.00989774  1
  H+  H144  1  0.97840063  0.61827000  0.84089808  1
  H+  H145  1  0.21798956  0.36795231  0.50820756  1
  H+  H146  1  0.09113586  0.19363612  0.99352052  1
  H+  H147  1  0.74180549  0.11138433  0.32035824  1
  H+  H148  1  0.89540227  0.36719599  0.17207290  1
  H+  H149  1  0.10166922  0.39515716  0.82778770  1
  H+  H150  1  0.64708871  0.03099666  0.32338130  1
  H+  H151  1  0.37895981  0.59242158  0.84604106  1
  H+  H152  1  0.51683777  0.38164059  0.83100609  1
  H+  H153  1  0.65813867  0.83428475  0.60457362  1
  H+  H154  1  0.09767543  0.60624752  0.34621078  1
  H+  H155  1  0.14781737  0.02891738  0.53127474  1
  H+  H156  1  0.09983013  0.11075515  0.99249860  1
  H+  H157  1  0.26888904  0.88594759  0.51000948  1
  H+  H158  1  0.17572170  0.34959330  0.21863294  1
  H+  H159  1  0.54036554  0.91125591  0.82473849  1
  H+  H160  1  0.60174258  0.97239214  0.00618988  1
  H+  H161  1  0.89514168  0.86248334  0.82751414  1
  H+  H162  1  0.87028341  0.64511964  0.14952429  1
  H+  H163  1  0.96952992  0.09337735  0.84109074  1
  H+  H164  1  0.42041501  0.50113845  0.02003504  1
  H+  H165  1  0.38351055  -0.05724379  0.32306729  1
  H+  H166  1  0.22768511  0.62261705  0.50429801  1
  H+  H167  1  0.81994856  0.16595249  0.04885435  1
  H+  H168  1  0.02375409  0.88033081  0.14785187  1
  H+  H169  1  0.73354780  0.10938882  0.64736984  1
  H+  H170  1  0.88966027  0.62268900  0.32364059  1
  H+  H171  1  0.86370616  0.97470495  -0.01001225  1
  H+  H172  1  0.65089427  0.28094442  0.31811197  1
  H+  H173  1  0.98198673  0.37915354  0.65646182  1
  H+  H174  1  0.91024413  0.87511575  -0.02664487  1
  H+  H175  1  0.64484606  0.12387376  0.83264116  1
  H+  H176  1  0.10139916  0.62440993  0.14887635  1
  H+  H177  1  0.15327968  0.56030434  0.98555592  1
  H+  H178  1  0.64891858  0.51827359  0.99429913  1
  H+  H179  1  0.63262613  0.62724431  0.33453621  1
  H+  H180  1  0.38829935  0.35778607  0.17709589  1
  H+  H181  1  0.61522002  0.38887640  0.16059669  1
  H+  H182  1  0.82523808  0.90597702  0.76877231  1
  H+  H183  1  0.28591879  0.56845702  0.05223271  1
  H+  H184  1  0.97294217  0.33583950  1.02013556  1
  H+  H185  1  0.13607844  0.27397427  0.51357693  1
  H+  H186  1  0.85949521  0.48648768  0.52263626  1
  H+  H187  1  0.85033879  0.73244909  0.33754790  1
  H+  H188  1  0.77868783  0.56697941  0.70840451  1
  H+  H189  1  0.35262153  0.69513013  0.83778012  1
  H+  H190  1  0.61513845  0.12831480  0.96853317  1
  H+  H191  1  0.17371473  0.06369506  0.89017719  1
  H+  H192  1  0.43365994  0.08942614  0.33357211  1
  H+  H193  1  0.87766388  1.00817418  0.83933349  1
  H+  H194  1  0.90346922  0.99585679  0.12846321  1
  H+  H195  1  0.80590961  0.93049102  0.13972881  1
  H+  H196  1  0.10340955  0.48472849  0.82981363  1
  H+  H197  1  0.22112699  0.29899215  0.28264582  1
  H+  H198  1  0.17534079  0.33481343  0.97564727  1
  H+  H199  1  0.65086130  0.56833023  0.52205449  1
  H+  H200  1  0.91983109  0.61150773  0.56559315  1
  H+  H201  1  0.28050014  0.63509276  0.01077229  1
  H+  H202  1  0.72909325  0.88439944  0.32650926  1
  H+  H203  1  0.27901034  0.38727547  0.15294298  1
  H+  H204  1  0.10248691  0.91210338  0.35764702  1
  H+  H205  1  0.36349689  0.64805185  0.49188238  1
  H+  H206  1  0.38208418  0.10389952  0.51228167  1
  H+  H207  1  0.87498874  0.65065074  0.48822187  1
  H+  H208  1  0.89252229  0.86682092  0.16503088  1
  H+  H209  1  0.47462420  0.60127997  0.18510243  1
  H+  H210  1  0.34920457  0.89142205  0.67695193  1
  H+  H211  1  0.48102305  0.87558183  0.99697170  1
  H+  H212  1  0.64210972  0.02612980  0.64269876  1
  H+  H213  1  0.65043508  0.60896578  0.99790998  1
  H+  H214  1  0.36309073  0.88699150  0.49984429  1
  H+  H215  1  0.18195724  0.54623486  0.32220745  1
  H+  H216  1  0.63206223  0.15357596  0.33027360  1
  H+  H217  1  0.63153005  0.02804123  0.16847713  1
  H+  H218  1  1.03903940  0.42611660  0.33416000  1
  H+  H219  1  0.36286955  0.22182913  0.16133166  1
  H+  H220  1  0.88432702  0.00645252  0.66674929  1
  H+  H221  1  0.54887037  0.17157092  0.14687693  1
  H+  H222  1  0.13118257  0.82369763  0.31080248  1
  H+  H223  1  0.64583604  0.03462332  0.82704779  1
  H+  H224  1  0.76906442  0.62145415  0.99732598  1
  H+  H225  1  0.71877792  0.10226311  0.98158812  1
  H+  H226  1  0.40350011  0.12669756  0.16821865  1
  H+  H227  1  0.76170987  0.87875869  0.67708584  1
  H+  H228  1  0.07947290  0.15219733  0.34973737  1
  H+  H229  1  0.97489214  0.62936635  0.66010794  1
  H+  H230  1  0.11643169  0.88665898  0.51688207  1
  H+  H231  1  0.60223436  0.22854771  0.48402800  1
  H+  H232  1  0.76144318  0.13380252  0.14838178  1
  H+  H233  1  0.21878308  0.87176153  0.66838547  1
  H+  H234  1  0.60938975  0.39179630  0.81957814  1
  H+  H235  1  0.47659154  0.35757814  0.17448586  1
  H+  H236  1  0.25751940  0.35309214  0.03060265  1
  H+  H237  1  0.58745698  0.36681396  0.65596987  1
  H+  H238  1  0.72362961  0.54506782  0.22065466  1
  H+  H239  1  0.11108720  0.73560693  0.84698544  1
  H+  H240  1  0.38262475  0.39129484  0.34406224  1
  H+  H241  1  0.14203502  0.40224866  0.13810072  1
  H+  H242  1  0.13653051  0.73541160  0.30858948  1
  H+  H243  1  -0.00885585  0.10300889  0.51919693  1
  H+  H244  1  0.37641873  0.02516256  0.66737352  1
  H+  H245  1  0.84163718  0.16728923  0.56436947  1
  H+  H246  1  0.06683745  0.51902496  0.21826212  1
  H+  H247  1  0.83726479  0.67980976  0.42099487  1
  H+  H248  1  0.76877325  0.87665106  0.82916993  1
  H+  H249  1  0.36977324  0.24234374  0.67717899  1
  H+  H250  1  0.22035394  0.61745447  0.66208403  1
  H+  H251  1  0.36355219  0.98505957  0.50937433  1
  H+  H252  1  0.36250804  0.88988853  0.99756464  1
  H+  H253  1  0.78444739  0.39944101  0.16079463  1
  H+  H254  1  0.40042281  0.84012242  0.83315139  1
  H+  H255  1  0.64148676  0.32227218  0.57031338  1
  H+  H256  1  0.37335467  0.85280589  0.17545122  1
  H+  H257  1  0.88850637  0.62097774  0.83526875  1
  H+  H258  1  -0.02639871  0.09754095  0.67012262  1
  H+  H259  1  0.77865707  0.63748904  0.14912787  1
  H+  H260  1  0.51530926  0.89493132  0.66841344  1
  H+  H261  1  0.78317445  0.39633837  0.31476824  1
  H+  H262  1  0.47549254  0.60792094  0.84108972  1
  H+  H263  1  0.41888140  0.40401295  0.02373082  1
  H+  H264  1  0.38200953  0.76952156  0.18363117  1
  H+  H265  1  -0.03801819  0.84862109  0.31829858  1
  H+  H266  1  0.88639047  0.27615343  0.16420207  1
  H+  H267  1  0.13815885  0.77742311  0.51667689  1
  H+  H268  1  0.87147593  0.35987190  0.99490775  1
  H+  H269  1  0.74059357  0.64680370  0.50566516  1
  H+  H270  1  0.72385958  0.87108015  0.51347017  1
  H+  H271  1  0.14543047  0.31638709  0.78578846  1
  H+  H272  1  0.64969818  0.37101810  0.32122606  1
  H+  H273  1  0.60340780  0.88754135  0.49359207  1
  H+  H274  1  0.13146344  0.14198182  0.50791638  1
  H+  H275  1  0.61844588  0.37854551  0.01981636  1
  H+  H276  1  0.88476808  0.77446920  0.16381355  1
  H+  H277  1  0.36162053  0.63828508  0.17546156  1
  H+  H278  1  0.10409941  0.22460410  0.67942694  1
  H+  H279  1  0.38484324  0.11826870  0.66448147  1
  H+  H280  1  0.78038230  0.40350039  0.81786166  1
  H+  H281  1  0.86268076  0.26552766  0.98163969  1
  H+  H282  1  0.05158031  0.31550393  0.01419685  1
  H+  H283  1  0.11514439  0.39469169  0.49065398  1
  H+  H284  1  0.97280020  0.86116660  0.51773019  1
  H+  H285  1  0.52288087  0.27945737  0.62501527  1
  H+  H286  1  0.61894134  0.52344121  0.83905986  1
  H+  H287  1  0.87541562  0.49094151  0.66317961  1
  H+  H288  1  0.54534840  0.76862360  0.21669698  1
  H+  H289  1  0.41340339  0.57666464  0.24315215  1
  H+  H290  1  0.08022977  0.15296704  0.77240864  1
  H+  H291  1  0.41553308  0.34572536  0.60182659  1
  H+  H292  1  0.90661335  0.35111470  0.90168645  1
  H+  H293  1  0.34389287  0.18175199  0.77158843  1
  H+  H294  1  0.92672077  0.06806180  0.57699944  1
  H+  H295  1  0.66270539  0.07030183  0.92131614  1
  H+  H296  1  0.83229303  0.34189006  0.42764874  1
  H+  H297  1  0.15412934  0.79982557  0.24186717  1
  H+  H298  1  0.11309359  0.30664506  0.91964494  1
  H+  H299  1  0.43426796  0.86972934  0.90084359  1
  H+  H300  1  0.32088740  0.42326702  0.72431256  1
  H+  H301  1  0.38395275  0.26587684  0.85131288  1
  H+  H302  1  0.16820699  0.59281419  0.56449778  1
  H+  H303  1  0.41828457  0.59452825  0.56220954  1
  H+  H304  1  0.58320250  0.68389340  0.39381606  1
  H+  H305  1  0.78385905  0.14535870  0.82327895  1
  H+  H306  1  0.94587793  0.84680902  0.91695675  1
  H+  H307  1  0.91733678  0.12249630  0.29847313  1
  H+  H308  1  0.08320197  0.66289060  0.08623772  1
  H+  H309  1  0.11092188  0.20101016  0.83563968  1
  H+  H310  1  0.16908125  0.07260086  0.21655071  1
  H+  H311  1  0.36384872  0.57936180  0.36126151  1
  H+  H312  1  0.11739968  0.14264625  0.68213871  1
  H+  H313  1  0.63830653  0.88182843  0.32555841  1
  H+  H314  1  0.91430106  0.58044958  0.92553427  1
  H+  H315  1  0.31527361  0.91591206  0.73809161  1
  H+  H316  1  0.27566571  0.13008621  0.15546748  1
  H+  H317  1  0.63569225  0.26063957  0.99492726  1
  H+  H318  1  0.07385356  0.42273201  0.73195461  1
  H+  H319  1  0.33992221  0.66964978  0.11487406  1
  H+  H320  1  0.86879699  0.62547120  0.99578077  1
  H+  H321  1  0.92510390  0.60273010  0.22532414  1
  H+  H322  1  0.67691946  0.62019951  0.61106398  1
  H+  H323  1  0.04900743  0.82018731  0.38516388  1
  H+  H324  1  0.63107093  0.16160841  0.14372332  1
  H+  H325  1  0.32309267  0.65434494  0.43046616  1
  H+  H326  1  0.66355430  0.83247928  0.89653188  1
  H+  H327  1  0.14980161  0.33181506  0.60355940  1
  H+  H328  1  0.41101396  0.07586165  0.57391430  1
  H+  H329  1  0.67371945  0.09095617  0.22506671  1
  H+  H330  1  0.39666519  0.41830467  0.78712536  1
  H+  H331  1  0.88785927  0.80104884  0.60920760  1
  H+  H332  1  0.84640706  0.91094272  0.04467061  1
  H+  H333  1  0.08158755  0.68160842  0.74200743  1
  H+  H334  1  0.40574900  0.83935664  0.59404586  1
  H+  H335  1  0.83843271  0.66019203  0.76648472  1
  H+  H336  1  0.59121007  0.18174212  0.76756648  1
  H+  H337  1  0.83238318  0.91928040  0.44290371  1
  H+  H338  1  0.42109073  0.32586790  0.27083112  1
  H+  H339  1  0.25045458  0.85854632  0.15101260  1
  H+  H340  1  0.09615460  0.93437103  0.46416952  1
  H+  H341  1  0.59360391  0.65786168  0.06835441  1
  H+  H342  1  0.08874949  0.67498977  0.43559797  1
  H+  H343  1  0.05947903  0.37821545  0.07593364  1
  H+  H344  1  0.33992300  0.65752256  0.77130844  1
  H+  H345  1  0.28226478  0.15263037  0.68286364  1
  H+  H346  1  0.58749713  0.40586937  0.39629783  1
  H+  H347  1  0.67779677  0.07871209  0.55111055  1
  H+  H348  1  0.40747562  0.84358059  0.27274953  1
  H+  H349  1  0.83815059  0.66138387  0.05770653  1
  H+  H350  1  0.65946816  0.58512765  0.89590245  1
  H+  H351  1  0.59895169  0.70695753  0.16814871  1
  H+  H352  1  0.09637176  0.17238536  0.45003963  1
  H+  H353  1  0.17038588  0.59934169  0.89634685  1
  H+  H354  1  0.57944516  0.92369635  0.72639188  1
  H+  H355  1  0.56746471  0.66493418  0.76891313  1
  H+  H356  1  0.57473124  0.43880988  0.73343640  1
  H+  H357  1  0.16358331  0.83438132  0.57987613  1
  H+  H358  1  0.58951290  0.18117891  0.38332779  1
  H+  H359  1  0.38501231  0.43985930  0.08642861  1
  H+  H360  1  0.17706495  0.09129906  0.61941277  1
  H+  H361  1  0.56585771  0.92062725  0.06960276  1
  H+  H362  1  0.42603435  0.07025161  0.26415696  1
  H+  H363  1  0.93220882  0.32888988  0.25922153  1
  H+  H364  1  0.86330888  1.00014742  0.35443802  1
  H+  H365  1  0.08540845  0.90559541  0.08822837  1
  H+  H366  1  0.12080463  0.88456050  -0.00827591  1
  H+  H367  1  0.34068843  0.16250563  0.44179721  1
  H+  H368  1  0.39188711  0.78611135  0.98042247  1
  H+  H369  1  0.08837177  0.45738609  0.39644740  1
  H+  H370  1  0.67738699  0.35079561  0.88415480  1
  H+  H371  1  0.43902700  0.73378823  0.71254683  1
  H+  H372  1  0.90353629  0.83030145  0.26064322  1
  H+  H373  1  0.42620115  0.09803806  0.89760176  1
  H+  H374  1  0.33525522  0.16593478  0.06557840  1
  H+  H375  1  0.01604085  0.18168972  0.36791954  1
  H+  H376  1  0.85123323  0.43279031  0.72349575  1
  H+  H377  1  0.53327396  0.38425853  0.00916687  1
  H+  H378  1  0.12888026  0.78347214  0.67036615  1
  H+  H379  1  0.87767651  0.61477072  0.65939925  1
  H+  H380  1  0.79213084  0.34526572  0.42991439  1
  H+  H381  1  0.58436496  0.41944613  0.10217366  1
  H+  H382  1  0.59211359  0.23087128  0.67915164  1
  H+  H383  1  0.31904904  0.90967814  0.05362709  1
  O2-  O384  1  0.08469434  0.17508900  0.16085993  1
  O2-  O385  1  0.09710736  0.16921530  0.49485558  1
  O2-  O386  1  0.08083002  0.14360352  0.81760531  1
  O2-  O387  1  0.12255076  0.43540802  0.11197756  1
  O2-  O388  1  0.08951195  0.42867210  0.47451090  1
  O2-  O389  1  0.07032468  0.42389993  0.81386843  1
  O2-  O390  1  0.07844979  0.66029586  0.13171370  1
  O2-  O391  1  0.08590048  0.67663266  0.48049439  1
  O2-  O392  1  0.08165613  0.68050141  0.82167722  1
  O2-  O393  1  0.08455196  0.90623626  0.13445172  1
  O2-  O394  1  0.08512902  0.91941534  0.50706825  1
  O2-  O395  1  0.09407602  0.91778675  0.77839467  1
  O2-  O396  1  0.33798089  0.16236328  0.14448275  1
  O2-  O397  1  0.33637805  0.16058031  0.48780489  1
  O2-  O398  1  0.34093022  0.17741062  0.81699269  1
  O2-  O399  1  0.34338938  0.41864127  0.14772464  1
  O2-  O400  1  0.30843056  0.44665757  0.46390420  1
  O2-  O401  1  0.34882987  0.41967016  0.80730410  1
  O2-  O402  1  0.33599641  0.67152953  0.15933433  1
  O2-  O403  1  0.32932635  0.67255878  0.47358844  1
  O2-  O404  1  0.32287784  0.64129362  0.81524300  1
  O2-  O405  1  0.31256232  0.89507890  0.13980512  1
  O2-  O406  1  0.32914053  0.91909391  0.49280231  1
  O2-  O407  1  0.30576124  0.91048172  0.81211026  1
  O2-  O408  1  0.60848626  0.19932741  0.13067418  1
  O2-  O409  1  0.56039769  0.18529245  0.45579676  1
  O2-  O410  1  0.59835981  0.18713942  0.81414039  1
  O2-  O411  1  0.58143606  0.41743313  0.14777440  1
  O2-  O412  1  0.57922422  0.38888031  0.47444452  1
  O2-  O413  1  0.57263262  0.41713281  0.80990077  1
  O2-  O414  1  0.57617712  0.64750825  0.15126368  1
  O2-  O415  1  0.58285082  0.68758908  0.47301345  1
  O2-  O416  1  0.56524898  0.66425975  0.81442087  1
  O2-  O417  1  0.56919694  0.92023625  0.14935107  1
  O2-  O418  1  0.57345860  0.91616902  0.47542130  1
  O2-  O419  1  0.59585560  0.93041061  0.80329776  1
  O2-  O420  1  0.82168163  0.16649808  0.12954779  1
  O2-  O421  1  0.86255562  0.17653215  0.52241656  1
  O2-  O422  1  0.84292342  0.17082676  0.80695023  1
  O2-  O423  1  0.84519831  0.42677194  0.14560335  1
  O2-  O424  1  0.82982990  0.42583819  0.53473397  1
  O2-  O425  1  0.84357548  0.43373375  0.80801243  1
  O2-  O426  1  0.83707582  0.67154469  0.13146249  1
  O2-  O427  1  0.84369685  0.68277388  0.46961682  1
  O2-  O428  1  0.85037525  0.66761438  0.81140485  1
  O2-  O429  1  0.86068987  0.93487851  0.12913492  1
  O2-  O430  1  0.83406209  0.91308942  0.48766490  1
  O2-  O431  1  0.82955702  0.90644847  0.81429088  1
  O2-  O432  1  0.16570266  0.07601669  0.17190876  1
  O2-  O433  1  0.18055572  0.09111729  0.54081520  1
  O2-  O434  1  0.17647353  0.06777026  0.84458632  1
  O2-  O435  1  0.17596091  0.34402359  0.17374662  1
  O2-  O436  1  0.15933638  0.33547707  0.52567233  1
  O2-  O437  1  0.16446027  0.33227916  0.82786681  1
  O2-  O438  1  0.11788000  0.55153487  0.19309873  1
  O2-  O439  1  0.16673337  0.59196797  0.51931937  1
  O2-  O440  1  0.15930140  0.58626135  0.85202246  1
  O2-  O441  1  0.14981903  0.81343854  0.17821542  1
  O2-  O442  1  0.16814282  0.83714598  0.53345793  1
  O2-  O443  1  0.16751390  0.82622316  0.88512564  1
  O2-  O444  1  0.44694605  0.10994775  0.18141684  1
  O2-  O445  1  0.40832861  0.06964798  0.52801412  1
  O2-  O446  1  0.44159563  0.11124803  0.85409091  1
  O2-  O447  1  0.41648668  0.32504265  0.19054821  1
  O2-  O448  1  0.42188366  0.33263636  0.52256046  1
  O2-  O449  1  0.41506346  0.32608945  0.87015722  1
  O2-  O450  1  0.41344698  0.57405869  0.19882967  1
  O2-  O451  1  0.42020361  0.59975538  0.51691254  1
  O2-  O452  1  0.41533406  0.56851632  0.85994343  1
  O2-  O453  1  0.40946474  0.83239350  0.19512147  1
  O2-  O454  1  0.41229613  0.84068394  0.51413596  1
  O2-  O455  1  0.44413803  0.88759800  0.85669459  1
  O2-  O456  1  0.66907381  0.08997067  0.17956513  1
  O2-  O457  1  0.67655508  0.07381477  0.50499259  1
  O2-  O458  1  0.67286696  0.09169265  0.84801387  1
  O2-  O459  1  0.67960227  0.35291838  0.18324715  1
  O2-  O460  1  0.66170449  0.32634994  0.52770227  1
  O2-  O461  1  0.67650569  0.34882442  0.83986503  1
  O2-  O462  1  0.68897658  0.56486229  0.19933512  1
  O2-  O463  1  0.68471802  0.63047063  0.52501792  1
  O2-  O464  1  0.64103664  0.58292189  0.85356333  1
  O2-  O465  1  0.60421622  0.79560029  0.20136685  1
  O2-  O466  1  0.66303882  0.84322947  0.52691718  1
  O2-  O467  1  0.66197295  0.83575325  0.85032529  1
  O2-  O468  1  0.90939498  0.11592712  0.21881703  1
  O2-  O469  1  0.92942707  0.07134590  0.53085199  1
  O2-  O470  1  0.90922769  0.06925055  0.85449800  1
  O2-  O471  1  0.92186741  0.33225851  0.18394807  1
  O2-  O472  1  0.93029772  0.34699693  0.52240134  1
  O2-  O473  1  0.91079712  0.36082319  0.85616888  1
  O2-  O474  1  0.91977986  0.59735166  0.18011588  1
  O2-  O475  1  0.91818918  0.61125098  0.51906228  1
  O2-  O476  1  0.91591580  0.58409832  0.85265899  1
  O2-  O477  1  0.91695106  0.83282665  0.18253538  1
  O2-  O478  1  0.90908292  0.82453149  0.52023365  1
  O2-  O479  1  0.93222712  0.83743654  0.83774505  1
  O2-  O480  1  0.19817154  0.09913182  0.29589108  1
  O2-  O481  1  0.17762677  0.09782471  0.66456072  1
  O2-  O482  1  0.17037121  0.07411558  0.96792781  1
  O2-  O483  1  0.19614203  0.33325674  0.29654634  1
  O2-  O484  1  0.14976717  0.33256642  0.64921981  1
  O2-  O485  1  0.11443152  0.30366475  0.96406437  1
  O2-  O486  1  0.21854091  0.59784162  0.29586260  1
  O2-  O487  1  0.16189017  0.59042684  0.64640353  1
  O2-  O488  1  0.19045039  0.62060286  0.97373516  1
  O2-  O489  1  0.16074688  0.79591552  0.28986208  1
  O2-  O490  1  0.15764254  0.84302662  0.65298899  1
  O2-  O491  1  0.16869958  0.82732488  0.95243416  1
  O2-  O492  1  0.40184182  0.04404733  0.30386764  1
  O2-  O493  1  0.41025493  0.08380973  0.64885443  1
  O2-  O494  1  0.41326524  0.08598184  0.97788338  1
  O2-  O495  1  0.42308115  0.32753809  0.31619052  1
  O2-  O496  1  0.41132515  0.34919213  0.64677031  1
  O2-  O497  1  0.42608732  0.33545297  0.99138442  1
  O2-  O498  1  0.30919872  0.57894354  0.36584182  1
  O2-  O499  1  0.41544407  0.58854660  0.64042442  1
  O2-  O500  1  0.43257925  0.57991146  0.98208974  1
  O2-  O501  1  0.41825592  0.85516235  0.31739257  1
  O2-  O502  1  0.40376477  0.84184502  0.63940966  1
  O2-  O503  1  0.42061728  0.84770093  0.97353401  1
  O2-  O504  1  0.68336144  0.08860167  0.30383485  1
  O2-  O505  1  0.67884461  0.08226027  0.62354810  1
  O2-  O506  1  0.65800882  0.06933487  0.96717768  1
  O2-  O507  1  0.68105147  0.34386904  0.30300380  1
  O2-  O508  1  0.58334824  0.31487742  0.63552089  1
  O2-  O509  1  0.65950584  0.30976341  1.02467791  1
  O2-  O510  1  0.66204463  0.59175270  0.32438791  1
  O2-  O511  1  0.66907079  0.60696958  0.65468380  1
  O2-  O512  1  0.68070114  0.57944273  0.98007786  1
  O2-  O513  1  0.67020620  0.85306268  0.30950234  1
  O2-  O514  1  0.65480005  0.83041914  0.65004449  1
  O2-  O515  1  0.67333737  0.82631228  0.96867586  1
  O2-  O516  1  0.91101297  0.12287806  0.34367829  1
  O2-  O517  1  0.91658758  0.06643158  0.65008848  1
  O2-  O518  1  0.90303075  0.07856240  0.97433476  1
  O2-  O519  1  0.93385228  0.32933545  0.30516410  1
  O2-  O520  1  0.92325880  0.35493235  0.63733960  1
  O2-  O521  1  0.89997356  0.32961704  0.97515124  1
  O2-  O522  1  0.92365791  0.59901698  0.30520165  1
  O2-  O523  1  0.91877012  0.59741636  0.63881407  1
  O2-  O524  1  0.91674738  0.58183814  0.97209342  1
  O2-  O525  1  0.90285929  0.83150655  0.30632814  1
  O2-  O526  1  0.88210481  0.80189355  0.65346937  1
  O2-  O527  1  0.94578816  0.84921286  0.96217327  1
  O2-  O528  1  0.06394930  0.13441680  0.00834452  1
  O2-  O529  1  0.07818195  0.19880643  0.37144764  1
  O2-  O530  1  0.08073641  0.16635917  0.69733382  1
  O2-  O531  1  0.01562591  0.32563515  0.04460949  1
  O2-  O532  1  0.08485210  0.47734239  0.35496660  1
  O2-  O533  1  0.07765679  0.42455346  0.68675792  1
  O2-  O534  1  0.08624651  0.67596121  0.00856586  1
  O2-  O535  1  0.08443375  0.65307867  0.34973820  1
  O2-  O536  1  0.08005279  0.68035259  0.69642820  1
  O2-  O537  1  0.09350408  0.91323812  0.01306196  1
  O2-  O538  1  0.06536767  0.85184217  0.34670815  1
  O2-  O539  1  0.09709584  0.93779179  0.71332070  1
  O2-  O540  1  0.33707526  0.17181360  0.02034742  1
  O2-  O541  1  0.35725950  0.16818802  0.36829215  1
  O2-  O542  1  0.34497340  0.18322135  0.69367208  1
  O2-  O543  1  0.42341155  0.45653918  0.04763124  1
  O2-  O544  1  0.35838002  0.42816001  0.35681293  1
  O2-  O545  1  0.31920765  0.42212460  0.67947925  1
  O2-  O546  1  0.32252176  0.62511402  0.03435091  1
  O2-  O547  1  0.30524171  0.61437579  0.30384337  1
  O2-  O548  1  0.37984562  0.69130808  0.70199822  1
  O2-  O549  1  0.32670119  0.91639424  0.00911491  1
  O2-  O550  1  0.35725282  0.88144229  0.33665208  1
  O2-  O551  1  0.31908571  0.92123649  0.69224736  1
  O2-  O552  1  0.58682200  0.16481768  -0.03834738  1
  O2-  O553  1  0.60183172  0.18559479  0.33868047  1
  O2-  O554  1  0.57699877  0.17535340  0.69779278  1
  O2-  O555  1  0.59353601  0.41707086  0.02467590  1
  O2-  O556  1  0.59038368  0.41670699  0.35164246  1
  O2-  O557  1  0.57180951  0.44254880  0.68822418  1
  O2-  O558  1  0.59949949  0.65799945  0.02356167  1
  O2-  O559  1  0.58962048  0.68158420  0.34897922  1
  O2-  O560  1  0.56987761  0.66866537  0.69055403  1
  O2-  O561  1  0.56320366  0.91521271  0.02461830  1
  O2-  O562  1  0.58509607  0.92942606  0.35318861  1
  O2-  O563  1  0.57556282  0.91734589  0.68108577  1
  O2-  O564  1  0.82264829  0.16470254  0.00379189  1
  O2-  O565  1  0.85624249  0.16260507  0.34954689  1
  O2-  O566  1  0.83085378  0.15569715  0.68231169  1
  O2-  O567  1  0.83298220  0.41917012  0.02318837  1
  O2-  O568  1  0.84719795  0.42979515  0.32442809  1
  O2-  O569  1  0.85139538  0.43077160  0.67863028  1
  O2-  O570  1  0.83445707  0.65383326  0.01184756  1
  O2-  O571  1  0.82521077  0.67375352  0.35660601  1
  O2-  O572  1  0.80847925  0.62635675  0.69408366  1
  O2-  O573  1  0.84311815  0.91276167  0.00021612  1
  O2-  O574  1  0.83459952  0.93737536  0.36106811  1
  O2-  O575  1  0.82201799  0.90409288  0.69179109  1
