# generated using pymatgen
data_H2O
_symmetry_space_group_name_H-M   'P 1'
_cell_length_a   17.99277670
_cell_length_b   17.97563083
_cell_length_c   21.98185791
_cell_angle_alpha   90.02598592
_cell_angle_beta   89.99653269
_cell_angle_gamma   120.01008719
_symmetry_Int_Tables_number   1
_chemical_formula_structural   H2O
_chemical_formula_sum   'H384 O192'
_cell_volume   6156.48963965
_cell_formula_units_Z   192
loop_
 _symmetry_equiv_pos_site_id
 _symmetry_equiv_pos_as_xyz
  1  'x, y, z'
loop_
 _atom_type_symbol
 _atom_type_oxidation_number
  H+  1.0
  O2-  -2.0
loop_
 _atom_site_type_symbol
 _atom_site_label
 _atom_site_symmetry_multiplicity
 _atom_site_fract_x
 _atom_site_fract_y
 _atom_site_fract_z
 _atom_site_occupancy
  H+  H0  1  0.12390901  0.23619760  0.68420168  1
  H+  H1  1  0.61274477  0.72674244  0.83661783  1
  H+  H2  1  0.60296746  0.47259731  0.15436420  1
  H+  H3  1  0.72226707  0.93199173  0.36540823  1
  H+  H4  1  0.12131964  0.78087273  0.32520465  1
  H+  H5  1  0.46538062  0.35702373  0.16272357  1
  H+  H6  1  0.89547971  0.15279086  0.66713276  1
  H+  H7  1  0.76056139  0.62944271  0.34126211  1
  H+  H8  1  0.38437093  0.61030717  0.97605068  1
  H+  H9  1  0.69466423  0.73969244  0.35283600  1
  H+  H10  1  0.72224240  0.85068603  0.99502338  1
  H+  H11  1  0.62019194  0.60622691  0.32453101  1
  H+  H12  1  0.37570347  0.26986174  0.16246396  1
  H+  H13  1  0.52098284  0.37445592  0.67688014  1
  H+  H14  1  0.36162015  0.38375312  0.15195838  1
  H+  H15  1  0.11169034  0.13880555  0.83004356  1
  H+  H16  1  0.38566037  0.54049523  0.53701128  1
  H+  H17  1  0.77830995  0.62950221  0.67765328  1
  H+  H18  1  0.10595353  0.13378524  0.33982955  1
  H+  H19  1  0.73193160  0.36434893  0.99981519  1
  H+  H20  1  -0.02278724  0.87195439  -0.00730645  1
  H+  H21  1  0.34535827  0.88386574  0.49007137  1
  H+  H22  1  0.60369541  -0.02465982  0.16819607  1
  H+  H23  1  -0.03298412  0.35402072  0.86251479  1
  H+  H24  1  0.62632965  0.68915202  0.40615123  1
  H+  H25  1  0.11723923  0.48142124  0.68285079  1
  H+  H26  1  0.10745338  0.22684977  0.83104972  1
  H+  H27  1  0.44501792  0.85013730  0.50712057  1
  H+  H28  1  0.61418892  -0.04813546  0.82082023  1
  H+  H29  1  1.02072518  0.87310422  0.16642737  1
  H+  H30  1  -0.02317090  0.85656021  0.50819518  1
  H+  H31  1  0.59614929  0.88400372  0.15939968  1
  H+  H32  1  0.95807727  0.71887570  0.04526691  1
  H+  H33  1  0.22448866  0.19335541  0.29002962  1
  H+  H34  1  1.02141182  0.63514211  0.67975164  1
  H+  H35  1  0.65256892  0.82893932  0.67324606  1
  H+  H36  1  0.88962011  0.99645598  0.49903544  1
  H+  H37  1  0.38286008  0.02339549  0.66589238  1
  H+  H38  1  0.12702024  0.86578640  0.49117366  1
  H+  H39  1  0.12462875  0.27402940  0.52978711  1
  H+  H40  1  0.88615594  0.51942535  0.18012338  1
  H+  H41  1  0.56436498  0.98332672  0.70147214  1
  H+  H42  1  0.51922959  0.76056711  0.68090541  1
  H+  H43  1  0.87457557  0.51976287  0.33403886  1
  H+  H44  1  0.37788846  0.01251058  0.32410422  1
  H+  H45  1  0.61082542  0.37836517  0.35818293  1
  H+  H46  1  0.46312663  0.83972336  0.31584825  1
  H+  H47  1  0.61828512  0.76792545  0.16073547  1
  H+  H48  1  0.91017004  0.13090673  0.50520866  1
  H+  H49  1  0.61124521  0.23531844  0.83840546  1
  H+  H50  1  0.35796328  0.14490626  1.00333447  1
  H+  H51  1  0.86476769  0.14534345  0.14901764  1
  H+  H52  1  0.86980633  0.71836162  0.82820682  1
  H+  H53  1  0.11486611  -0.02492382  0.84342117  1
  H+  H54  1  0.12283774  0.35073910  0.84790589  1
  H+  H55  1  0.21453974  0.10154458  0.51063507  1
  H+  H56  1  0.10982171  0.21069219  0.15982726  1
  H+  H57  1  0.85099661  -0.03707461  0.16225920  1
  H+  H58  1  0.60979310  0.37475680  0.83048555  1
  H+  H59  1  0.62467581  0.63970432  0.49451578  1
  H+  H60  1  0.11280689  0.63861938  0.48674080  1
  H+  H61  1  0.88452952  0.83978710  0.17176435  1
  H+  H62  1  0.35009063  0.87288978  0.33397244  1
  H+  H63  1  0.77325873  0.38128629  0.64531109  1
  H+  H64  1  0.13070655  0.77016389  0.48803994  1
  H+  H65  1  0.80283706  0.90461813  0.50517665  1
  H+  H66  1  1.00026475  0.13092628  0.50451907  1
  H+  H67  1  0.46984810  0.35347276  -0.01620650  1
  H+  H68  1  0.36186975  0.62372512  0.33884870  1
  H+  H69  1  0.63992210  0.50669996  0.66577396  1
  H+  H70  1  0.89398788  0.28008562  0.32260875  1
  H+  H71  1  0.11230851  0.63958510  0.16876505  1
  H+  H72  1  0.08342420  0.15338558  0.09866963  1
  H+  H73  1  0.89455644  0.36901273  0.32743392  1
  H+  H74  1  0.10786525  0.96658562  0.16546971  1
  H+  H75  1  0.26804055  0.38029901  0.34851975  1
  H+  H76  1  0.58211718  0.74916371  0.31632003  1
  H+  H77  1  0.10326360  0.89268696  0.33593066  1
  H+  H78  1  0.64274002  0.15296239  0.46847620  1
  H+  H79  1  0.88472858  0.26010080  0.85799423  1
  H+  H80  1  0.38210568  0.52015031  0.97847394  1
  H+  H81  1  0.60111479  0.37715173  0.50463899  1
  H+  H82  1  0.88820278  0.85434459  0.83913650  1
  H+  H83  1  0.47455579  0.87139274  0.84176413  1
  H+  H84  1  1.00187380  0.63536385  0.33411595  1
  H+  H85  1  0.25954163  0.88738589  0.67475770  1
  H+  H86  1  0.98301544  0.10889963  0.84281486  1
  H+  H87  1  0.97126238  0.37589590  0.16429484  1
  H+  H88  1  0.49764285  0.06807564  0.02141771  1
  H+  H89  1  0.38480813  0.52075605  0.81811138  1
  H+  H90  1  0.88873191  0.61321947  0.66236018  1
  H+  H91  1  0.86960294  0.77300641  0.33126997  1
  H+  H92  1  0.38060347  0.77169436  0.16319510  1
  H+  H93  1  0.85147835  0.87702035  0.00931786  1
  H+  H94  1  0.36177296  0.38140175  0.79311231  1
  H+  H95  1  0.78643250  0.14907641  0.33664922  1
  H+  H96  1  0.57141358  0.14171279  0.11270479  1
  H+  H97  1  0.84889449  0.63100586  0.34102330  1
  H+  H98  1  0.36471599  0.97792949  0.17089023  1
  H+  H99  1  0.36490468  0.38877136  -0.00255712  1
  H+  H100  1  0.11370086  0.97512501  0.66771159  1
  H+  H101  1  0.22002900  0.10391633  0.16573819  1
  H+  H102  1  0.67095924  0.02759646  0.32873309  1
  H+  H103  1  0.95581398  0.86295169  0.33022278  1
  H+  H104  1  0.60397040  0.84436783  0.31788247  1
  H+  H105  1  0.64387752  0.73561287  0.49692001  1
  H+  H106  1  0.51368854  0.64809186  0.67337905  1
  H+  H107  1  0.63140595  0.61942287  0.68909998  1
  H+  H108  1  0.58306982  0.13920153  0.85747771  1
  H+  H109  1  0.68149609  0.08212532  0.26772695  1
  H+  H110  1  0.63363338  0.60430115  0.98822060  1
  H+  H111  1  0.14825433  0.21679362  0.47105841  1
  H+  H112  1  0.91822446  0.15785097  0.98934913  1
  H+  H113  1  0.88996399  0.60430810  0.83850057  1
  H+  H114  1  0.85787702  0.38695283  0.16383008  1
  H+  H115  1  0.89173182  0.64337587  1.00541493  1
  H+  H116  1  0.12865169  0.52380095  0.50442947  1
  H+  H117  1  0.88916575  0.62078575  0.50458973  1
  H+  H118  1  1.11579052  0.72464525  0.83419838  1
  H+  H119  1  0.66579398  0.14430692  0.67307445  1
  H+  H120  1  0.21553033  0.61288061  0.50498151  1
  H+  H121  1  0.37954067  0.26592771  0.66621721  1
  H+  H122  1  0.45741173  0.11195844  0.83352850  1
  H+  H123  1  0.58267708  0.91085493  0.50559547  1
  H+  H124  1  0.26767238  0.13450025  0.66996924  1
  H+  H125  1  0.37977247  0.25494794  0.51696057  1
  H+  H126  1  0.38743932  0.35931652  0.67117734  1
  H+  H127  1  0.47419915  0.35309713  0.51693742  1
  H+  H128  1  0.10557290  0.47111445  0.84233291  1
  H+  H129  1  0.61059750  0.11663252  0.33350602  1
  H+  H130  1  0.34134185  0.72192588  0.49136327  1
  H+  H131  1  0.76155235  0.87609234  0.16588133  1
  H+  H132  1  0.65820406  0.09856793  0.82158890  1
  H+  H133  1  0.18052733  0.10535880  0.25521489  1
  H+  H134  1  0.12900427  0.25855805  0.33376053  1
  H+  H135  1  0.60464661  0.37645489  1.00495945  1
  H+  H136  1  0.86196462  0.47425663  0.64412231  1
  H+  H137  1  0.48183127  0.86479845  0.98898668  1
  H+  H138  1  0.13684861  0.86301352  0.65974404  1
  H+  H139  1  0.22455324  0.86761595  0.48908084  1
  H+  H140  1  0.40267923  0.81759059  0.25926505  1
  H+  H141  1  1.02660213  0.38194556  0.33845617  1
  H+  H142  1  0.65101966  0.71671341  0.68964834  1
  H+  H143  1  0.12386975  0.60984243  0.66280988  1
  H+  H144  1  0.35968866  0.13072266  0.50425994  1
  H+  H145  1  0.02862589  0.88347348  0.84026615  1
  H+  H146  1  0.61455351  0.26311438  0.49833015  1
  H+  H147  1  0.38070315  0.26684498  0.34918166  1
  H+  H148  1  0.36327084  0.87880483  0.16848027  1
  H+  H149  1  0.35560571  0.86413207  0.66238358  1
  H+  H150  1  0.85879072  0.46005386  0.83502212  1
  H+  H151  1  0.53262739  0.01666301  0.05746440  1
  H+  H152  1  0.54726452  0.81592263  0.48180119  1
  H+  H153  1  0.64738821  0.27374568  0.99812920  1
  H+  H154  1  0.07277231  0.67549404  0.07912109  1
  H+  H155  1  0.22879160  0.61662107  0.16614378  1
  H+  H156  1  0.26768781  0.88808215  0.83074839  1
  H+  H157  1  0.61542470  0.88255788  -0.00615200  1
  H+  H158  1  0.46898516  0.10588879  0.17710574  1
  H+  H159  1  0.60685846  0.22051221  0.16141725  1
  H+  H160  1  0.60721258  0.38527696  0.15714472  1
  H+  H161  1  0.07491284  0.62155109  0.02362061  1
  H+  H162  1  0.13996627  0.77586173  0.66675962  1
  H+  H163  1  0.07859002  0.91364359  0.07061091  1
  H+  H164  1  0.12069417  0.46391673  0.33680568  1
  H+  H165  1  0.64747097  0.51826898  0.84113808  1
  H+  H166  1  0.71302167  0.60248725  0.16100180  1
  H+  H167  1  0.89860759  0.28076940  0.50116476  1
  H+  H168  1  0.59974056  0.63338853  0.14841595  1
  H+  H169  1  0.03328917  0.39164847  0.68027001  1
  H+  H170  1  0.60476299  0.46432746  0.34705234  1
  H+  H171  1  0.89686446  0.36693856  0.64659730  1
  H+  H172  1  0.63385773  0.25553483  0.34218307  1
  H+  H173  1  0.96813458  0.10758215  0.16601313  1
  H+  H174  1  0.22508364  0.35947483  0.99170306  1
  H+  H175  1  0.08247590  0.66185586  0.73915414  1
  H+  H176  1  0.63818617  0.10137412  0.99230478  1
  H+  H177  1  0.97308872  0.11219655  0.32621902  1
  H+  H178  1  0.27597396  0.39804338  0.51034957  1
  H+  H179  1  0.11054349  0.97557215  0.49530934  1
  H+  H180  1  0.13947320  0.86617970  0.17399216  1
  H+  H181  1  0.64555645  0.29357599  0.40514023  1
  H+  H182  1  0.07699727  0.15344860  0.40593963  1
  H+  H183  1  0.77210096  0.54798781  0.10559309  1
  H+  H184  1  0.77244240  0.37805931  0.36168260  1
  H+  H185  1  0.09798396  0.97816431  0.33774195  1
  H+  H186  1  0.44849805  0.64396755  0.62197909  1
  H+  H187  1  0.92524782  0.59529336  0.60093876  1
  H+  H188  1  0.67409881  0.87082144  0.53316305  1
  H+  H189  1  0.28330831  0.64088521  -0.01565191  1
  H+  H190  1  0.55862875  0.86358328  0.66753214  1
  H+  H191  1  0.35742108  0.63452899  0.14980092  1
  H+  H192  1  0.11908430  0.63794943  0.83704340  1
  H+  H193  1  0.36859109  1.01902317  0.83460695  1
  H+  H194  1  0.64328201  0.11611000  0.18054586  1
  H+  H195  1  0.86225262  0.46646802  0.00538162  1
  H+  H196  1  0.16085358  0.84136570  0.26709008  1
  H+  H197  1  0.50919415  0.62995521  0.15041072  1
  H+  H198  1  0.08672487  0.16979499  0.74008623  1
  H+  H199  1  0.35505517  0.62467193  0.81343663  1
  H+  H200  1  0.19929953  0.03331490  0.95947672  1
  H+  H201  1  0.28368887  0.39157385  0.69820065  1
  H+  H202  1  0.63481859  0.26420833  0.66439282  1
  H+  H203  1  0.51559984  0.62796898  -0.00908306  1
  H+  H204  1  1.03076855  0.38972153  0.49273377  1
  H+  H205  1  0.26040643  0.13142118  0.00075231  1
  H+  H206  1  0.83132765  0.41229034  0.55623158  1
  H+  H207  1  0.77588989  0.87833004  0.83030867  1
  H+  H208  1  0.80520631  0.16340679  0.67545058  1
  H+  H209  1  0.46961669  0.09823831  0.32118824  1
  H+  H210  1  0.46737558  0.35524466  0.34800253  1
  H+  H211  1  0.89579008  0.86852442  0.50749184  1
  H+  H212  1  0.26752458  0.62884217  0.82820349  1
  H+  H213  1  0.13430296  0.36571771  0.51946541  1
  H+  H214  1  0.36905183  0.72818935  -0.00241810  1
  H+  H215  1  1.03480172  0.13961467  1.00682147  1
  H+  H216  1  0.13746340  0.86042840  0.84934284  1
  H+  H217  1  0.36076041  -0.02671380  0.99306447  1
  H+  H218  1  0.47304228  0.11552907  0.50382442  1
  H+  H219  1  0.35378306  0.13757640  0.82304720  1
  H+  H220  1  0.60877673  0.37070367  0.67528456  1
  H+  H221  1  0.35829754  0.13423964  0.67357014  1
  H+  H222  1  0.33294149  0.72692495  0.67905764  1
  H+  H223  1  0.78714689  0.15933066  0.47940930  1
  H+  H224  1  0.10753060  0.49371560  0.14351083  1
  H+  H225  1  0.63402943  0.84417456  0.84481990  1
  H+  H226  1  0.72293236  0.60485120  0.51277669  1
  H+  H227  1  0.13709164  0.86285170  0.99928252  1
  H+  H228  1  0.13839325  0.11880807  0.66227968  1
  H+  H229  1  1.02203538  0.63852505  0.17462932  1
  H+  H230  1  0.15108885  0.37544277  0.68076979  1
  H+  H231  1  0.32978809  0.16067998  0.44481700  1
  H+  H232  1  0.52486469  0.13080127  0.68210093  1
  H+  H233  1  0.63037489  0.51512557  -0.00897637  1
  H+  H234  1  0.46334376  0.59492517  0.32544690  1
  H+  H235  1  0.26843793  0.88302380  0.17110029  1
  H+  H236  1  0.72554525  0.36320071  0.17205410  1
  H+  H237  1  0.85734577  0.72531285  0.49640520  1
  H+  H238  1  0.87832559  0.60132458  0.17512201  1
  H+  H239  1  0.87484859  0.14829499  0.33341651  1
  H+  H240  1  0.37539699  0.62083073  0.52826012  1
  H+  H241  1  0.96631542  0.59518646  0.99044069  1
  H+  H242  1  0.47787918  0.15928704  0.96848869  1
  H+  H243  1  0.26328423  0.87924373  0.33534404  1
  H+  H244  1  0.27646763  0.13491279  0.34449755  1
  H+  H245  1  0.13355008  0.34935070  0.32940905  1
  H+  H246  1  0.37467241  0.50605290  0.32959039  1
  H+  H247  1  -0.02041648  0.62254842  0.50072317  1
  H+  H248  1  0.70993397  0.35102090  0.51087479  1
  H+  H249  1  0.63028597  0.76219311  -0.01061259  1
  H+  H250  1  0.08995960  0.65153891  0.30782061  1
  H+  H251  1  0.11260728  0.97778800  0.01287800  1
  H+  H252  1  0.13985870  0.77654865  0.17911783  1
  H+  H253  1  1.02591838  0.88601146  0.66811583  1
  H+  H254  1  0.85337719  0.36960898  0.84520924  1
  H+  H255  1  0.55277848  -0.02745973  0.66835268  1
  H+  H256  1  0.73020553  0.35915428  0.84408783  1
  H+  H257  1  0.78953137  0.12915663  0.83410553  1
  H+  H258  1  0.89363851  0.01895804  0.84892824  1
  H+  H259  1  0.38467342  0.26324134  0.83188127  1
  H+  H260  1  0.09385711  0.41345301  0.10341342  1
  H+  H261  1  0.37609515  0.26734486  0.98399139  1
  H+  H262  1  0.13212202  0.34437633  0.18350126  1
  H+  H263  1  0.84015887  0.89103548  0.34355268  1
  H+  H264  1  0.39097219  0.86367997  -0.00548712  1
  H+  H265  1  0.48702470  0.35648929  0.83483999  1
  H+  H266  1  0.12708105  0.10666414  0.50155247  1
  H+  H267  1  0.89817205  0.37013970  0.50984255  1
  H+  H268  1  0.88288742  -0.01228357  0.67701193  1
  H+  H269  1  0.11484885  0.12193219  1.00609623  1
  H+  H270  1  0.14611328  0.59081012  0.33908149  1
  H+  H271  1  0.62650415  -0.02533252  0.98546188  1
  H+  H272  1  0.64477327  0.08183625  0.50698052  1
  H+  H273  1  0.35983342  0.12513465  0.34768282  1
  H+  H274  1  0.22159539  0.12070700  0.84299957  1
  H+  H275  1  0.57029152  0.40971642  0.44711251  1
  H+  H276  1  0.35730499  0.38222822  0.35528550  1
  H+  H277  1  0.86518985  0.23449052  0.15482440  1
  H+  H278  1  0.89900729  0.25251542  0.66578879  1
  H+  H279  1  0.10364790  0.53539344  0.97901699  1
  H+  H280  1  0.68414397  0.08564466  0.62903159  1
  H+  H281  1  0.14429713  0.26620099  0.99712334  1
  H+  H282  1  0.27705975  0.88614460  0.00514869  1
  H+  H283  1  0.13467806  0.77316283  1.00246537  1
  H+  H284  1  0.35943389  0.71242619  0.33515675  1
  H+  H285  1  0.35307437  0.13034006  0.15259610  1
  H+  H286  1  0.89770872  0.77980360  0.99380435  1
  H+  H287  1  0.88031869  0.13746019  0.83945574  1
  H+  H288  1  0.32387460  0.16262717  0.09320699  1
  H+  H289  1  0.65465060  0.58150348  0.22144218  1
  H+  H290  1  0.43919784  0.85611022  0.65906570  1
  H+  H291  1  0.17031133  0.82756038  0.90485455  1
  H+  H292  1  0.67895100  0.57630874  0.90055101  1
  H+  H293  1  0.93891040  0.33954141  0.59524244  1
  H+  H294  1  0.23724792  0.60229694  0.32669645  1
  H+  H295  1  0.66702325  0.57057236  0.60783829  1
  H+  H296  1  0.87996444  0.02933317  0.32585849  1
  H+  H297  1  0.18019485  0.34726905  0.62114983  1
  H+  H298  1  0.66236416  0.33294935  0.22879662  1
  H+  H299  1  0.73912651  0.13998549  0.98161656  1
  H+  H300  1  0.99517631  0.12916437  0.66436868  1
  H+  H301  1  0.33785642  0.41997738  0.05778258  1
  H+  H302  1  0.85431069  0.18352874  0.42737019  1
  H+  H303  1  0.31239033  0.65954075  0.75090086  1
  H+  H304  1  0.32468330  0.91568075  0.42703550  1
  H+  H305  1  0.27269548  0.38288500  0.15375704  1
  H+  H306  1  0.40492298  0.57472058  0.22533348  1
  H+  H307  1  0.58098839  0.16412281  0.74304818  1
  H+  H308  1  0.37686433  0.51671973  0.16527565  1
  H+  H309  1  0.32867860  0.66386134  0.08936791  1
  H+  H310  1  0.93877308  0.10116954  0.60186264  1
  H+  H311  1  0.36341854  0.90059192  0.82936098  1
  H+  H312  1  0.84583761  0.42048115  0.41013615  1
  H+  H313  1  0.91240409  0.82776749  0.60269880  1
  H+  H314  1  0.93287406  0.10314048  0.93905821  1
  H+  H315  1  0.15351330  0.58100138  0.60148682  1
  H+  H316  1  0.32692788  0.17125916  0.76331534  1
  H+  H317  1  0.33153609  0.43241092  0.45127781  1
  H+  H318  1  0.16811357  0.09174384  0.90538507  1
  H+  H319  1  0.06151143  0.49438689  0.04332415  1
  H+  H320  1  0.55354963  0.52283493  0.28914487  1
  H+  H321  1  0.41048928  0.32197687  0.58070019  1
  H+  H322  1  0.97834679  0.60323835  0.84195218  1
  H+  H323  1  0.89790109  0.30181002  0.95180118  1
  H+  H324  1  0.15990985  0.08447140  0.60046789  1
  H+  H325  1  0.91060279  0.08667233  0.22505775  1
  H+  H326  1  0.83524669  0.64443206  0.09174742  1
  H+  H327  1  0.38484126  0.02428506  0.50660834  1
  H+  H328  1  0.66702247  0.81626032  0.90481598  1
  H+  H329  1  0.63111894  0.51742381  0.51461853  1
  H+  H330  1  0.82941551  0.41775420  0.10442335  1
  H+  H331  1  0.32325079  0.91958579  0.73480873  1
  H+  H332  1  0.12896770  0.10125437  0.16876516  1
  H+  H333  1  0.73208643  0.11784110  0.16937576  1
  H+  H334  1  0.16641458  0.31673955  0.23990146  1
  H+  H335  1  0.67075383  0.07600297  0.89008210  1
  H+  H336  1  0.41625361  0.32647526  0.89689506  1
  H+  H337  1  0.24724636  0.63188948  0.67603198  1
  H+  H338  1  0.82346204  0.66411491  0.43776026  1
  H+  H339  1  0.38482587  0.82746761  0.56664508  1
  H+  H340  1  0.88531365  0.77096054  0.66369158  1
  H+  H341  1  0.41248872  0.09011644  0.92310967  1
  H+  H342  1  0.75547913  0.86293554  0.67263892  1
  H+  H343  1  0.40513517  0.57172470  0.88292664  1
  H+  H344  1  0.84027496  0.91798822  0.77343762  1
  H+  H345  1  0.85358071  0.37247694  0.01526915  1
  H+  H346  1  0.42002173  0.08372143  0.60736848  1
  H+  H347  1  0.08281665  0.66557529  0.42451671  1
  H+  H348  1  0.84548747  0.20251141  0.05652184  1
  H+  H349  1  0.60818046  -0.00731486  0.56550792  1
  H+  H350  1  0.65011722  0.31468087  0.60076974  1
  H+  H351  1  0.56787125  0.65567501  0.05396302  1
  H+  H352  1  0.57834693  0.40103066  0.76891310  1
  H+  H353  1  0.51216845  0.63257678  0.82498744  1
  H+  H354  1  0.57332401  0.87295285  0.77226990  1
  H+  H355  1  0.78171946  0.62705178  0.82866817  1
  H+  H356  1  0.89967703  0.57557743  0.27162101  1
  H+  H357  1  0.40457377  0.07598746  0.23380381  1
  H+  H358  1  0.63996706  0.91958274  0.40274890  1
  H+  H359  1  0.83812691  0.93211611  0.40727569  1
  H+  H360  1  0.65226007  -0.00387652  0.56515228  1
  H+  H361  1  0.62220261  0.81246773  0.22342550  1
  H+  H362  1  0.92222491  0.34309694  0.22917438  1
  H+  H363  1  0.52231416  0.20105918  0.43946095  1
  H+  H364  1  0.07477915  0.41726275  0.78144794  1
  H+  H365  1  0.56888669  0.40452155  0.06142920  1
  H+  H366  1  0.59255569  0.65938827  0.77365516  1
  H+  H367  1  0.88255179  0.89716499  0.67708256  1
  H+  H368  1  0.17290049  0.58000628  0.22778234  1
  H+  H369  1  0.66813403  0.33433976  0.90309854  1
  H+  H370  1  0.84013160  0.66335415  0.73604402  1
  H+  H371  1  0.91129715  0.56790440  0.92885651  1
  H+  H372  1  0.70188306  0.82792333  0.58399172  1
  H+  H373  1  0.07730158  0.91915272  0.43293826  1
  H+  H374  1  0.09268010  0.41460173  0.43511368  1
  H+  H375  1  0.86581858  0.48314983  0.50705301  1
  H+  H376  1  0.81621834  0.89603718  0.07035502  1
  H+  H377  1  0.91566671  0.82669146  0.89969326  1
  H+  H378  1  0.15542348  0.31992868  0.90425525  1
  H+  H379  1  0.57077136  0.14652223  0.38830398  1
  H+  H380  1  0.41828017  0.85111974  0.90190214  1
  H+  H381  1  0.32446475  0.65897568  0.43457732  1
  H+  H382  1  0.47129824  0.86404433  0.17148197  1
  H+  H383  1  0.91179624  0.81925638  0.23355046  1
  O2-  O384  1  0.07772249  0.15068527  0.14474931  1
  O2-  O385  1  0.09541813  0.16155124  0.47413834  1
  O2-  O386  1  0.07975830  0.16612756  0.81232448  1
  O2-  O387  1  0.06446294  0.44228846  0.11966049  1
  O2-  O388  1  0.09279284  0.42023321  0.48027346  1
  O2-  O389  1  0.06945559  0.41226611  0.82649158  1
  O2-  O390  1  0.08230201  0.67242099  0.15951223  1
  O2-  O391  1  0.08605166  0.67239237  0.46926821  1
  O2-  O392  1  0.08655907  0.66352800  0.81905266  1
  O2-  O393  1  0.08179240  0.90602305  0.15057868  1
  O2-  O394  1  0.08193536  0.91426222  0.47782836  1
  O2-  O395  1  0.09193847  0.91331415  0.83525270  1
  O2-  O396  1  0.32097722  0.15878369  0.13915742  1
  O2-  O397  1  0.33067923  0.16348322  0.49048550  1
  O2-  O398  1  0.33112606  0.17596665  0.80914422  1
  O2-  O399  1  0.33167494  0.41641673  0.13761135  1
  O2-  O400  1  0.33504678  0.43566673  0.49603353  1
  O2-  O401  1  0.33782608  0.41692503  0.77865567  1
  O2-  O402  1  0.32850805  0.66640085  0.13500997  1
  O2-  O403  1  0.31624799  0.66081257  0.47919865  1
  O2-  O404  1  0.32243503  0.65505452  0.80306716  1
  O2-  O405  1  0.33207386  0.91354020  0.15841478  1
  O2-  O406  1  0.31939873  0.91743953  0.47250052  1
  O2-  O407  1  0.32683331  0.92473394  0.81274065  1
  O2-  O408  1  0.57531722  0.15690353  0.15641756  1
  O2-  O409  1  0.56121408  0.18600353  0.45976850  1
  O2-  O410  1  0.57400896  0.17164856  0.82570773  1
  O2-  O411  1  0.57548174  0.41203968  0.13949474  1
  O2-  O412  1  0.56810415  0.40697668  0.49265202  1
  O2-  O413  1  0.57391220  0.39931821  0.81471811  1
  O2-  O414  1  0.56834335  0.66195191  0.13295919  1
  O2-  O415  1  0.61164496  0.68136661  0.47393968  1
  O2-  O416  1  0.57703258  0.66296243  0.81854964  1
  O2-  O417  1  0.56458047  0.91608059  0.15374751  1
  O2-  O418  1  0.55348651  0.87168580  0.47140139  1
  O2-  O419  1  0.57915816  0.88847708  0.81594663  1
  O2-  O420  1  0.83538783  0.17713611  0.13463959  1
  O2-  O421  1  0.84963720  0.18217737  0.47295225  1
  O2-  O422  1  0.85050173  0.16932250  0.82619719  1
  O2-  O423  1  0.82710555  0.41806173  0.15004588  1
  O2-  O424  1  0.83426386  0.41872742  0.51037335  1
  O2-  O425  1  0.82334691  0.39759472  0.82596301  1
  O2-  O426  1  0.80057069  0.60394334  0.12569378  1
  O2-  O427  1  0.82675033  0.66363673  0.48285297  1
  O2-  O428  1  0.84246106  0.65838317  0.81169983  1
  O2-  O429  1  0.82230891  0.90071047  0.15285541  1
  O2-  O430  1  0.85892400  0.93561469  0.48360741  1
  O2-  O431  1  0.83730089  0.91227976  0.81854775  1
  O2-  O432  1  0.16197280  0.07407271  0.18603521  1
  O2-  O433  1  0.15289179  0.07061071  0.52149980  1
  O2-  O434  1  0.16260948  0.09028606  0.85934865  1
  O2-  O435  1  0.16608425  0.31772197  0.19383125  1
  O2-  O436  1  0.15966485  0.33462976  0.54135982  1
  O2-  O437  1  0.15213803  0.31845465  0.85859531  1
  O2-  O438  1  0.16863792  0.58588035  0.18326993  1
  O2-  O439  1  0.15399590  0.58467096  0.51892473  1
  O2-  O440  1  0.18053254  0.58604808  0.86854273  1
  O2-  O441  1  0.17270707  0.83880887  0.19162105  1
  O2-  O442  1  0.16032965  0.83329336  0.50149827  1
  O2-  O443  1  0.16889151  0.82775625  0.85957134  1
  O2-  O444  1  0.40648189  0.07301121  0.18804806  1
  O2-  O445  1  0.41565049  0.08257282  0.52494821  1
  O2-  O446  1  0.39790646  0.08218812  0.84950116  1
  O2-  O447  1  0.40455489  0.33095797  0.17522969  1
  O2-  O448  1  0.41261398  0.31727691  0.53388513  1
  O2-  O449  1  0.42100207  0.32659705  0.84900536  1
  O2-  O450  1  0.40521763  0.57797691  0.18034843  1
  O2-  O451  1  0.40780475  0.60006207  0.55193303  1
  O2-  O452  1  0.41092502  0.57865570  0.83704460  1
  O2-  O453  1  0.40660439  0.82917557  0.18380639  1
  O2-  O454  1  0.38525368  0.82665804  0.52074565  1
  O2-  O455  1  0.42125418  0.86657477  0.85799649  1
  O2-  O456  1  0.67573094  0.08653156  0.19106403  1
  O2-  O457  1  0.67539900  0.12277197  0.47439414  1
  O2-  O458  1  0.67005724  0.06054661  0.84603847  1
  O2-  O459  1  0.66277092  0.33085098  0.18447845  1
  O2-  O460  1  0.64865362  0.32159748  0.52250301  1
  O2-  O461  1  0.66602906  0.33102435  0.85792200  1
  O2-  O462  1  0.65352872  0.58054126  0.17652568  1
  O2-  O463  1  0.66331858  0.57774983  0.52950080  1
  O2-  O464  1  0.68512542  0.57731279  0.85513171  1
  O2-  O465  1  0.64558679  0.82518834  0.18120032  1
  O2-  O466  1  0.70273088  0.83742428  0.53801756  1
  O2-  O467  1  0.66478601  0.81293554  0.85766914  1
  O2-  O468  1  0.90760807  0.08403314  0.17986675  1
  O2-  O469  1  0.94044203  0.10255039  0.52284643  1
  O2-  O470  1  0.92451984  0.07989631  0.86240057  1
  O2-  O471  1  0.91424143  0.34059654  0.18397139  1
  O2-  O472  1  0.93105193  0.34036218  0.51940790  1
  O2-  O473  1  0.90732770  0.31870580  0.87829456  1
  O2-  O474  1  0.91294223  0.57975965  0.19624516  1
  O2-  O475  1  0.92143274  0.59209237  0.51915967  1
  O2-  O476  1  0.91715754  0.57147052  0.85550301  1
  O2-  O477  1  0.91852130  0.81548432  0.18914942  1
  O2-  O478  1  0.91598369  0.82882903  0.52199799  1
  O2-  O479  1  0.91695800  0.82275886  0.85425366  1
  O2-  O480  1  0.19416721  0.13157425  0.29798320  1
  O2-  O481  1  0.16832015  0.08898366  0.64556685  1
  O2-  O482  1  0.18196453  0.07211195  0.97731166  1
  O2-  O483  1  0.16371230  0.31797334  0.31594682  1
  O2-  O484  1  0.18363939  0.34693076  0.66635185  1
  O2-  O485  1  0.16370232  0.32446551  0.98081629  1
  O2-  O486  1  0.17510406  0.57124216  0.31137287  1
  O2-  O487  1  0.15430518  0.57923576  0.64675195  1
  O2-  O488  1  0.19407827  0.58874378  0.92886408  1
  O2-  O489  1  0.15715392  0.84207622  0.31291494  1
  O2-  O490  1  0.17151018  0.83442511  0.64942384  1
  O2-  O491  1  0.16832408  0.83286504  0.98601145  1
  O2-  O492  1  0.40752352  0.07358918  0.31014848  1
  O2-  O493  1  0.41914109  0.08524359  0.65261610  1
  O2-  O494  1  0.42740019  0.10194451  0.96811559  1
  O2-  O495  1  0.40600330  0.32783649  0.33731875  1
  O2-  O496  1  0.41310459  0.32749317  0.65106970  1
  O2-  O497  1  0.41122994  0.32655375  0.96455677  1
  O2-  O498  1  0.40480341  0.56609030  0.30988993  1
  O2-  O499  1  0.47374939  0.66871395  0.66275283  1
  O2-  O500  1  0.41151827  0.57819584  0.95853306  1
  O2-  O501  1  0.40265300  0.81606393  0.30527978  1
  O2-  O502  1  0.38040607  0.82758262  0.64387571  1
  O2-  O503  1  0.41907688  0.83171103  0.97829621  1
  O2-  O504  1  0.68191656  0.08418043  0.31347816  1
  O2-  O505  1  0.71234075  0.13765316  0.65363573  1
  O2-  O506  1  0.68097530  0.10021195  0.96481845  1
  O2-  O507  1  0.66087576  0.31335436  0.36269754  1
  O2-  O508  1  0.66081713  0.32255051  0.64567327  1
  O2-  O509  1  0.67056085  0.33251394  0.98379464  1
  O2-  O510  1  0.61377400  0.55433647  0.30159699  1
  O2-  O511  1  0.67183792  0.56833137  0.65310381  1
  O2-  O512  1  0.66651900  0.57521612  0.97757548  1
  O2-  O513  1  0.56852209  0.78951727  0.29552322  1
  O2-  O514  1  0.69782698  0.81784466  0.65616166  1
  O2-  O515  1  0.66325822  0.82280219  0.97414423  1
  O2-  O516  1  0.91413133  0.08784495  0.30800277  1
  O2-  O517  1  0.93406487  0.10020327  0.64740804  1
  O2-  O518  1  0.94168662  0.11946547  0.98287249  1
  O2-  O519  1  0.92514265  0.34201958  0.30835205  1
  O2-  O520  1  0.93460450  0.34092678  0.64095466  1
  O2-  O521  1  0.88982092  0.29910687  0.99817726  1
  O2-  O522  1  0.90039832  0.57941151  0.31750933  1
  O2-  O523  1  0.91970875  0.58397198  0.64550164  1
  O2-  O524  1  0.90660200  0.56564713  0.97516064  1
  O2-  O525  1  0.89546144  0.83273580  0.31588968  1
  O2-  O526  1  0.91352702  0.83123639  0.64791652  1
  O2-  O527  1  0.91719823  0.83772920  0.97684890  1
  O2-  O528  1  0.09335402  0.15710110  0.02492600  1
  O2-  O529  1  0.07086893  0.15587011  0.35857028  1
  O2-  O530  1  0.08985604  0.17351455  0.69359423  1
  O2-  O531  1  0.05719742  0.52542464  0.00795991  1
  O2-  O532  1  0.08642603  0.40546714  0.35460176  1
  O2-  O533  1  0.09041631  0.42218134  0.70031639  1
  O2-  O534  1  0.06795404  0.67268242  0.03403984  1
  O2-  O535  1  0.06641277  0.66859082  0.34158283  1
  O2-  O536  1  0.08235389  0.66328600  0.69368302  1
  O2-  O537  1  0.07893546  0.91536430  0.02524250  1
  O2-  O538  1  0.07026332  0.91944004  0.35326067  1
  O2-  O539  1  0.08748368  0.91386197  0.67865988  1
  O2-  O540  1  0.32694033  0.17387886  0.01745393  1
  O2-  O541  1  0.33035392  0.15327259  0.36769906  1
  O2-  O542  1  0.32813106  0.16535168  0.68734252  1
  O2-  O543  1  0.33818858  0.42200362  0.01235053  1
  O2-  O544  1  0.32794007  0.41663241  0.36351904  1
  O2-  O545  1  0.34520577  0.41486919  0.71182888  1
  O2-  O546  1  0.33629603  0.66544322  0.00924682  1
  O2-  O547  1  0.33105681  0.65391129  0.35380390  1
  O2-  O548  1  0.30648403  0.66712792  0.69486575  1
  O2-  O549  1  0.33982648  0.91891747  0.01444669  1
  O2-  O550  1  0.32406675  0.90657618  0.34992023  1
  O2-  O551  1  0.32369264  0.92078376  0.68916734  1
  O2-  O552  1  0.54711500  0.07478516  0.04521272  1
  O2-  O553  1  0.57483444  0.14384939  0.34284814  1
  O2-  O554  1  0.58506666  0.16272833  0.69819196  1
  O2-  O555  1  0.56826608  0.40148796  0.01595038  1
  O2-  O556  1  0.58015845  0.40941638  0.36962321  1
  O2-  O557  1  0.58078495  0.40237581  0.69285153  1
  O2-  O558  1  0.57443618  0.65667990  0.00883962  1
  O2-  O559  1  0.63532512  0.69430669  0.35892851  1
  O2-  O560  1  0.61142045  0.65846306  0.70654762  1
  O2-  O561  1  0.58804022  0.91796145  0.00290600  1
  O2-  O562  1  0.66796813  0.93395185  0.36263925  1
  O2-  O563  1  0.55991797  0.82369173  0.69683571  1
  O2-  O564  1  0.84450385  0.20604914  0.01063312  1
  O2-  O565  1  0.84808205  0.18204390  0.34978276  1
  O2-  O566  1  0.86957813  0.19024447  0.68330077  1
  O2-  O567  1  0.82847319  0.40911253  0.02646546  1
  O2-  O568  1  0.83583660  0.41693651  0.36613041  1
  O2-  O569  1  0.83486496  0.41178848  0.63268114  1
  O2-  O570  1  0.89816835  0.69190744  0.03223587  1
  O2-  O571  1  0.81917697  0.66210272  0.35659326  1
  O2-  O572  1  0.83961891  0.66513892  0.69004097  1
  O2-  O573  1  0.81285845  0.89681977  0.02536862  1
  O2-  O574  1  0.82021974  0.92760402  0.36357001  1
  O2-  O575  1  0.85393847  0.92875722  0.69408137  1
