# generated using pymatgen
data_H2O
_symmetry_space_group_name_H-M   'P 1'
_cell_length_a   17.97188475
_cell_length_b   17.97690475
_cell_length_c   21.98000882
_cell_angle_alpha   90.02298467
_cell_angle_beta   89.99614382
_cell_angle_gamma   119.90751231
_symmetry_Int_Tables_number   1
_chemical_formula_structural   H2O
_chemical_formula_sum   'H384 O192'
_cell_volume   6155.60849794
_cell_formula_units_Z   192
loop_
 _symmetry_equiv_pos_site_id
 _symmetry_equiv_pos_as_xyz
  1  'x, y, z'
loop_
 _atom_type_symbol
 _atom_type_oxidation_number
  H+  1.0
  O2-  -2.0
loop_
 _atom_site_type_symbol
 _atom_site_label
 _atom_site_symmetry_multiplicity
 _atom_site_fract_x
 _atom_site_fract_y
 _atom_site_fract_z
 _atom_site_occupancy
  H+  H0  1  0.36764617  0.46483340  0.33163932  1
  H+  H1  1  0.64078437  0.85890751  0.52487187  1
  H+  H2  1  0.10987221  0.20101333  0.67606628  1
  H+  H3  1  0.34726389  0.89248114  0.73380033  1
  H+  H4  1  0.36934620  0.38737701  0.67287693  1
  H+  H5  1  0.14690716  0.35924657  0.84591104  1
  H+  H6  1  0.75689389  0.11031695  0.47741626  1
  H+  H7  1  0.13488736  0.52008608  0.50801658  1
  H+  H8  1  0.61382684  0.38885360  0.81728890  1
  H+  H9  1  0.49507056  0.11580727  0.97423000  1
  H+  H10  1  0.20016253  0.38430147  0.55244432  1
  H+  H11  1  0.64559523  0.27311325  0.66448093  1
  H+  H12  1  0.86987979  0.38822274  0.65149593  1
  H+  H13  1  0.47912513  0.11278359  0.66427022  1
  H+  H14  1  0.08934826  0.83824922  0.20815919  1
  H+  H15  1  0.37385667  0.47504065  0.48705436  1
  H+  H16  1  0.57293061  0.31833338  0.29636880  1
  H+  H17  1  0.63713719  0.94366367  -0.01875187  1
  H+  H18  1  0.51199553  0.10776141  0.34267225  1
  H+  H19  1  0.60324844  -0.04065000  0.55584956  1
  H+  H20  1  0.04451934  0.38721486  0.49340749  1
  H+  H21  1  0.30796175  0.81325687  0.03774979  1
  H+  H22  1  0.72420244  0.62752941  0.66812451  1
  H+  H23  1  0.22383185  0.11056120  0.35950228  1
  H+  H24  1  0.60000668  0.49034316  0.67189731  1
  H+  H25  1  0.88057636  0.85337567  0.83606209  1
  H+  H26  1  0.61497510  0.12045275  0.82145957  1
  H+  H27  1  0.59869074  0.80954506  0.41182939  1
  H+  H28  1  0.94443199  0.66235837  0.93254346  1
  H+  H29  1  0.10823084  0.88891546  -0.00388234  1
  H+  H30  1  0.56406794  0.94389444  0.68726628  1
  H+  H31  1  0.10027272  0.48347210  0.16125014  1
  H+  H32  1  0.08469545  0.71655112  0.17508359  1
  H+  H33  1  0.38943611  0.60028363  0.30193655  1
  H+  H34  1  0.86352837  0.47835628  0.15754007  1
  H+  H35  1  0.28619031  0.88062674  0.67587786  1
  H+  H36  1  0.10301695  0.71766834  0.35536872  1
  H+  H37  1  0.22278309  0.85357963  0.34532411  1
  H+  H38  1  0.01612518  0.14031626  0.51659459  1
  H+  H39  1  0.15167743  0.87599859  0.51604433  1
  H+  H40  1  0.12890317  0.02149660  0.99235349  1
  H+  H41  1  0.02851679  0.38456421  0.33630496  1
  H+  H42  1  0.38058807  0.61117821  0.51643887  1
  H+  H43  1  0.15728655  0.58058968  0.23220916  1
  H+  H44  1  0.10066970  0.48814394  1.01507035  1
  H+  H45  1  0.24338494  0.12814180  0.14518000  1
  H+  H46  1  0.13203882  0.07768619  0.93711167  1
  H+  H47  1  0.13353626  0.98807875  0.49598178  1
  H+  H48  1  0.24197845  0.12901337  0.49859049  1
  H+  H49  1  0.52023526  0.37788554  0.82160180  1
  H+  H50  1  0.85258330  0.94693409  -0.01269380  1
  H+  H51  1  0.26062113  0.62917883  0.51454601  1
  H+  H52  1  0.14192993  0.12184945  0.15559019  1
  H+  H53  1  0.28015998  0.62727105  0.35034413  1
  H+  H54  1  0.59919016  0.47382922  0.15482402  1
  H+  H55  1  0.60757274  0.47316718  1.00016160  1
  H+  H56  1  0.49400950  0.20887957  0.21360942  1
  H+  H57  1  0.23421057  0.88281963  0.99885512  1
  H+  H58  1  0.46517362  0.10458199  0.50641767  1
  H+  H59  1  0.88356268  0.27058912  0.16134160  1
  H+  H60  1  0.13383555  0.75904235  0.65749477  1
  H+  H61  1  0.80455091  0.70239559  0.51990467  1
  H+  H62  1  0.78654162  0.09463261  0.85014014  1
  H+  H63  1  0.82340373  0.90182173  0.35764028  1
  H+  H64  1  0.15619658  0.13887581  0.50237462  1
  H+  H65  1  0.86004086  0.72695712  0.15337375  1
  H+  H66  1  0.23596857  0.10492189  0.65450674  1
  H+  H67  1  0.21818659  0.39282528  0.98333654  1
  H+  H68  1  0.16383725  0.08547020  0.41655428  1
  H+  H69  1  0.13782272  0.86283937  0.34837902  1
  H+  H70  1  0.20600583  0.59455232  0.66838473  1
  H+  H71  1  0.63969666  0.63928458  0.66670403  1
  H+  H72  1  0.38953735  0.36139669  0.50332821  1
  H+  H73  1  0.85774037  0.10749573  0.16686014  1
  H+  H74  1  0.35670540  0.38326216  0.14830769  1
  H+  H75  1  0.44382999  0.07756239  0.83343051  1
  H+  H76  1  0.87008311  0.74684704  0.35141250  1
  H+  H77  1  0.27787663  0.66180689  0.82952425  1
  H+  H78  1  0.38156954  0.51817539  0.15888063  1
  H+  H79  1  0.38102428  0.57055700  0.83096623  1
  H+  H80  1  0.63233738  1.01688466  0.16649333  1
  H+  H81  1  0.92426420  0.30143727  0.45082686  1
  H+  H82  1  0.23270439  0.87300159  0.14783103  1
  H+  H83  1  0.90527433  0.00833203  0.33931735  1
  H+  H84  1  0.17813360  0.33044045  0.23151976  1
  H+  H85  1  0.61655132  0.36988326  0.49608577  1
  H+  H86  1  0.88603186  0.27958269  0.32102670  1
  H+  H87  1  0.01467157  0.63051659  0.35100430  1
  H+  H88  1  0.24099342  0.86630207  0.51928811  1
  H+  H89  1  0.77521986  0.88188424  0.14934722  1
  H+  H90  1  0.51955715  0.87982188  0.17126334  1
  H+  H91  1  0.63402575  0.79989051  0.83600813  1
  H+  H92  1  0.96395577  0.60969829  0.17273731  1
  H+  H93  1  0.81053477  0.77411978  0.38504247  1
  H+  H94  1  0.63807826  0.76781871  0.16743838  1
  H+  H95  1  0.93190910  0.81339412  0.25650905  1
  H+  H96  1  0.04694113  0.39243272  0.86265693  1
  H+  H97  1  0.26244418  0.63219684  0.16552704  1
  H+  H98  1  0.65150754  0.89986794  0.67965002  1
  H+  H99  1  0.34800028  0.12489056  0.82747961  1
  H+  H100  1  0.60962799  0.88189033  0.16852858  1
  H+  H101  1  0.45146512  0.82269203  0.69155541  1
  H+  H102  1  0.08837073  0.91299349  0.44636199  1
  H+  H103  1  0.34649271  0.16700769  0.40005562  1
  H+  H104  1  0.85079834  0.88668429  0.72492131  1
  H+  H105  1  0.65085975  0.89893766  0.83782081  1
  H+  H106  1  0.40589452  0.03942165  0.28713639  1
  H+  H107  1  0.62064659  0.29136449  0.24711703  1
  H+  H108  1  0.43472019  0.83425322  0.57883734  1
  H+  H109  1  -0.02954457  0.85498334  0.83847094  1
  H+  H110  1  0.63872141  0.10860405  0.50599090  1
  H+  H111  1  0.61796701  0.52042954  0.83670053  1
  H+  H112  1  0.85680865  0.43546522  0.81905317  1
  H+  H113  1  0.10450771  0.97361184  0.36059228  1
  H+  H114  1  0.55786443  0.17513980  0.13422580  1
  H+  H115  1  0.37421418  0.22936060  0.49706162  1
  H+  H116  1  0.40982343  0.87852773  0.66889057  1
  H+  H117  1  0.61700533  0.46499430  0.33477150  1
  H+  H118  1  0.42046881  0.17346209  0.16118413  1
  H+  H119  1  0.71265770  0.86428630  -0.01178551  1
  H+  H120  1  0.14006519  0.85335915  0.65950352  1
  H+  H121  1  0.14181301  0.90871116  0.13081815  1
  H+  H122  1  0.22735738  0.75039115  0.80579560  1
  H+  H123  1  0.89150282  0.86773053  0.16626635  1
  H+  H124  1  0.46573208  0.94415290  -0.09970332  1
  H+  H125  1  0.17129597  0.59896839  0.90761783  1
  H+  H126  1  0.85340076  0.72187227  0.69075431  1
  H+  H127  1  0.84659074  0.71201420  0.00312911  1
  H+  H128  1  0.35271344  0.95849842  0.35997392  1
  H+  H129  1  0.68715937  0.59177333  0.51630371  1
  H+  H130  1  0.34629268  0.61669300  0.01351161  1
  H+  H131  1  0.86929020  0.47785325  1.00085886  1
  H+  H132  1  0.36652057  0.13463664  0.49980691  1
  H+  H133  1  0.21560611  0.85434304  0.11681132  1
  H+  H134  1  0.98770906  0.77601241  0.28074597  1
  H+  H135  1  0.23585485  0.35148943  0.66191848  1
  H+  H136  1  0.02946140  0.66253715  0.00533165  1
  H+  H137  1  0.85251469  0.07968909  0.88664865  1
  H+  H138  1  0.93461496  0.80146298  0.55529582  1
  H+  H139  1  0.36752824  0.13559632  0.67210057  1
  H+  H140  1  0.11773486  0.11728562  0.67548608  1
  H+  H141  1  0.47392116  0.62153196  0.99324845  1
  H+  H142  1  0.47529476  0.36841568  0.66268917  1
  H+  H143  1  0.43808389  1.06681861  0.19875594  1
  H+  H144  1  0.14427719  0.26528678  0.49875511  1
  H+  H145  1  0.21334808  0.60725367  1.00335864  1
  H+  H146  1  0.62819453  0.97501299  0.58485252  1
  H+  H147  1  0.61287267  0.63805481  0.15696098  1
  H+  H148  1  -0.02040383  0.86738171  0.16085685  1
  H+  H149  1  0.36464248  -0.03344800  0.50951888  1
  H+  H150  1  0.12850143  0.60675245  0.51309516  1
  H+  H151  1  0.18313354  0.29571571  0.60503635  1
  H+  H152  1  0.60029127  0.88429613  0.34289613  1
  H+  H153  1  0.72820364  0.62889275  0.33686427  1
  H+  H154  1  0.77014293  0.11416319  -0.00809542  1
  H+  H155  1  0.34515253  0.75680405  0.80419027  1
  H+  H156  1  0.37874869  0.60655298  0.66528361  1
  H+  H157  1  0.14834784  0.02988060  0.14743927  1
  H+  H158  1  0.64654993  0.27352350  0.97096087  1
  H+  H159  1  0.36995548  0.64892137  0.37994973  1
  H+  H160  1  0.87729544  0.60638239  0.67152183  1
  H+  H161  1  0.13318181  0.92433652  0.83384309  1
  H+  H162  1  0.87515264  0.61008240  0.17115927  1
  H+  H163  1  0.15120640  0.39764247  0.93444541  1
  H+  H164  1  0.93438533  0.14315088  0.53969537  1
  H+  H165  1  0.36414424  0.22365717  0.67205441  1
  H+  H166  1  0.72803917  0.36528227  -0.01694047  1
  H+  H167  1  0.38227459  0.34734000  0.31887950  1
  H+  H168  1  0.35610865  0.23996586  0.13778074  1
  H+  H169  1  0.63765234  0.11138988  0.31979985  1
  H+  H170  1  -0.02264125  0.05101041  0.66361689  1
  H+  H171  1  0.12180665  0.74566784  0.00683732  1
  H+  H172  1  0.12324543  0.61527537  0.17598814  1
  H+  H173  1  0.12635135  0.13659049  0.01422017  1
  H+  H174  1  0.87772595  0.35216741  0.99232205  1
  H+  H175  1  0.87561235  0.84210733  0.98899599  1
  H+  H176  1  0.05734295  0.09273524  0.85275107  1
  H+  H177  1  0.12307005  0.23720116  0.34057685  1
  H+  H178  1  0.04354372  0.15056678  0.01490061  1
  H+  H179  1  0.80771633  0.90451789  0.42761011  1
  H+  H180  1  0.36420385  0.21400268  0.33501699  1
  H+  H181  1  0.28026779  0.97274827  0.86154277  1
  H+  H182  1  0.63182901  0.60252673  0.33284652  1
  H+  H183  1  0.27233336  0.12299865  -0.01041974  1
  H+  H184  1  0.85934270  0.38788859  0.33510212  1
  H+  H185  1  0.76359517  0.12785831  0.32595280  1
  H+  H186  1  0.23914142  0.36175885  0.16409800  1
  H+  H187  1  0.77062623  0.93064069  0.51080642  1
  H+  H188  1  0.08540912  0.21242025  0.82012609  1
  H+  H189  1  0.51738272  0.95619826  -0.03916248  1
  H+  H190  1  0.73223353  0.28155345  0.22789053  1
  H+  H191  1  0.51965752  0.21781262  0.44974219  1
  H+  H192  1  0.35912936  0.48111721  1.00275888  1
  H+  H193  1  0.88696914  0.36232022  0.16390868  1
  H+  H194  1  0.63739388  0.02235054  0.31717433  1
  H+  H195  1  0.19806039  0.87762207  0.93264616  1
  H+  H196  1  0.39099108  0.34537687  0.83094892  1
  H+  H197  1  0.87632567  0.60842865  0.32710042  1
  H+  H198  1  0.35990682  0.72711906  -0.02964427  1
  H+  H199  1  0.35207255  0.72029693  0.16698993  1
  H+  H200  1  0.97380541  0.62241768  0.51930505  1
  H+  H201  1  0.36516675  0.87599624  0.51425377  1
  H+  H202  1  0.50976500  0.60946862  0.34106444  1
  H+  H203  1  0.67024232  0.25671255  0.16899612  1
  H+  H204  1  0.62669335  0.61559679  0.99093518  1
  H+  H205  1  1.01907691  0.88719029  0.54398282  1
  H+  H206  1  0.27127323  0.37211781  0.82576383  1
  H+  H207  1  0.14522495  0.36410482  0.32090493  1
  H+  H208  1  0.50914525  0.84414639  0.48995702  1
  H+  H209  1  0.47179728  0.35115057  0.31602153  1
  H+  H210  1  0.76523611  0.13620441  0.14619239  1
  H+  H211  1  0.72311471  0.87558798  0.69087410  1
  H+  H212  1  0.47877559  1.01193030  0.22025507  1
  H+  H213  1  0.02415517  0.87845797  0.34545917  1
  H+  H214  1  0.95031177  1.01692885  0.34513118  1
  H+  H215  1  0.39259593  0.02081820  0.66554529  1
  H+  H216  1  0.23337007  0.87699610  0.84002859  1
  H+  H217  1  0.60867184  0.64732433  0.50498976  1
  H+  H218  1  0.40933335  0.81836809  0.94188993  1
  H+  H219  1  0.84111380  0.35387173  0.48346869  1
  H+  H220  1  0.52417554  0.66570585  0.82962303  1
  H+  H221  1  0.10462386  0.36343357  0.66080256  1
  H+  H222  1  -0.03007275  0.57152550  0.83469855  1
  H+  H223  1  1.01272868  0.38609504  0.15776012  1
  H+  H224  1  0.22992768  0.53227408  0.27697311  1
  H+  H225  1  0.85820382  0.47132233  0.66699672  1
  H+  H226  1  0.87590619  0.15567320  0.32403070  1
  H+  H227  1  0.38467529  0.77307695  0.33440362  1
  H+  H228  1  0.99324883  0.16130146  0.31927522  1
  H+  H229  1  0.85117530  0.47010414  0.34054446  1
  H+  H230  1  0.13674065  0.61277959  0.84403074  1
  H+  H231  1  0.58006118  0.19935918  0.32132984  1
  H+  H232  1  0.10903531  0.40158986  0.01341325  1
  H+  H233  1  0.87123132  0.00742197  0.50106523  1
  H+  H234  1  0.72244676  0.61414019  0.17101347  1
  H+  H235  1  0.17105411  0.83003803  0.58438219  1
  H+  H236  1  0.86128345  0.22614791  0.49054686  1
  H+  H237  1  0.58771258  0.70131453  0.36113328  1
  H+  H238  1  0.03914637  0.13705867  0.15782913  1
  H+  H239  1  0.60390346  0.73931100  0.00039227  1
  H+  H240  1  0.37910841  0.09176555  0.33568890  1
  H+  H241  1  0.84690429  0.71212768  0.82929422  1
  H+  H242  1  0.89886768  0.64470727  0.52291386  1
  H+  H243  1  0.38345806  0.86461470  0.17962037  1
  H+  H244  1  0.61582191  0.14831130  0.67685471  1
  H+  H245  1  0.37769491  0.85719985  0.33677943  1
  H+  H246  1  0.72720325  0.35114899  0.50354946  1
  H+  H247  1  0.05335272  0.14363981  0.76786935  1
  H+  H248  1  0.35028839  0.38727401  0.00836926  1
  H+  H249  1  0.23606387  0.36427349  0.32220099  1
  H+  H250  1  0.85189061  0.20957901  0.99764453  1
  H+  H251  1  0.59103116  0.15780157  0.91026915  1
  H+  H252  1  0.96409932  0.35098248  0.99914647  1
  H+  H253  1  0.75571315  0.62440699  0.00344513  1
  H+  H254  1  0.61537055  0.21216025  0.82630989  1
  H+  H255  1  0.96075887  0.86538034  0.70768963  1
  H+  H256  1  0.11335093  0.72171780  0.49962030  1
  H+  H257  1  0.47023884  0.36729749  0.15883522  1
  H+  H258  1  0.04400256  0.87880904  0.63987994  1
  H+  H259  1  0.13178613  0.62255076  0.00132026  1
  H+  H260  1  0.89476368  0.11950497  0.99413236  1
  H+  H261  1  0.07996239  0.70718598  0.82208139  1
  H+  H262  1  0.75354644  0.36550562  0.65729472  1
  H+  H263  1  0.91053088  0.58789264  0.60860971  1
  H+  H264  1  0.72223053  0.34134352  0.82552126  1
  H+  H265  1  0.33724247  0.85318822  1.02018968  1
  H+  H266  1  0.75443903  0.62826593  0.83041426  1
  H+  H267  1  0.38031746  0.27388373  0.00052134  1
  H+  H268  1  0.62357017  0.13979682  0.13674520  1
  H+  H269  1  0.33525360  0.70480872  0.66946436  1
  H+  H270  1  1.01293011  0.63133437  0.67386695  1
  H+  H271  1  0.65085575  0.58164693  0.93128484  1
  H+  H272  1  0.60958034  0.74989975  0.67994413  1
  H+  H273  1  0.15471692  0.50449420  0.32308478  1
  H+  H274  1  0.49977399  0.62403129  0.50462594  1
  H+  H275  1  0.52352223  0.63765939  0.15376627  1
  H+  H276  1  0.90587887  0.34801886  0.83262539  1
  H+  H277  1  0.06140020  0.00555070  0.85944889  1
  H+  H278  1  0.10913307  0.14427171  0.35689607  1
  H+  H279  1  0.60996377  0.38504701  -0.00168806  1
  H+  H280  1  0.63135099  0.26760858  0.50635025  1
  H+  H281  1  0.85814999  0.97346544  0.14756847  1
  H+  H282  1  0.88276753  0.62457786  0.98761089  1
  H+  H283  1  0.76655872  0.88692222  0.82568720  1
  H+  H284  1  0.42824154  0.01930967  0.97038143  1
  H+  H285  1  0.38114521  0.76308112  0.52744095  1
  H+  H286  1  0.36583608  0.44527822  0.84451686  1
  H+  H287  1  0.63103345  0.12697847  0.96104060  1
  H+  H288  1  0.09070704  0.93048708  0.77267767  1
  H+  H289  1  0.81593529  0.65223942  0.74318222  1
  H+  H290  1  0.14005878  0.39682989  0.48779477  1
  H+  H291  1  0.38996267  0.52357808  0.66428032  1
  H+  H292  1  0.07493921  0.65851689  0.44220391  1
  H+  H293  1  0.32009364  0.66524596  0.73621477  1
  H+  H294  1  0.46652512  0.36216810  1.00948677  1
  H+  H295  1  0.55781625  0.63915338  0.43763974  1
  H+  H296  1  0.66699022  0.58628403  0.23181337  1
  H+  H297  1  0.67768130  0.62736810  0.58143339  1
  H+  H298  1  0.92223356  0.31964045  0.89650853  1
  H+  H299  1  0.32004140  0.66816504  0.45639405  1
  H+  H300  1  0.82857592  0.38332416  0.75726936  1
  H+  H301  1  0.09971488  0.62433293  0.67302490  1
  H+  H302  1  0.65711326  0.84787280  0.92915542  1
  H+  H303  1  0.47689059  0.35691884  0.50671981  1
  H+  H304  1  0.31918451  0.41349363  0.09041774  1
  H+  H305  1  0.32521568  0.15867123  0.76801363  1
  H+  H306  1  0.32633702  0.89596365  0.41773242  1
  H+  H307  1  0.52415797  0.65535550  0.67542795  1
  H+  H308  1  0.40752450  0.32836281  0.21748348  1
  H+  H309  1  0.36189371  0.12188374  -0.00630781  1
  H+  H310  1  0.91447106  0.86249838  0.64870075  1
  H+  H311  1  0.58317185  0.39906704  0.38991783  1
  H+  H312  1  0.58318043  0.68046024  0.06002818  1
  H+  H313  1  0.17639873  0.07844165  0.59474608  1
  H+  H314  1  0.69793142  0.12687156  0.56278873  1
  H+  H315  1  0.92918479  0.03029110  0.60322726  1
  H+  H316  1  0.34000402  0.41802379  0.73207376  1
  H+  H317  1  0.33985708  0.41159867  0.39475818  1
  H+  H318  1  0.81554044  0.13718220  0.39329707  1
  H+  H319  1  0.91981056  0.33399581  0.26048351  1
  H+  H320  1  0.91010766  0.54290496  0.89257865  1
  H+  H321  1  0.62010066  0.61234330  0.83857178  1
  H+  H322  1  0.66482665  0.04875440  0.88441811  1
  H+  H323  1  0.31943380  0.65067729  0.07320337  1
  H+  H324  1  0.80674289  0.05644420  0.46245960  1
  H+  H325  1  0.12288651  0.96606921  0.66174417  1
  H+  H326  1  0.41397118  0.97946845  0.09083562  1
  H+  H327  1  0.90853333  0.81575991  0.92974804  1
  H+  H328  1  0.10225065  0.44966750  0.66971712  1
  H+  H329  1  0.57965781  0.16684813  0.73749332  1
  H+  H330  1  -0.03680384  0.04303548  0.92366266  1
  H+  H331  1  0.83610101  0.42205397  0.06129183  1
  H+  H332  1  0.58276250  0.68779095  0.77036391  1
  H+  H333  1  0.51713986  0.89245498  0.33309430  1
  H+  H334  1  0.81760327  0.03246980  0.21478722  1
  H+  H335  1  0.01121169  0.87536107  -0.00277071  1
  H+  H336  1  0.67925047  0.82622985  0.22594478  1
  H+  H337  1  0.82666378  0.15986462  0.08736552  1
  H+  H338  1  0.57705829  0.42793412  0.72898828  1
  H+  H339  1  0.62391819  0.97479906  0.75019942  1
  H+  H340  1  0.10229956  0.19973108  0.44189573  1
  H+  H341  1  0.13669113  0.48359343  0.86100464  1
  H+  H342  1  0.78446180  0.38219311  0.15992975  1
  H+  H343  1  0.08346903  0.91909797  0.08239956  1
  H+  H344  1  0.61012143  0.45395010  0.49042732  1
  H+  H345  1  0.12315121  0.80582455  0.26328899  1
  H+  H346  1  0.08925540  0.41293065  0.39698372  1
  H+  H347  1  0.68700824  0.82951608  0.38051228  1
  H+  H348  1  0.41708552  0.07635221  0.57201773  1
  H+  H349  1  0.57476968  0.41568305  0.09512876  1
  H+  H350  1  0.57057949  0.89967161  0.43603749  1
  H+  H351  1  0.41255506  0.59918482  0.93551713  1
  H+  H352  1  0.40259675  0.82883351  0.23983518  1
  H+  H353  1  0.16871294  0.30488826  0.88923118  1
  H+  H354  1  0.40875118  0.07507142  0.89959185  1
  H+  H355  1  0.37958158  0.99143389  0.08821266  1
  H+  H356  1  0.41429506  0.33165344  0.60374294  1
  H+  H357  1  0.38161503  0.60729861  0.16751488  1
  H+  H358  1  0.27956143  0.39303962  0.48651667  1
  H+  H359  1  0.81585430  0.39595248  0.42928751  1
  H+  H360  1  0.07565189  0.42737561  0.09023870  1
  H+  H361  1  0.15027966  0.56907520  0.60755970  1
  H+  H362  1  0.33347001  0.17229944  0.07985303  1
  H+  H363  1  0.68550902  0.86296060  0.58859973  1
  H+  H364  1  0.14463163  0.26309401  0.17018638  1
  H+  H365  1  0.67414858  0.32384226  0.59784030  1
  H+  H366  1  0.07654631  0.65859594  0.76050700  1
  H+  H367  1  0.41416588  0.58120766  0.57458697  1
  H+  H368  1  0.39335776  0.66072192  0.84419390  1
  H+  H369  1  0.42203528  0.56749644  0.24882799  1
  H+  H370  1  0.07984294  0.67981109  0.10631924  1
  H+  H371  1  0.93165540  0.12811651  0.25796856  1
  H+  H372  1  0.85626935  0.72609651  0.45893592  1
  H+  H373  1  0.90800623  0.32374131  0.58721942  1
  H+  H374  1  0.66647904  0.08535290  0.22036893  1
  H+  H375  1  0.39014212  0.25812961  0.83428373  1
  H+  H376  1  0.82780522  0.90288465  0.05340697  1
  H+  H377  1  0.97964173  0.36808924  0.63885613  1
  H+  H378  1  0.90675261  0.58290734  0.26669787  1
  H+  H379  1  0.66683856  0.32854691  0.88531659  1
  H+  H380  1  0.56483086  0.17211818  0.41989913  1
  H+  H381  1  0.82298937  0.66140996  0.09691861  1
  H+  H382  1  0.09767202  0.16870384  0.08873520  1
  H+  H383  1  0.66571933  0.05865501  0.66853289  1
  O2-  O384  1  0.09859202  0.16900564  0.14387494  1
  O2-  O385  1  0.11312601  0.20125450  0.48642934  1
  O2-  O386  1  0.04330591  0.15202060  0.81108956  1
  O2-  O387  1  0.07426686  0.42394018  0.14273359  1
  O2-  O388  1  0.09926092  0.42189404  0.47256226  1
  O2-  O389  1  0.11177130  0.42161186  0.86979585  1
  O2-  O390  1  0.07154451  0.66470995  0.15040215  1
  O2-  O391  1  0.08028075  0.66076062  0.48864473  1
  O2-  O392  1  0.07779948  0.65529575  0.80669387  1
  O2-  O393  1  0.09801721  0.92600428  0.12822027  1
  O2-  O394  1  0.10556865  0.92465588  0.49028479  1
  O2-  O395  1  0.08212246  0.92498048  0.81678344  1
  O2-  O396  1  0.32902523  0.17741842  0.12557056  1
  O2-  O397  1  0.34489762  0.16965901  0.47911064  1
  O2-  O398  1  0.32300461  0.15989464  0.81292909  1
  O2-  O399  1  0.32127683  0.41119031  0.13697974  1
  O2-  O400  1  0.34287013  0.41604384  0.47088243  1
  O2-  O401  1  0.33296110  0.40689256  0.81146306  1
  O2-  O402  1  0.32396405  0.65913717  0.15353100  1
  O2-  O403  1  0.32320309  0.66132948  0.50085300  1
  O2-  O404  1  0.33119476  0.69421792  0.80456598  1
  O2-  O405  1  0.42405067  1.01082949  0.21866179  1
  O2-  O406  1  0.33215115  0.90366699  0.49821771  1
  O2-  O407  1  0.24947422  0.81105410  0.79648704  1
  O2-  O408  1  0.61666829  0.18876447  0.12319625  1
  O2-  O409  1  0.54778371  0.18514820  0.46067609  1
  O2-  O410  1  0.57923397  0.14844001  0.81832248  1
  O2-  O411  1  0.56610206  0.41406008  0.14012573  1
  O2-  O412  1  0.58158675  0.39463244  0.47660961  1
  O2-  O413  1  0.58150750  0.41848202  0.80701847  1
  O2-  O414  1  0.58493061  0.67088209  0.14135950  1
  O2-  O415  1  0.56158635  0.65387483  0.48306062  1
  O2-  O416  1  0.58449686  0.68949456  0.81584465  1
  O2-  O417  1  0.58032897  0.91458196  0.15923577  1
  O2-  O418  1  0.56186420  0.85625337  0.46686617  1
  O2-  O419  1  0.61909421  0.96737794  0.81440986  1
  O2-  O420  1  0.82725999  0.16591001  0.13346224  1
  O2-  O421  1  0.80658605  0.11192405  0.45417661  1
  O2-  O422  1  0.83710088  0.12319622  0.87657717  1
  O2-  O423  1  0.84058816  0.41985948  0.13908299  1
  O2-  O424  1  0.81351333  0.38803067  0.47459762  1
  O2-  O425  1  0.82435828  0.37581405  0.80191510  1
  O2-  O426  1  0.82708801  0.66511933  0.14252772  1
  O2-  O427  1  0.86244421  0.72149656  0.50360347  1
  O2-  O428  1  0.81403480  0.65208751  0.81488504  1
  O2-  O429  1  0.83567477  0.91348042  0.13396531  1
  O2-  O430  1  0.81573095  0.97132661  0.47982117  1
  O2-  O431  1  0.82511824  0.90217079  0.80881708  1
  O2-  O432  1  0.17884204  0.09102694  0.16274163  1
  O2-  O433  1  0.17821898  0.09723783  0.50609247  1
  O2-  O434  1  0.05823356  0.04992583  0.88397392  1
  O2-  O435  1  0.17683718  0.32587921  0.18487874  1
  O2-  O436  1  0.19177524  0.36367996  0.51059578  1
  O2-  O437  1  0.17044073  0.31830093  0.84585456  1
  O2-  O438  1  0.15222404  0.58142989  0.18740866  1
  O2-  O439  1  0.15936503  0.57693587  0.52920064  1
  O2-  O440  1  0.17760755  0.59739425  0.86251421  1
  O2-  O441  1  0.08152873  0.78622529  0.22782148  1
  O2-  O442  1  0.17694154  0.83963362  0.53250809  1
  O2-  O443  1  0.22396129  0.91899283  0.86444044  1
  O2-  O444  1  0.46787627  0.16781773  0.17919583  1
  O2-  O445  1  0.40830045  0.07017849  0.52636899  1
  O2-  O446  1  0.39093771  0.06322870  0.85566860  1
  O2-  O447  1  0.40659107  0.33445141  0.17253299  1
  O2-  O448  1  0.41679843  0.32962267  0.52187780  1
  O2-  O449  1  0.42537807  0.32072973  0.84608124  1
  O2-  O450  1  0.41480195  0.57731155  0.17644400  1
  O2-  O451  1  0.41519624  0.58342828  0.52829646  1
  O2-  O452  1  0.41654719  0.62187717  0.85496963  1
  O2-  O453  1  0.40349052  0.82621977  0.19410583  1
  O2-  O454  1  0.42017398  0.82604331  0.53471453  1
  O2-  O455  1  0.34334005  0.84586436  0.79074573  1
  O2-  O456  1  0.66442792  0.08096893  0.17536709  1
  O2-  O457  1  0.69860168  0.13457958  0.51796081  1
  O2-  O458  1  0.66753780  0.05603123  0.83796414  1
  O2-  O459  1  0.70356740  0.30367524  0.20208526  1
  O2-  O460  1  0.66668701  0.32563082  0.52411703  1
  O2-  O461  1  0.66170269  0.31802742  0.84053016  1
  O2-  O462  1  0.66235949  0.58651696  0.18685970  1
  O2-  O463  1  0.68459292  0.63994390  0.53436054  1
  O2-  O464  1  0.64672610  0.57955316  0.85488503  1
  O2-  O465  1  0.67349898  0.82962021  0.18210340  1
  O2-  O466  1  0.69028562  0.85840879  0.54366554  1
  O2-  O467  1  0.67139183  0.85869034  0.85263943  1
  O2-  O468  1  0.87131702  0.06829359  0.19305328  1
  O2-  O469  1  0.95552675  0.10367421  0.53173834  1
  O2-  O470  1  0.90989838  0.03666906  0.94331742  1
  O2-  O471  1  0.91510402  0.32964764  0.17970913  1
  O2-  O472  1  0.89902398  0.28882677  0.49134633  1
  O2-  O473  1  0.94699612  0.33743300  0.85548385  1
  O2-  O474  1  0.90390856  0.57921746  0.18856981  1
  O2-  O475  1  0.91639855  0.60358999  0.53701767  1
  O2-  O476  1  0.91102070  0.53263456  0.84900301  1
  O2-  O477  1  0.92233668  0.83693426  0.17976059  1
  O2-  O478  1  0.97777912  0.85417457  0.57657362  1
  O2-  O479  1  0.91037543  0.82368958  0.85336814  1
  O2-  O480  1  0.16187321  0.08376388  0.37165499  1
  O2-  O481  1  0.17497213  0.06973294  0.63910233  1
  O2-  O482  1  0.16069488  0.08196891  0.97781234  1
  O2-  O483  1  0.17674132  0.33593827  0.30353570  1
  O2-  O484  1  0.17610608  0.31358807  0.64556594  1
  O2-  O485  1  0.15682738  0.36933273  0.97205559  1
  O2-  O486  1  0.20233971  0.55690413  0.30160829  1
  O2-  O487  1  0.14605924  0.56699548  0.65298380  1
  O2-  O488  1  0.15312687  0.58409506  0.98672618  1
  O2-  O489  1  0.16159335  0.82746837  0.33155841  1
  O2-  O490  1  0.16863402  0.82079796  0.64245542  1
  O2-  O491  1  0.18044634  0.85599794  0.97598680  1
  O2-  O492  1  0.40583608  0.05469423  0.33119171  1
  O2-  O493  1  0.41939826  0.07972132  0.64752385  1
  O2-  O494  1  0.43140654  0.07615871  0.97352119  1
  O2-  O495  1  0.41152326  0.31759135  0.30113212  1
  O2-  O496  1  0.41271808  0.33107332  0.64888311  1
  O2-  O497  1  0.40302972  0.33402210  1.01263972  1
  O2-  O498  1  0.41838350  0.56733900  0.29515227  1
  O2-  O499  1  0.41568714  0.58423867  0.64889052  1
  O2-  O500  1  0.41250270  0.58659534  0.97951568  1
  O2-  O501  1  0.40948727  0.83104220  0.31621624  1
  O2-  O502  1  0.45082060  0.85718438  0.65754322  1
  O2-  O503  1  0.38430913  0.75725905  0.93193852  1
  O2-  O504  1  0.67071349  0.08422396  0.30322437  1
  O2-  O505  1  0.67789307  0.11309847  0.64292231  1
  O2-  O506  1  0.67496532  0.06448838  0.95788167  1
  O2-  O507  1  0.56814785  0.26862174  0.27332646  1
  O2-  O508  1  0.68198166  0.33018317  0.64365364  1
  O2-  O509  1  0.66897313  0.33628743  0.96625334  1
  O2-  O510  1  0.67368710  0.58612465  0.31741983  1
  O2-  O511  1  0.66661541  0.60763691  0.64782700  1
  O2-  O512  1  0.65448279  0.58251786  0.97702273  1
  O2-  O513  1  0.62371643  0.80373997  0.37287843  1
  O2-  O514  1  0.67027572  0.85785680  0.66692770  1
  O2-  O515  1  0.65336945  0.84675565  0.97478866  1
  O2-  O516  1  0.94777927  0.16486734  0.29492055  1
  O2-  O517  1  0.93088723  0.00267357  0.64122274  1
  O2-  O518  1  0.94273059  0.10445932  0.98989122  1
  O2-  O519  1  0.92350659  0.33807704  0.30584048  1
  O2-  O520  1  0.93232891  0.37095829  0.61622099  1
  O2-  O521  1  0.90577138  0.31811988  0.98211485  1
  O2-  O522  1  0.90964633  0.58291725  0.31236291  1
  O2-  O523  1  0.90887732  0.57832784  0.65458291  1
  O2-  O524  1  0.93042920  0.62090320  0.96547755  1
  O2-  O525  1  0.94896930  0.79653398  0.29503347  1
  O2-  O526  1  0.90288752  0.83936898  0.69054891  1
  O2-  O527  1  0.90952632  0.81408831  0.97555669  1
  O2-  O528  1  0.10167077  0.17141423  0.03345223  1
  O2-  O529  1  0.08293848  0.18160411  0.36069562  1
  O2-  O530  1  0.08238498  0.14145948  0.69115466  1
  O2-  O531  1  0.07454481  0.42766618  0.03265368  1
  O2-  O532  1  0.08900146  0.41030271  0.35096577  1
  O2-  O533  1  0.06829961  0.38673004  0.67464984  1
  O2-  O534  1  0.08723808  0.68752157  0.02466913  1
  O2-  O535  1  0.07222774  0.65745908  0.36989363  1
  O2-  O536  1  0.07562082  0.66191640  0.68642806  1
  O2-  O537  1  0.07212793  0.91232198  0.01252961  1
  O2-  O538  1  0.07788004  0.91087957  0.36940899  1
  O2-  O539  1  0.08804536  0.90352294  0.67315349  1
  O2-  O540  1  0.33161650  0.15259541  0.00647009  1
  O2-  O541  1  0.33607047  0.15648699  0.35534881  1
  O2-  O542  1  0.33243043  0.16191889  0.68453435  1
  O2-  O543  1  0.32021506  0.42105547  0.01716158  1
  O2-  O544  1  0.33552921  0.40611192  0.34887129  1
  O2-  O545  1  0.33871028  0.41893933  0.68687782  1
  O2-  O546  1  0.30937652  0.63989403  0.02888236  1
  O2-  O547  1  0.33091469  0.67126402  0.37434242  1
  O2-  O548  1  0.31562064  0.65046746  0.69065431  1
  O2-  O549  1  0.45912518  0.94097056  -0.05554606  1
  O2-  O550  1  0.32317621  0.89619004  0.37250519  1
  O2-  O551  1  0.34641297  0.91447246  0.68906029  1
  O2-  O552  1  0.60206995  0.16292941  -0.04566580  1
  O2-  O553  1  0.57498164  0.15084195  0.34722262  1
  O2-  O554  1  0.58169986  0.17462229  0.69243015  1
  O2-  O555  1  0.57999596  0.41364212  0.01651596  1
  O2-  O556  1  0.57948632  0.40364216  0.34527658  1
  O2-  O557  1  0.57023257  0.42947089  0.68395729  1
  O2-  O558  1  0.57840506  0.67847611  0.01493934  1
  O2-  O559  1  0.56357630  0.63720697  0.36556881  1
  O2-  O560  1  0.58362784  0.68781197  0.69158494  1
  O2-  O561  1  0.61544527  0.98384603  -0.00963048  1
  O2-  O562  1  0.57880726  0.92540940  0.34578946  1
  O2-  O563  1  0.62442439  0.97313122  0.70061413  1
  O2-  O564  1  0.82772511  0.14976339  0.01345768  1
  O2-  O565  1  0.82354177  0.15914471  0.34673047  1
  O2-  O566  1  0.76220174  0.17728732  0.65294763  1
  O2-  O567  1  0.83538108  0.41905266  0.01562309  1
  O2-  O568  1  0.82239638  0.40883873  0.35208667  1
  O2-  O569  1  0.83160629  0.40745126  0.67426018  1
  O2-  O570  1  0.81642860  0.65190062  0.01946725  1
  O2-  O571  1  0.82206736  0.72563897  0.38117301  1
  O2-  O572  1  0.82079886  0.65876600  0.69669481  1
  O2-  O573  1  0.82040206  0.89077561  0.00907404  1
  O2-  O574  1  0.79220626  0.86369572  0.39156336  1
  O2-  O575  1  0.81017171  0.90313722  0.74353463  1
