# generated using pymatgen
data_H2O
_symmetry_space_group_name_H-M   'P 1'
_cell_length_a   17.99642529
_cell_length_b   17.99373078
_cell_length_c   21.99984804
_cell_angle_alpha   90.00997720
_cell_angle_beta   90.01558691
_cell_angle_gamma   120.01097562
_symmetry_Int_Tables_number   1
_chemical_formula_structural   H2O
_chemical_formula_sum   'H384 O192'
_cell_volume   6168.92786772
_cell_formula_units_Z   192
loop_
 _symmetry_equiv_pos_site_id
 _symmetry_equiv_pos_as_xyz
  1  'x, y, z'
loop_
 _atom_type_symbol
 _atom_type_oxidation_number
  H+  1.0
  O2-  -2.0
loop_
 _atom_site_type_symbol
 _atom_site_label
 _atom_site_symmetry_multiplicity
 _atom_site_fract_x
 _atom_site_fract_y
 _atom_site_fract_z
 _atom_site_occupancy
  H+  H0  1  0.93065502  0.10747200  0.23254494  1
  H+  H1  1  0.60668029  0.72013875  1.01214891  1
  H+  H2  1  0.13970510  0.10698546  0.84086126  1
  H+  H3  1  0.28690727  0.38471376  0.33952317  1
  H+  H4  1  0.91558765  0.09790579  0.60190269  1
  H+  H5  1  0.53101657  0.89570365  0.67733051  1
  H+  H6  1  0.85592533  0.85169425  0.81535854  1
  H+  H7  1  0.14932740  0.87663829  0.32755617  1
  H+  H8  1  0.00119919  0.38824351  0.81825654  1
  H+  H9  1  0.72011556  0.84917134  0.65428796  1
  H+  H10  1  0.67502839  0.51417760  0.15782862  1
  H+  H11  1  0.09305979  0.40068819  0.80308822  1
  H+  H12  1  0.36293485  0.47431908  0.00961859  1
  H+  H13  1  0.28759669  0.38988319  0.82942911  1
  H+  H14  1  0.40651460  0.51842113  0.32508351  1
  H+  H15  1  0.62009506  0.12553648  0.16337260  1
  H+  H16  1  0.52659611  0.37748942  0.34579246  1
  H+  H17  1  0.07728064  0.06150005  0.65038413  1
  H+  H18  1  0.84818100  0.37650944  0.67481782  1
  H+  H19  1  0.38637469  0.85045091  0.50835590  1
  H+  H20  1  0.77410997  0.13426272  0.83320086  1
  H+  H21  1  0.40348652  0.10550113  0.50727622  1
  H+  H22  1  0.14634625  0.53275672  0.98852522  1
  H+  H23  1  0.38720387  0.61398589  0.99947299  1
  H+  H24  1  0.11388638  0.52690197  0.83624460  1
  H+  H25  1  0.13756503  1.02808372  0.00171135  1
  H+  H26  1  0.06274096  0.66553208  0.34471578  1
  H+  H27  1  0.87562287  0.27735001  0.66283827  1
  H+  H28  1  0.98343093  0.84777660  0.32847856  1
  H+  H29  1  0.38396398  0.48199214  0.67234562  1
  H+  H30  1  0.11689728  -0.03011894  0.82430633  1
  H+  H31  1  0.49803790  0.60915298  0.65551233  1
  H+  H32  1  0.88210585  0.27179617  0.84108356  1
  H+  H33  1  0.40737157  0.78563124  0.65698610  1
  H+  H34  1  0.49313360  0.12691756  0.19885194  1
  H+  H35  1  0.88410356  0.99143264  0.17366325  1
  H+  H36  1  0.11163240  0.88890713  0.17323208  1
  H+  H37  1  0.88893711  0.56989077  0.21541772  1
  H+  H38  1  0.52736544  0.89319235  1.01353425  1
  H+  H39  1  0.94037807  0.06868409  0.66303012  1
  H+  H40  1  0.86115484  0.47948890  0.14437449  1
  H+  H41  1  0.63270874  0.00127230  0.17311172  1
  H+  H42  1  0.60124912  0.60811449  0.28483818  1
  H+  H43  1  0.72854744  0.35828318  0.17201739  1
  H+  H44  1  0.38250730  0.40859328  0.16532260  1
  H+  H45  1  0.73618489  0.89017119  0.50115003  1
  H+  H46  1  0.37655699  -0.03087473  0.50256791  1
  H+  H47  1  0.60895773  0.63174733  0.00950652  1
  H+  H48  1  0.36457864  0.14060863  0.01375823  1
  H+  H49  1  0.09674675  0.62757587  0.83097647  1
  H+  H50  1  0.84232173  0.50340627  0.32277488  1
  H+  H51  1  1.02381618  0.13762179  1.01614639  1
  H+  H52  1  0.62494164  0.63196814  0.66722383  1
  H+  H53  1  0.01782456  0.88238800  0.17333319  1
  H+  H54  1  0.63690256  0.35970341  0.83997472  1
  H+  H55  1  0.80740399  0.01415264  0.54200705  1
  H+  H56  1  0.86978362  -0.02629368  0.48246349  1
  H+  H57  1  0.12884526  -0.04543317  0.66210261  1
  H+  H58  1  0.86639832  0.85752030  0.03104392  1
  H+  H59  1  0.87522529  0.89727369  0.17646352  1
  H+  H60  1  0.61454304  0.13787155  0.01075405  1
  H+  H61  1  0.34211846  0.13274663  0.32284135  1
  H+  H62  1  0.91767320  0.33930735  0.93227092  1
  H+  H63  1  -0.01981063  0.85330749  0.65425555  1
  H+  H64  1  0.79515433  0.63970529  0.14391632  1
  H+  H65  1  0.87709530  0.35925130  0.83989957  1
  H+  H66  1  0.10417608  0.09388569  0.62633083  1
  H+  H67  1  0.28161334  0.65053072  0.01288119  1
  H+  H68  1  0.72763044  0.36881514  0.51722052  1
  H+  H69  1  0.85322952  0.69332334  -0.07362362  1
  H+  H70  1  0.31736778  0.66008949  0.69594549  1
  H+  H71  1  0.88826341  0.77240989  0.49849404  1
  H+  H72  1  0.97945838  0.37280847  0.99093820  1
  H+  H73  1  0.15701855  0.86833182  0.96400757  1
  H+  H74  1  0.10421287  0.97696907  0.33725622  1
  H+  H75  1  0.88892471  0.76149386  0.83255229  1
  H+  H76  1  0.63699271  0.26881171  1.00188073  1
  H+  H77  1  0.04189314  0.40557770  0.14631379  1
  H+  H78  1  0.61457490  0.98445425  0.69006773  1
  H+  H79  1  0.66923424  0.07050536  0.49567926  1
  H+  H80  1  0.63776317  0.35150016  0.17173943  1
  H+  H81  1  0.38978783  -0.01529162  0.83244432  1
  H+  H82  1  0.11423318  0.22706098  0.01359821  1
  H+  H83  1  0.67947560  0.03373990  0.61943033  1
  H+  H84  1  0.86366751  0.93277010  0.38174946  1
  H+  H85  1  0.88739907  0.53018196  0.50645909  1
  H+  H86  1  0.87142933  0.88644166  0.48165675  1
  H+  H87  1  0.15974087  0.62659149  0.32947145  1
  H+  H88  1  0.54506521  0.39526482  0.68069925  1
  H+  H89  1  0.63213877  0.15673219  0.49726614  1
  H+  H90  1  0.12887118  0.11519253  0.17632081  1
  H+  H91  1  0.39014887  0.27391553  -0.00323954  1
  H+  H92  1  0.13131167  0.77696341  0.18309014  1
  H+  H93  1  0.35677520  0.21527813  0.67407239  1
  H+  H94  1  0.89346771  0.21703830  0.35172954  1
  H+  H95  1  0.36052679  0.37986489  0.49283733  1
  H+  H96  1  0.53666692  0.63423239  0.34688315  1
  H+  H97  1  0.63889634  0.14542299  0.67199078  1
  H+  H98  1  0.84875366  0.38764792  0.35442649  1
  H+  H99  1  0.86722348  0.14592527  0.16016566  1
  H+  H100  1  0.39731995  0.36830806  0.83922488  1
  H+  H101  1  0.57357424  0.17405212  0.41312856  1
  H+  H102  1  0.10668542  0.49243291  0.66490658  1
  H+  H103  1  0.10443761  0.73349368  0.82797562  1
  H+  H104  1  0.18922611  0.62058750  0.69022583  1
  H+  H105  1  0.38351890  0.26902815  0.49282710  1
  H+  H106  1  0.98089461  0.37610234  0.51230450  1
  H+  H107  1  0.40039707  0.60417154  0.32060230  1
  H+  H108  1  0.92480253  0.59050567  0.30783892  1
  H+  H109  1  0.24433806  0.38539912  0.50822495  1
  H+  H110  1  0.71694279  0.85788990  0.30981584  1
  H+  H111  1  0.53281370  0.38553675  0.82343431  1
  H+  H112  1  0.36371079  -0.02004128  1.00258283  1
  H+  H113  1  0.97531449  0.85270403  0.83254969  1
  H+  H114  1  0.99294589  0.13762851  0.17492870  1
  H+  H115  1  0.17917924  0.35485449  0.38864214  1
  H+  H116  1  0.67838158  0.58485734  0.20215939  1
  H+  H117  1  0.49777625  0.11926396  0.51348067  1
  H+  H118  1  0.63837510  0.37705808  0.67334925  1
  H+  H119  1  0.34584129  0.14250326  0.42608459  1
  H+  H120  1  0.62503400  0.26641064  0.32858381  1
  H+  H121  1  0.12533991  0.73222128  1.00630663  1
  H+  H122  1  0.65635591  0.88541329  0.85583084  1
  H+  H123  1  0.89104498  0.77309358  0.16937007  1
  H+  H124  1  0.61930102  0.71939342  0.66454354  1
  H+  H125  1  0.22120222  0.86173587  0.17326590  1
  H+  H126  1  0.90149973  0.12778694  0.84846761  1
  H+  H127  1  0.29447150  0.63301751  0.46371075  1
  H+  H128  1  0.95867038  0.86485142  1.02930383  1
  H+  H129  1  0.12709957  0.27386220  0.34863342  1
  H+  H130  1  0.62358257  0.84275649  0.31490354  1
  H+  H131  1  0.16820091  0.07763401  0.90043861  1
  H+  H132  1  0.06886703  0.72129875  0.69192940  1
  H+  H133  1  0.88809339  0.11485906  0.00140705  1
  H+  H134  1  0.61675179  0.97724527  0.83479594  1
  H+  H135  1  0.63020673  0.22847803  0.67982571  1
  H+  H136  1  0.36610067  0.48552495  0.16037874  1
  H+  H137  1  0.28901087  0.89334077  0.67476706  1
  H+  H138  1  0.62551854  0.21779160  0.16531226  1
  H+  H139  1  0.02910809  0.88332771  0.48771278  1
  H+  H140  1  0.11027244  0.64577654  0.50357416  1
  H+  H141  1  0.40281855  0.60737247  0.50272040  1
  H+  H142  1  0.03749130  0.18966761  0.67428868  1
  H+  H143  1  0.39656106  0.11605583  0.84091520  1
  H+  H144  1  0.75509826  0.37643104  0.34562125  1
  H+  H145  1  0.36697370  0.89180736  0.00255757  1
  H+  H146  1  0.75510457  0.37065216  0.00088211  1
  H+  H147  1  0.41113322  0.61365563  0.65326748  1
  H+  H148  1  0.77215012  0.13201676  0.15903658  1
  H+  H149  1  0.11020627  0.86323531  0.67576610  1
  H+  H150  1  0.39333392  0.78134900  0.99941670  1
  H+  H151  1  0.81596777  0.92109632  0.08798461  1
  H+  H152  1  0.61598165  0.23764663  0.50258469  1
  H+  H153  1  0.10165090  0.62244384  0.67536613  1
  H+  H154  1  0.32857942  0.65753851  0.62222704  1
  H+  H155  1  0.02533584  0.63706007  0.16099349  1
  H+  H156  1  0.32327456  0.14964920  0.25559086  1
  H+  H157  1  0.86040835  0.63461577  0.48841578  1
  H+  H158  1  0.44700596  0.13172526  0.37447915  1
  H+  H159  1  0.51615863  0.48169259  0.21773047  1
  H+  H160  1  0.14651619  0.87149082  0.50828572  1
  H+  H161  1  0.33152523  0.15822169  0.11883613  1
  H+  H162  1  0.52788799  0.63258534  0.82434839  1
  H+  H163  1  0.88742125  0.27650560  0.15639040  1
  H+  H164  1  0.47299495  0.60911125  -0.00166517  1
  H+  H165  1  0.34370109  0.69050934  0.07129798  1
  H+  H166  1  0.59021148  0.63010797  0.21713376  1
  H+  H167  1  0.52713833  0.38560150  0.49595068  1
  H+  H168  1  0.28580388  0.62483009  0.33007720  1
  H+  H169  1  0.16041364  0.54944753  0.17110204  1
  H+  H170  1  0.86935959  0.15030274  0.67833840  1
  H+  H171  1  0.24282630  0.37833776  0.17422146  1
  H+  H172  1  0.62012598  0.22281111  0.82965676  1
  H+  H173  1  0.63773182  1.02410795  0.00269141  1
  H+  H174  1  0.14369048  0.61992751  0.99472043  1
  H+  H175  1  0.40281024  0.87405165  0.83825565  1
  H+  H176  1  0.97562195  0.62196202  0.50398331  1
  H+  H177  1  0.34349928  0.41247222  0.39934051  1
  H+  H178  1  0.52674338  0.38391473  0.00101127  1
  H+  H179  1  0.13055355  0.40714616  0.15433929  1
  H+  H180  1  0.48758044  0.11894098  0.84124912  1
  H+  H181  1  0.34511966  0.42570120  0.76915935  1
  H+  H182  1  0.92128897  0.83048494  0.55791228  1
  H+  H183  1  0.09040146  0.88241335  0.03137367  1
  H+  H184  1  0.28506026  0.90469465  0.34446729  1
  H+  H185  1  0.11831011  0.49278604  0.50374532  1
  H+  H186  1  0.42230838  0.33377831  0.89820481  1
  H+  H187  1  0.15055893  0.40127991  0.65455298  1
  H+  H188  1  0.76908654  0.63023800  0.67151504  1
  H+  H189  1  0.40675800  1.12535234  0.19884549  1
  H+  H190  1  0.24305657  0.86703896  0.97785440  1
  H+  H191  1  0.52372966  0.89103286  0.31799076  1
  H+  H192  1  0.10295153  0.39451682  0.34719250  1
  H+  H193  1  0.88854497  0.84953895  0.65309900  1
  H+  H194  1  0.61556046  0.38061584  0.34543818  1
  H+  H195  1  0.91585639  0.59255363  0.59736584  1
  H+  H196  1  0.12725809  0.84918412  0.82864149  1
  H+  H197  1  0.23216148  0.36111480  1.00380204  1
  H+  H198  1  0.08564423  0.13325401  0.34449947  1
  H+  H199  1  0.38896545  0.53189610  0.84239796  1
  H+  H200  1  0.22633996  0.10919035  0.49059878  1
  H+  H201  1  0.15303215  0.39472165  0.50898506  1
  H+  H202  1  0.87477822  0.61113267  0.65793150  1
  H+  H203  1  0.83329833  0.62305154  0.33829672  1
  H+  H204  1  0.27730672  0.13555714  0.82827658  1
  H+  H205  1  0.76624540  0.37635701  0.82978071  1
  H+  H206  1  0.27707575  0.14179372  1.01354663  1
  H+  H207  1  0.63853392  0.10841801  0.84488424  1
  H+  H208  1  0.85338659  0.46758806  0.83061950  1
  H+  H209  1  0.20270953  0.11527651  0.31847408  1
  H+  H210  1  0.49866601  0.86176688  0.15728317  1
  H+  H211  1  0.86446356  0.72776317  0.34373537  1
  H+  H212  1  0.40174897  0.89124881  0.30992379  1
  H+  H213  1  0.64427898  0.51543937  0.66381536  1
  H+  H214  1  0.25190939  0.07822426  0.64866277  1
  H+  H215  1  0.66847089  0.33970719  0.61156716  1
  H+  H216  1  0.82644986  0.11929820  0.34340730  1
  H+  H217  1  0.33703656  0.85791332  0.14945023  1
  H+  H218  1  0.39178509  0.11763181  0.66472295  1
  H+  H219  1  0.11855048  0.97301735  0.48748885  1
  H+  H220  1  0.39076390  0.02124399  0.66229532  1
  H+  H221  1  0.77784082  0.14199513  0.66899206  1
  H+  H222  1  0.25949984  0.11894388  0.16929037  1
  H+  H223  1  0.13344466  0.07915617  0.26947209  1
  H+  H224  1  0.86505829  0.59283099  0.84282288  1
  H+  H225  1  0.89250850  0.61512111  0.15307118  1
  H+  H226  1  0.35491024  0.34664863  0.65490729  1
  H+  H227  1  0.86087326  0.71899709  0.67069173  1
  H+  H228  1  0.37211181  0.47527866  0.49263448  1
  H+  H229  1  0.54828412  0.40652234  0.16103449  1
  H+  H230  1  0.28205641  0.88659378  0.50162083  1
  H+  H231  1  0.86549183  0.23150185  0.00553609  1
  H+  H232  1  0.63805532  0.36734276  0.51481814  1
  H+  H233  1  0.28609223  0.40939224  0.67458458  1
  H+  H234  1  0.97001626  0.36898545  0.34664715  1
  H+  H235  1  0.15321784  0.31304131  0.65811508  1
  H+  H236  1  0.21928571  0.63111789  0.53620583  1
  H+  H237  1  0.76713914  0.63014400  0.49088032  1
  H+  H238  1  0.88379900  0.02473766  1.00725244  1
  H+  H239  1  0.36539701  0.03677122  0.37303210  1
  H+  H240  1  0.61645148  0.47361434  0.00234872  1
  H+  H241  1  0.14833367  0.63064037  0.17776057  1
  H+  H242  1  0.72625911  0.11386586  0.99751881  1
  H+  H243  1  0.64647384  0.61357678  0.50669088  1
  H+  H244  1  0.63788472  0.86052356  0.65987940  1
  H+  H245  1  0.66232074  0.00670431  0.32337582  1
  H+  H246  1  0.64331157  0.52158087  0.50551791  1
  H+  H247  1  0.89607436  0.28501909  0.50637530  1
  H+  H248  1  0.58043685  0.84789070  0.15379385  1
  H+  H249  1  0.37993492  0.89783567  0.67198234  1
  H+  H250  1  0.10952397  0.48628258  0.34088569  1
  H+  H251  1  0.15200335  0.25993576  0.84597907  1
  H+  H252  1  0.03105571  0.14431932  0.83428675  1
  H+  H253  1  0.46125793  0.61991105  0.16921532  1
  H+  H254  1  0.35877179  0.66912025  0.38018188  1
  H+  H255  1  0.36540994  0.22702288  0.82771792  1
  H+  H256  1  0.84362873  0.94323558  0.67544715  1
  H+  H257  1  0.54325181  0.63509198  0.49423368  1
  H+  H258  1  0.15053099  0.34556434  0.85672823  1
  H+  H259  1  0.03328840  0.64919625  0.01868116  1
  H+  H260  1  0.76549003  0.62805309  0.82689762  1
  H+  H261  1  1.01579520  0.11258997  0.50647078  1
  H+  H262  1  0.86554042  0.39171649  0.14274944  1
  H+  H263  1  0.86319229  0.10941995  0.51562704  1
  H+  H264  1  0.69172600  0.10493605  0.33011637  1
  H+  H265  1  0.90004729  0.63361811  0.99691276  1
  H+  H266  1  0.49216262  0.86514131  0.84186946  1
  H+  H267  1  -0.01731943  0.62608992  0.67188093  1
  H+  H268  1  0.78747719  0.16232901  0.49188614  1
  H+  H269  1  0.85945759  0.38029677  0.99917748  1
  H+  H270  1  0.37258298  0.72198497  0.48967681  1
  H+  H271  1  0.62854250  0.85875191  0.01047749  1
  H+  H272  1  0.61786916  0.89852161  0.48655213  1
  H+  H273  1  0.43218691  0.84386855  0.59967028  1
  H+  H274  1  0.47909458  0.11657091  0.00013020  1
  H+  H275  1  0.75822023  0.88559895  1.02806406  1
  H+  H276  1  0.58820876  0.40503394  0.09520056  1
  H+  H277  1  0.62461270  0.72099476  0.34215308  1
  H+  H278  1  0.37363990  0.64723105  0.84386499  1
  H+  H279  1  0.86447362  0.74123360  0.98917693  1
  H+  H280  1  0.86452306  0.39529215  0.49805911  1
  H+  H281  1  0.14317786  0.78160115  0.51017733  1
  H+  H282  1  0.11857389  0.39016529  0.00017030  1
  H+  H283  1  0.17857215  0.76772008  0.64797945  1
  H+  H284  1  0.76343725  0.84686689  0.81811010  1
  H+  H285  1  0.63848053  0.36118420  0.99739721  1
  H+  H286  1  0.55598308  0.12452686  0.34896835  1
  H+  H287  1  0.39165407  0.36331434  0.99506270  1
  H+  H288  1  0.38999673  0.76370551  0.84526135  1
  H+  H289  1  0.67767518  0.06122073  0.23037441  1
  H+  H290  1  0.14613074  0.75621918  0.34503719  1
  H+  H291  1  0.93201756  0.09716936  0.90686967  1
  H+  H292  1  0.59129777  0.91523456  0.77586777  1
  H+  H293  1  0.39568516  0.35696362  0.32506194  1
  H+  H294  1  0.08675773  0.91645659  0.39552559  1
  H+  H295  1  0.09797037  0.68262784  0.44020954  1
  H+  H296  1  0.28966324  0.26296471  0.62012534  1
  H+  H297  1  0.89953836  0.54619983  0.99686211  1
  H+  H298  1  0.19847211  0.05038749  0.58644381  1
  H+  H299  1  0.63833855  0.51778943  0.84000849  1
  H+  H300  1  0.46116581  0.38503715  0.23938800  1
  H+  H301  1  0.17965023  0.35575878  0.23102429  1
  H+  H302  1  0.12096719  0.02080345  0.18055881  1
  H+  H303  1  0.07864916  0.92748568  0.08781233  1
  H+  H304  1  0.83047817  0.16665606  0.77247570  1
  H+  H305  1  0.16924658  0.81975881  0.88312400  1
  H+  H306  1  0.74643253  0.37431366  0.67681217  1
  H+  H307  1  0.39816485  0.31429524  0.55781398  1
  H+  H308  1  0.69248704  0.11177094  0.57655078  1
  H+  H309  1  0.33955426  0.41707592  0.06998471  1
  H+  H310  1  0.42145559  0.57703707  0.23253267  1
  H+  H311  1  0.81515601  0.87284977  0.72883052  1
  H+  H312  1  0.43134930  0.57622754  0.56299679  1
  H+  H313  1  0.09314542  0.67729304  0.10668225  1
  H+  H314  1  0.41221734  0.84092744  0.25291688  1
  H+  H315  1  0.31090580  0.89986060  0.09534707  1
  H+  H316  1  0.06611190  0.41949036  0.71324346  1
  H+  H317  1  0.95298884  0.59589575  0.85116124  1
  H+  H318  1  0.12560953  0.24248563  0.16344717  1
  H+  H319  1  0.66590817  0.07769975  0.90561130  1
  H+  H320  1  0.57310154  0.89430870  0.37952521  1
  H+  H321  1  0.30778479  0.66488777  0.80198851  1
  H+  H322  1  0.66920981  0.83974888  0.95240058  1
  H+  H323  1  0.85801655  0.17241738  0.43925119  1
  H+  H324  1  0.18561518  0.36881492  0.57596972  1
  H+  H325  1  0.08932004  0.18036461  0.77328171  1
  H+  H326  1  0.68468134  0.87302111  0.56424278  1
  H+  H327  1  0.57497753  0.95187638  0.46322783  1
  H+  H328  1  0.15336017  0.58738910  0.89616025  1
  H+  H329  1  0.18056494  0.83394875  0.59998043  1
  H+  H330  1  0.38864493  0.26893317  0.30258535  1
  H+  H331  1  0.17450075  0.59004843  0.26690544  1
  H+  H332  1  0.17897405  0.32398298  0.94311247  1
  H+  H333  1  0.65772851  0.57754498  0.93257805  1
  H+  H334  1  0.91450594  0.81712403  0.23576666  1
  H+  H335  1  0.85901348  0.69635348  0.08842597  1
  H+  H336  1  0.59785368  0.41833046  0.76498012  1
  H+  H337  1  0.75029980  0.93262212  0.88093639  1
  H+  H338  1  0.34136537  0.91825498  0.40411829  1
  H+  H339  1  0.08821676  0.91307332  0.76274132  1
  H+  H340  1  0.81956743  0.40477840  0.73974872  1
  H+  H341  1  0.90015132  0.85580600  0.32542272  1
  H+  H342  1  0.14925523  0.59438613  0.58708417  1
  H+  H343  1  0.93077053  0.35037879  0.20535647  1
  H+  H344  1  0.47254668  0.84529844  0.50309728  1
  H+  H345  1  0.42470621  0.08605766  0.59999499  1
  H+  H346  1  0.13608772  0.10044540  0.50853620  1
  H+  H347  1  0.89327485  0.31903295  0.29971559  1
  H+  H348  1  0.42734535  0.84003042  0.93980290  1
  H+  H349  1  0.11813067  0.17996998  0.67519674  1
  H+  H350  1  0.13819687  0.11573937  0.99701698  1
  H+  H351  1  0.59838403  0.16381171  0.77012888  1
  H+  H352  1  0.82487715  0.42176196  0.44196254  1
  H+  H353  1  0.60420331  0.66555749  0.43692781  1
  H+  H354  1  0.58779261  0.16528139  0.07258786  1
  H+  H355  1  0.06931489  0.15134643  0.44687065  1
  H+  H356  1  0.66508011  0.32351249  0.26743417  1
  H+  H357  1  0.57985451  0.67393936  0.10204673  1
  H+  H358  1  0.36040680  0.92643935  0.77222970  1
  H+  H359  1  0.82716177  0.41248623  0.06165653  1
  H+  H360  1  0.82506334  0.66235016  0.40981299  1
  H+  H361  1  0.63399425  0.60561808  0.83794904  1
  H+  H362  1  0.30163604  0.69097404  0.17424557  1
  H+  H363  1  0.26372184  0.64497743  0.73485229  1
  H+  H364  1  0.57916270  0.91445996  0.07583704  1
  H+  H365  1  0.66398238  0.32846823  0.90079080  1
  H+  H366  1  0.34274141  0.16311720  0.73770909  1
  H+  H367  1  0.58498960  0.65433114  0.76456164  1
  H+  H368  1  0.83500811  0.17341947  0.06569083  1
  H+  H369  1  0.09196226  0.43793857  0.44089818  1
  H+  H370  1  0.09607289  0.42866300  0.05736047  1
  H+  H371  1  0.17996391  0.84536692  0.26934581  1
  H+  H372  1  0.05201290  0.65314345  0.77122105  1
  H+  H373  1  0.58646332  0.41053813  0.43652747  1
  H+  H374  1  0.09026513  0.17858948  0.10526284  1
  H+  H375  1  0.42456370  0.09105483  0.93864434  1
  H+  H376  1  0.67206269  0.57348134  0.60088042  1
  H+  H377  1  0.72538548  0.61503227  -0.01590524  1
  H+  H378  1  0.41915450  0.58753906  0.90358422  1
  H+  H379  1  0.30260691  0.19764160  0.41532300  1
  H+  H380  1  0.00455855  0.14838613  0.35616119  1
  H+  H381  1  0.82594022  0.65482129  0.76723751  1
  H+  H382  1  0.83434800  -0.06743716  0.25889587  1
  H+  H383  1  0.90345062  0.33785583  0.60378455  1
  O2-  O384  1  0.09063335  0.18114714  0.15113340  1
  O2-  O385  1  0.07442276  0.14443852  0.49120228  1
  O2-  O386  1  0.09199562  0.16918068  0.81695961  1
  O2-  O387  1  0.10354349  0.43878419  0.13619631  1
  O2-  O388  1  0.09688758  0.43460503  0.48608688  1
  O2-  O389  1  0.05796278  0.42709913  0.79675654  1
  O2-  O390  1  0.08760259  0.67302047  0.15200829  1
  O2-  O391  1  0.08505013  0.67837776  0.48469067  1
  O2-  O392  1  0.06274114  0.65933672  0.81694463  1
  O2-  O393  1  0.07940565  0.91829092  0.15914373  1
  O2-  O394  1  0.08979152  0.91181796  0.47292896  1
  O2-  O395  1  0.08739555  0.90994658  0.80813251  1
  O2-  O396  1  0.32183324  0.14347741  0.16245974  1
  O2-  O397  1  0.32136867  0.17490657  0.44852281  1
  O2-  O398  1  0.33736117  0.16641867  0.81220636  1
  O2-  O399  1  0.33979449  0.42218245  0.14736204  1
  O2-  O400  1  0.33261026  0.41354736  0.47885969  1
  O2-  O401  1  0.34722446  0.42704562  0.81449902  1
  O2-  O402  1  0.35712815  0.72184289  0.15236926  1
  O2-  O403  1  0.35616605  0.66477195  0.47050724  1
  O2-  O404  1  0.34455513  0.68348246  0.83911291  1
  O2-  O405  1  0.30669387  0.89072288  0.13967322  1
  O2-  O406  1  0.34252848  0.90955834  0.48710118  1
  O2-  O407  1  0.36722696  0.92479336  0.81673600  1
  O2-  O408  1  0.59362470  0.15879234  0.14783708  1
  O2-  O409  1  0.58842277  0.17700368  0.48641120  1
  O2-  O410  1  0.59119498  0.16165736  0.81581823  1
  O2-  O411  1  0.59852745  0.40798539  0.13981797  1
  O2-  O412  1  0.58786134  0.41483711  0.48304819  1
  O2-  O413  1  0.59446286  0.41518622  0.81203310  1
  O2-  O414  1  0.57344809  0.68604022  0.14632154  1
  O2-  O415  1  0.60437717  0.66587581  0.48251021  1
  O2-  O416  1  0.58719574  0.65511242  0.80948931  1
  O2-  O417  1  0.56283588  0.89205858  0.14811695  1
  O2-  O418  1  0.56620571  0.89394398  0.46476032  1
  O2-  O419  1  0.58876737  0.91490679  0.82117830  1
  O2-  O420  1  0.83249853  0.17138108  0.14479700  1
  O2-  O421  1  0.85120065  0.18126122  0.48318700  1
  O2-  O422  1  0.83423197  0.16843860  0.81783157  1
  O2-  O423  1  0.83067260  0.41783616  0.12934474  1
  O2-  O424  1  0.83265892  0.42586685  0.48695142  1
  O2-  O425  1  0.82659668  0.40677271  0.81361689  1
  O2-  O426  1  0.85774893  0.68161599  0.13128223  1
  O2-  O427  1  0.82806917  0.66287786  0.47201498  1
  O2-  O428  1  0.82683521  0.65464174  0.81266874  1
  O2-  O429  1  0.84317868  0.92919805  0.17630480  1
  O2-  O430  1  0.84419472  0.91738492  0.46221189  1
  O2-  O431  1  0.81558170  0.86702642  0.79345299  1
  O2-  O432  1  0.15218787  0.08130019  0.19613349  1
  O2-  O433  1  0.17309801  0.07378860  0.51429950  1
  O2-  O434  1  0.16994682  0.07661184  0.85493900  1
  O2-  O435  1  0.17996384  0.35180819  0.18680385  1
  O2-  O436  1  0.18443191  0.36537485  0.52719734  1
  O2-  O437  1  0.18705307  0.32078338  0.86339745  1
  O2-  O438  1  0.18362810  0.60529157  0.19239003  1
  O2-  O439  1  0.15774254  0.59305909  0.54154068  1
  O2-  O440  1  0.14265233  0.58688361  0.85145570  1
  O2-  O441  1  0.16365672  0.83824841  0.19597899  1
  O2-  O442  1  0.17690426  0.84206502  0.52565983  1
  O2-  O443  1  0.15183150  0.81082540  0.83917024  1
  O2-  O444  1  0.44863553  0.12329623  0.22659297  1
  O2-  O445  1  0.43490478  0.08213115  0.52852723  1
  O2-  O446  1  0.42747228  0.08768152  0.85779161  1
  O2-  O447  1  0.47885022  0.42218979  0.20217711  1
  O2-  O448  1  0.41058855  0.32562585  0.51371532  1
  O2-  O449  1  0.42217456  0.33238288  0.85273737  1
  O2-  O450  1  0.40762905  0.57623183  0.18841451  1
  O2-  O451  1  0.42801572  0.57254532  0.51738129  1
  O2-  O452  1  0.41851480  0.59204977  0.85812159  1
  O2-  O453  1  0.39426035  0.81243959  0.17230865  1
  O2-  O454  1  0.41485431  0.81784704  0.52331360  1
  O2-  O455  1  0.42944104  0.83695822  0.85588522  1
  O2-  O456  1  0.66930929  0.06252248  0.18588338  1
  O2-  O457  1  0.69443379  0.12712358  0.51399495  1
  O2-  O458  1  0.66723253  0.07606195  0.85998692  1
  O2-  O459  1  0.67055453  0.32484984  0.18991636  1
  O2-  O460  1  0.66722233  0.33664324  0.53215337  1
  O2-  O461  1  0.66532007  0.32703272  0.85585901  1
  O2-  O462  1  0.71478426  0.57163855  0.17550923  1
  O2-  O463  1  0.67747536  0.58175444  0.52112257  1
  O2-  O464  1  0.66604972  0.57790509  0.85626635  1
  O2-  O465  1  0.61842070  0.77426292  0.15329016  1
  O2-  O466  1  0.70205180  0.90825184  0.52599953  1
  O2-  O467  1  0.69950308  0.87577307  0.87773991  1
  O2-  O468  1  0.93044269  0.10625468  0.18826167  1
  O2-  O469  1  0.86767051  0.06114515  0.53714346  1
  O2-  O470  1  0.93802184  0.10410700  0.86213445  1
  O2-  O471  1  0.92267636  0.34124708  0.16172254  1
  O2-  O472  1  0.91919247  0.34487858  0.52235424  1
  O2-  O473  1  0.91256114  0.33342837  0.85499756  1
  O2-  O474  1  0.91041701  0.57617325  0.17339132  1
  O2-  O475  1  0.91516176  0.59244736  0.51871970  1
  O2-  O476  1  0.89166774  0.56069301  0.86114109  1
  O2-  O477  1  0.91751092  0.82962227  0.19157999  1
  O2-  O478  1  0.92159496  0.83312533  0.51234428  1
  O2-  O479  1  0.91552178  0.82167724  0.84768066  1
  O2-  O480  1  0.13886416  0.08369712  0.31538428  1
  O2-  O481  1  0.21182769  0.02853292  0.62391969  1
  O2-  O482  1  0.16788567  0.08505022  0.98159636  1
  O2-  O483  1  0.16441904  0.33843186  0.34611540  1
  O2-  O484  1  0.18567033  0.37227564  0.64040707  1
  O2-  O485  1  0.17167052  0.33035810  0.98722929  1
  O2-  O486  1  0.17282402  0.58332354  0.31266570  1
  O2-  O487  1  0.14162015  0.60173728  0.65955410  1
  O2-  O488  1  0.17556069  0.59394379  0.97517873  1
  O2-  O489  1  0.18315970  0.84855203  0.31549581  1
  O2-  O490  1  0.18428803  0.82454532  0.64524063  1
  O2-  O491  1  0.18227381  0.83184476  0.95922398  1
  O2-  O492  1  0.38357066  0.09914937  0.38095553  1
  O2-  O493  1  0.41965025  0.08361085  0.64642911  1
  O2-  O494  1  0.41923435  0.08743192  0.98386857  1
  O2-  O495  1  0.42869775  0.33209168  0.30630860  1
  O2-  O496  1  0.34990994  0.29499064  0.63222086  1
  O2-  O497  1  0.42120956  0.33307997  0.97857923  1
  O2-  O498  1  0.43668607  0.57778597  0.30934696  1
  O2-  O499  1  0.43602294  0.57767704  0.64027084  1
  O2-  O500  1  0.41266188  0.58060220  0.98228882  1
  O2-  O501  1  0.42951463  0.85934561  0.29568962  1
  O2-  O502  1  0.43373857  0.84756369  0.64523703  1
  O2-  O503  1  0.42411006  0.84252306  0.98450338  1
  O2-  O504  1  0.70889034  0.06683302  0.31132871  1
  O2-  O505  1  0.68948946  0.09195031  0.62433137  1
  O2-  O506  1  0.66519080  0.08298300  0.98385818  1
  O2-  O507  1  0.66461234  0.32521780  0.31301323  1
  O2-  O508  1  0.66866616  0.33885619  0.65694971  1
  O2-  O509  1  0.66970960  0.32952990  0.98469872  1
  O2-  O510  1  0.59654336  0.58806507  0.24199081  1
  O2-  O511  1  0.67181834  0.57690098  0.64618418  1
  O2-  O512  1  0.66231460  0.57994412  0.97834311  1
  O2-  O513  1  0.65614142  0.81248102  0.30827867  1
  O2-  O514  1  0.66147987  0.82985465  0.63675585  1
  O2-  O515  1  0.65899121  0.82762546  0.99669157  1
  O2-  O516  1  0.82292689  -0.05528048  0.30161020  1
  O2-  O517  1  0.94009378  0.11772009  0.64443979  1
  O2-  O518  1  0.91890632  0.08361596  0.99016404  1
  O2-  O519  1  0.90612894  0.32880398  0.34290653  1
  O2-  O520  1  0.89740520  0.33707634  0.64859467  1
  O2-  O521  1  0.91765102  0.34213250  0.97804207  1
  O2-  O522  1  0.86302025  0.56070044  0.30130219  1
  O2-  O523  1  0.91168553  0.58714093  0.64257222  1
  O2-  O524  1  0.92725188  0.60274184  1.01588398  1
  O2-  O525  1  0.92100650  0.81440964  0.31614137  1
  O2-  O526  1  0.92103795  0.82238588  0.63672174  1
  O2-  O527  1  0.89644517  0.82348649  1.02958505  1
  O2-  O528  1  0.08514568  0.16703014  0.02999881  1
  O2-  O529  1  0.06520723  0.16945044  0.36576356  1
  O2-  O530  1  0.09649326  0.21592008  0.69215381  1
  O2-  O531  1  0.08906771  0.42254399  0.01221586  1
  O2-  O532  1  0.07596149  0.42799545  0.36116639  1
  O2-  O533  1  0.09049626  0.43170242  0.67183681  1
  O2-  O534  1  0.09675471  0.67590267  0.02710693  1
  O2-  O535  1  0.11974760  0.69534608  0.36275003  1
  O2-  O536  1  0.04539521  0.66001740  0.69919270  1
  O2-  O537  1  0.07637814  0.92660363  0.04130332  1
  O2-  O538  1  0.08465138  0.91641307  0.34989299  1
  O2-  O539  1  0.08568608  0.90041504  0.68400595  1
  O2-  O540  1  0.33676884  0.17262122  0.02962179  1
  O2-  O541  1  0.31566422  0.16045604  0.29837238  1
  O2-  O542  1  0.34629413  0.15991284  0.69177569  1
  O2-  O543  1  0.33582674  0.41366952  0.02434433  1
  O2-  O544  1  0.34646499  0.41037412  0.35414358  1
  O2-  O545  1  0.34402754  0.42238097  0.68876403  1
  O2-  O546  1  0.34242767  0.68072939  0.02660914  1
  O2-  O547  1  0.34824046  0.65183626  0.33746446  1
  O2-  O548  1  0.36265172  0.67640743  0.65946086  1
  O2-  O549  1  0.32941810  0.91689312  0.01158618  1
  O2-  O550  1  0.34441174  0.93802712  0.36164792  1
  O2-  O551  1  0.35016586  0.92857331  0.68769270  1
  O2-  O552  1  0.58673432  0.17014038  0.02679550  1
  O2-  O553  1  0.55629460  0.17299816  0.36892857  1
  O2-  O554  1  0.60900564  0.16931475  0.69511205  1
  O2-  O555  1  0.58785634  0.41199562  0.01551892  1
  O2-  O556  1  0.58437987  0.40667029  0.36485102  1
  O2-  O557  1  0.60460957  0.42413440  0.69407090  1
  O2-  O558  1  0.57603477  0.65860683  0.02572152  1
  O2-  O559  1  0.59846582  0.66015035  0.35778806  1
  O2-  O560  1  0.59199719  0.66056528  0.68166272  1
  O2-  O561  1  0.58703422  0.92192660  0.03009073  1
  O2-  O562  1  0.58283416  0.90933017  0.33609931  1
  O2-  O563  1  0.58996657  0.92269795  0.69628328  1
  O2-  O564  1  0.83503318  0.17123513  0.02030299  1
  O2-  O565  1  0.88213707  0.15908124  0.36278457  1
  O2-  O566  1  0.83235916  0.17247648  0.69332302  1
  O2-  O567  1  0.82294756  0.40617173  0.01433294  1
  O2-  O568  1  0.81507869  0.41654481  0.36233308  1
  O2-  O569  1  0.81545098  0.40478214  0.69384791  1
  O2-  O570  1  0.84314126  0.68237446  -0.03011114  1
  O2-  O571  1  0.82276539  0.66629661  0.36016994  1
  O2-  O572  1  0.82981081  0.66008652  0.68830666  1
  O2-  O573  1  0.81906153  0.91991699  0.04317690  1
  O2-  O574  1  0.88785564  0.94014249  0.33961197  1
  O2-  O575  1  0.81819640  0.88161790  0.68069493  1
