# generated using pymatgen
data_H2O
_symmetry_space_group_name_H-M   'P 1'
_cell_length_a   17.96402625
_cell_length_b   17.97134821
_cell_length_c   21.98724577
_cell_angle_alpha   89.98540039
_cell_angle_beta   90.02579710
_cell_angle_gamma   120.02072805
_symmetry_Int_Tables_number   1
_chemical_formula_structural   H2O
_chemical_formula_sum   'H384 O192'
_cell_volume   6146.03472362
_cell_formula_units_Z   192
loop_
 _symmetry_equiv_pos_site_id
 _symmetry_equiv_pos_as_xyz
  1  'x, y, z'
loop_
 _atom_type_symbol
 _atom_type_oxidation_number
  H+  1.0
  O2-  -2.0
loop_
 _atom_site_type_symbol
 _atom_site_label
 _atom_site_symmetry_multiplicity
 _atom_site_fract_x
 _atom_site_fract_y
 _atom_site_fract_z
 _atom_site_occupancy
  H+  H0  1  0.90217890  0.51770477  0.60628511  1
  H+  H1  1  0.77164006  0.62586742  0.50322497  1
  H+  H2  1  0.65741599  0.82380975  0.59724728  1
  H+  H3  1  0.84391432  0.14913630  0.75406644  1
  H+  H4  1  0.40285087  0.62188985  0.84229008  1
  H+  H5  1  0.15034567  0.36416923  0.65529891  1
  H+  H6  1  0.13487186  0.55809706  0.38557194  1
  H+  H7  1  0.18048414  0.83880756  0.61423328  1
  H+  H8  1  0.14162941  1.03212305  0.18796790  1
  H+  H9  1  0.66128392  0.37743196  0.64100917  1
  H+  H10  1  0.14821020  0.78139965  0.52614219  1
  H+  H11  1  0.16304467  0.80817395  0.78210838  1
  H+  H12  1  0.63328171  0.48282382  0.64568829  1
  H+  H13  1  0.30691930  0.24266181  0.91531344  1
  H+  H14  1  0.89260345  0.27261629  0.98521699  1
  H+  H15  1  0.86874073  0.89022385  1.00556292  1
  H+  H16  1  0.72886566  0.61761796  0.17901264  1
  H+  H17  1  0.71034955  0.34334472  0.49661180  1
  H+  H18  1  0.36828107  0.01679385  0.52153095  1
  H+  H19  1  0.85194964  0.85553589  0.49482902  1
  H+  H20  1  0.30896169  0.96102788  0.35196919  1
  H+  H21  1  0.04431346  0.66502404  0.14873737  1
  H+  H22  1  0.08261268  -0.11712633  0.40640715  1
  H+  H23  1  0.43720124  0.09966382  0.33877573  1
  H+  H24  1  0.87899782  0.58660804  0.52175307  1
  H+  H25  1  0.23993950  0.88501123  0.15536747  1
  H+  H26  1  0.30483613  0.17418290  0.39945854  1
  H+  H27  1  0.10984139  0.87746466  0.67939013  1
  H+  H28  1  0.88664578  0.11338036  0.99454459  1
  H+  H29  1  0.49237637  0.11439092  0.85811523  1
  H+  H30  1  0.88261280  0.02650003  0.34700349  1
  H+  H31  1  0.88845991  0.02468274  0.19823459  1
  H+  H32  1  0.01907380  0.36737012  0.48766109  1
  H+  H33  1  0.59372088  0.20337590  0.49263639  1
  H+  H34  1  0.50428134  0.90276553  0.35002173  1
  H+  H35  1  0.97016579  0.83930461  0.33957015  1
  H+  H36  1  0.13214107  0.02385555  0.82807463  1
  H+  H37  1  0.53044353  0.13217623  0.01920288  1
  H+  H38  1  0.37137462  0.65367280  0.50324636  1
  H+  H39  1  0.43229279  0.08362780  0.95267595  1
  H+  H40  1  0.23202934  0.07666732  1.00007752  1
  H+  H41  1  0.86754008  0.61679056  0.84915970  1
  H+  H42  1  0.42771405  0.57029962  0.93861085  1
  H+  H43  1  0.13764866  0.83603006  -0.03196381  1
  H+  H44  1  0.23767222  0.87008052  0.51744335  1
  H+  H45  1  0.36278443  0.39768650  0.33858766  1
  H+  H46  1  0.61678393  0.48814579  0.87497428  1
  H+  H47  1  0.34381669  0.45549897  1.00775190  1
  H+  H48  1  0.46597234  0.86612239  0.51025305  1
  H+  H49  1  0.50823814  0.66602171  0.20095449  1
  H+  H50  1  0.12582067  0.12272710  0.33311209  1
  H+  H51  1  0.38634161  0.01166781  0.15741898  1
  H+  H52  1  0.41920600  0.80699407  0.13284661  1
  H+  H53  1  0.03594151  0.62150145  0.67825894  1
  H+  H54  1  0.87112421  0.63746070  0.01272392  1
  H+  H55  1  0.37256371  0.23629841  0.68193265  1
  H+  H56  1  0.32995343  0.14702552  0.11550053  1
  H+  H57  1  0.64555961  0.77926174  0.84601383  1
  H+  H58  1  0.60639273  0.97082733  0.67425765  1
  H+  H59  1  0.60166911  0.69986896  0.45477600  1
  H+  H60  1  0.61875376  0.73150097  0.66168708  1
  H+  H61  1  0.40414633  0.37997975  0.80885260  1
  H+  H62  1  0.14749689  0.60963380  0.66547514  1
  H+  H63  1  0.91606177  0.08946021  0.25351520  1
  H+  H64  1  0.11765195  0.71635651  0.67922182  1
  H+  H65  1  0.77746237  0.41868031  0.66608116  1
  H+  H66  1  0.14117731  0.26666565  0.33153029  1
  H+  H67  1  0.62508824  0.98244680  0.00191958  1
  H+  H68  1  0.50560599  0.11773388  0.50696478  1
  H+  H69  1  0.97701747  0.85721340  0.98255762  1
  H+  H70  1  0.37896909  0.79021588  0.34637296  1
  H+  H71  1  0.09849071  0.35384781  0.15204182  1
  H+  H72  1  0.53006288  0.13981837  0.16418278  1
  H+  H73  1  0.02567415  0.38541476  0.81992568  1
  H+  H74  1  0.93833204  0.21485809  0.77432192  1
  H+  H75  1  0.38715182  0.37282364  0.51054857  1
  H+  H76  1  0.91818552  0.08195932  0.90294623  1
  H+  H77  1  0.09253976  0.35116119  0.33115557  1
  H+  H78  1  0.28713190  0.64354474  0.81852006  1
  H+  H79  1  0.47501978  0.36054034  0.16224599  1
  H+  H80  1  0.89236614  0.36062145  0.98304950  1
  H+  H81  1  0.36374833  0.74019872  0.50269025  1
  H+  H82  1  0.40754728  0.13934658  0.67574958  1
  H+  H83  1  0.64430120  0.89556270  0.33293589  1
  H+  H84  1  0.73638454  0.11925101  0.17136321  1
  H+  H85  1  0.63728698  0.88214362  0.17170784  1
  H+  H86  1  0.48969333  0.61745487  0.84147367  1
  H+  H87  1  0.22974487  0.62740546  0.50981443  1
  H+  H88  1  0.64400912  0.62637274  0.17996207  1
  H+  H89  1  0.28413565  0.39344220  0.67154833  1
  H+  H90  1  0.11211956  0.88805949  0.82859697  1
  H+  H91  1  0.38648216  0.62352836  0.35027100  1
  H+  H92  1  -0.06028112  0.32619963  0.31392175  1
  H+  H93  1  1.03673760  0.72362322  0.24845695  1
  H+  H94  1  0.07668615  0.42905368  0.32781967  1
  H+  H95  1  0.56060147  0.20746656  0.36366951  1
  H+  H96  1  0.37584630  0.49038302  0.82955590  1
  H+  H97  1  0.39567446  0.88338985  0.13689769  1
  H+  H98  1  0.13284237  0.53956954  0.10453607  1
  H+  H99  1  0.63814208  0.01229370  0.50890352  1
  H+  H100  1  0.97271391  0.59871704  0.52765930  1
  H+  H101  1  0.61813039  0.64414391  0.02341087  1
  H+  H102  1  0.39593604  0.96639269  0.45660458  1
  H+  H103  1  0.47505013  0.61825527  0.66743493  1
  H+  H104  1  0.60531494  0.63929992  0.36511451  1
  H+  H105  1  0.64316342  0.36815107  0.86019075  1
  H+  H106  1  0.22531104  0.12974022  0.33048176  1
  H+  H107  1  0.98858931  0.86515954  0.19039985  1
  H+  H108  1  0.89463250  0.11429168  0.84030887  1
  H+  H109  1  0.59322115  0.92832343  0.06364709  1
  H+  H110  1  0.10212802  0.53956654  0.21255781  1
  H+  H111  1  0.62400698  0.63825124  0.83262272  1
  H+  H112  1  0.63598368  0.90143613  0.83657371  1
  H+  H113  1  0.11949575  0.88205035  0.49771127  1
  H+  H114  1  0.51696415  0.63855719  0.37022877  1
  H+  H115  1  0.62593658  0.74722722  0.16911961  1
  H+  H116  1  0.15183465  0.79622729  0.15162060  1
  H+  H117  1  0.88333548  0.98795532  0.50676608  1
  H+  H118  1  0.17520087  0.85884662  0.34872477  1
  H+  H119  1  0.65426179  0.63710494  0.52184132  1
  H+  H120  1  0.23785304  0.61215624  0.66483972  1
  H+  H121  1  0.13032587  0.73356309  0.97716786  1
  H+  H122  1  0.41703331  0.68248741  0.14151769  1
  H+  H123  1  0.63901340  0.77460177  0.00745269  1
  H+  H124  1  0.15011593  0.11322520  0.67041759  1
  H+  H125  1  0.28546672  0.68951734  0.18601940  1
  H+  H126  1  0.74568606  0.63197629  1.01120117  1
  H+  H127  1  0.36635914  0.10513943  0.52883069  1
  H+  H128  1  0.07227994  0.73166721  0.37301848  1
  H+  H129  1  0.09714002  0.15033496  0.93672025  1
  H+  H130  1  0.42049929  0.33963455  0.60456126  1
  H+  H131  1  0.38056463  0.49181861  0.49609443  1
  H+  H132  1  0.36693201  0.01784880  0.69336922  1
  H+  H133  1  0.34942250  0.67695635  0.76091636  1
  H+  H134  1  0.15286177  0.27694048  0.66227317  1
  H+  H135  1  0.88913117  0.97992636  0.80718303  1
  H+  H136  1  0.14001301  0.17048110  -0.04778054  1
  H+  H137  1  0.40661178  1.02403262  0.86309793  1
  H+  H138  1  0.61264434  0.33473401  0.99523026  1
  H+  H139  1  0.10650191  0.21681272  0.82895879  1
  H+  H140  1  0.78128476  0.14000920  0.00362078  1
  H+  H141  1  0.27745139  0.65353498  0.35983449  1
  H+  H142  1  -0.00287469  0.38224938  0.64570908  1
  H+  H143  1  0.65181548  0.12607895  0.18157157  1
  H+  H144  1  0.02531916  0.87018279  0.49035752  1
  H+  H145  1  0.36167998  0.86856015  0.34529725  1
  H+  H146  1  0.00639387  0.14304484  0.02327363  1
  H+  H147  1  0.89571744  0.28199573  0.82621665  1
  H+  H148  1  0.64372995  0.11936631  0.66046629  1
  H+  H149  1  0.75879813  0.62308591  0.67180592  1
  H+  H150  1  0.12443193  0.65497639  0.14385231  1
  H+  H151  1  0.88294988  0.25209526  0.50859631  1
  H+  H152  1  0.86053377  0.45460633  0.49518022  1
  H+  H153  1  0.84983683  0.37665756  0.33131619  1
  H+  H154  1  0.22528211  0.42785407  0.19967219  1
  H+  H155  1  0.54322875  0.39512001  0.64481089  1
  H+  H156  1  0.72735970  0.37079551  0.83413646  1
  H+  H157  1  0.62539548  0.35045378  0.49738660  1
  H+  H158  1  0.86852744  0.39776942  0.81516086  1
  H+  H159  1  0.09163063  0.65349060  0.37645031  1
  H+  H160  1  0.01837121  0.13239557  0.17597041  1
  H+  H161  1  0.40204280  0.37737874  0.66393771  1
  H+  H162  1  0.77308812  0.89738268  0.34594147  1
  H+  H163  1  0.36912309  0.64311125  0.67593363  1
  H+  H164  1  0.89205343  0.75149354  0.65501169  1
  H+  H165  1  0.38787151  0.76436685  0.83008063  1
  H+  H166  1  0.84871515  0.57280651  0.69427787  1
  H+  H167  1  0.79946737  0.13906466  0.32350194  1
  H+  H168  1  0.53311398  0.91073402  0.14854632  1
  H+  H169  1  0.11435711  0.64355463  0.51590592  1
  H+  H170  1  0.84288217  0.16854065  0.06214314  1
  H+  H171  1  0.84344136  0.44140923  0.76071830  1
  H+  H172  1  0.03668688  0.14867545  0.66188612  1
  H+  H173  1  0.50037449  0.86889137  0.98492565  1
  H+  H174  1  0.55890682  0.39954319  -0.04136432  1
  H+  H175  1  0.60781855  0.88317822  0.67370009  1
  H+  H176  1  0.28966486  0.39668457  0.83097207  1
  H+  H177  1  0.40725049  0.83068974  0.60441875  1
  H+  H178  1  0.62496245  0.14603423  0.83072228  1
  H+  H179  1  0.95338495  0.60873724  0.35885881  1
  H+  H180  1  0.60655804  0.38649575  0.33614415  1
  H+  H181  1  0.36151473  0.12238801  0.17594203  1
  H+  H182  1  0.88807044  0.75531113  0.50547188  1
  H+  H183  1  0.96468914  0.34232180  0.15772405  1
  H+  H184  1  0.61304228  0.40048678  0.13686342  1
  H+  H185  1  0.78328022  0.11870824  0.48839286  1
  H+  H186  1  -0.02655567  0.84514747  0.66033782  1
  H+  H187  1  0.28060899  0.88022310  0.83318408  1
  H+  H188  1  0.86943514  0.47009394  0.14723146  1
  H+  H189  1  0.47059314  0.36232774  0.50890079  1
  H+  H190  1  0.39659471  0.26549523  0.17571964  1
  H+  H191  1  0.23099921  0.87614531  0.67658142  1
  H+  H192  1  0.72368621  0.87643596  0.17641247  1
  H+  H193  1  0.29672412  0.88781749  0.04276602  1
  H+  H194  1  0.86635486  0.13490240  0.16195763  1
  H+  H195  1  0.23124945  0.12030979  0.18401015  1
  H+  H196  1  0.17065281  0.32017990  0.90523085  1
  H+  H197  1  0.13955047  0.52375016  0.81075036  1
  H+  H198  1  0.87863619  0.72925194  0.17429870  1
  H+  H199  1  0.85058711  0.46603852  0.34272864  1
  H+  H200  1  0.11160861  0.13768302  0.16510918  1
  H+  H201  1  0.29405636  0.90743857  0.41331506  1
  H+  H202  1  0.37815852  0.87205130  0.50732583  1
  H+  H203  1  0.61391076  0.23582943  0.16064583  1
  H+  H204  1  0.63475367  0.09837983  0.50577282  1
  H+  H205  1  0.20253653  0.14604914  0.47874217  1
  H+  H206  1  0.15750697  0.61048024  0.77980853  1
  H+  H207  1  0.89573712  0.89592727  0.80417777  1
  H+  H208  1  -0.03410698  0.59737124  -0.01132241  1
  H+  H209  1  0.11376006  0.62174002  -0.01022538  1
  H+  H210  1  0.04491656  0.10052311  0.48902016  1
  H+  H211  1  0.84857335  0.46542795  -0.00243623  1
  H+  H212  1  0.33553320  0.33467010  0.14422356  1
  H+  H213  1  0.77885240  0.80947105  0.13362180  1
  H+  H214  1  0.38695893  0.52770078  0.66429822  1
  H+  H215  1  0.22208631  0.27948744  0.87238237  1
  H+  H216  1  0.02072625  0.13555726  0.35128289  1
  H+  H217  1  0.64791132  0.11527951  0.99629215  1
  H+  H218  1  0.87525854  0.33930891  0.50222306  1
  H+  H219  1  0.72532553  0.37237944  0.15977378  1
  H+  H220  1  0.53080862  0.39877988  0.85897150  1
  H+  H221  1  0.36481395  0.12652194  0.02296029  1
  H+  H222  1  0.54784589  0.16304084  0.67767946  1
  H+  H223  1  0.12835157  0.94921843  -0.01480453  1
  H+  H224  1  -0.00089010  0.62727084  0.86228813  1
  H+  H225  1  0.34214340  0.14223767  0.34455736  1
  H+  H226  1  0.65773349  0.54434130  1.00858332  1
  H+  H227  1  0.86932309  0.63657847  0.17419979  1
  H+  H228  1  0.14581987  0.02316603  0.67122927  1
  H+  H229  1  0.12420136  0.47785660  0.66593722  1
  H+  H230  1  0.33861773  0.32714717  -0.00506234  1
  H+  H231  1  0.51990837  0.39162518  0.33494430  1
  H+  H232  1  0.14418817  0.51030700  0.97319045  1
  H+  H233  1  0.24804788  0.33598372  0.15091442  1
  H+  H234  1  0.86322832  0.22186004  0.15412185  1
  H+  H235  1  0.12932474  0.89741348  0.17071347  1
  H+  H236  1  0.60896354  0.93096001  0.77563425  1
  H+  H237  1  0.72388836  0.35924449  0.31954650  1
  H+  H238  1  1.01181298  0.12823069  0.83019773  1
  H+  H239  1  0.97565359  0.18565538  0.59852094  1
  H+  H240  1  0.38826900  0.86250915  0.83342594  1
  H+  H241  1  0.62680195  0.99455799  0.16000335  1
  H+  H242  1  0.61949640  0.23230648  0.83152813  1
  H+  H243  1  0.59869188  0.86690576  0.49021020  1
  H+  H244  1  0.26297263  0.68994231  0.15685961  1
  H+  H245  1  0.19545428  0.37226800  -0.00121517  1
  H+  H246  1  0.88535329  0.76112869  0.83965002  1
  H+  H247  1  0.39091688  0.59955839  -0.00870427  1
  H+  H248  1  0.62893405  0.24806483  0.01014120  1
  H+  H249  1  0.09445439  0.31321814  0.50980555  1
  H+  H250  1  0.84932600  0.71996559  0.34338391  1
  H+  H251  1  0.66570595  0.35004775  0.21813976  1
  H+  H252  1  0.77818343  0.88802087  1.01035816  1
  H+  H253  1  0.37484301  0.72314854  0.98183358  1
  H+  H254  1  0.89465336  0.85447915  0.18080558  1
  H+  H255  1  0.71786109  0.35251269  0.99816135  1
  H+  H256  1  0.60514097  0.18465203  0.73622404  1
  H+  H257  1  0.84609734  0.86043112  0.65648792  1
  H+  H258  1  0.16602247  0.52647483  0.10970408  1
  H+  H259  1  0.52396784  0.63183455  0.01833795  1
  H+  H260  1  0.38308413  0.28503985  0.32523726  1
  H+  H261  1  0.89014473  1.02494008  -0.00121889  1
  H+  H262  1  0.30421562  0.53751727  0.15444609  1
  H+  H263  1  0.14679825  0.07286843  0.97623775  1
  H+  H264  1  0.02005646  0.88343517  0.83252634  1
  H+  H265  1  0.67618113  0.63533874  0.67377500  1
  H+  H266  1  0.67426384  0.29890106  0.66596589  1
  H+  H267  1  0.39775956  0.03265180  1.01768106  1
  H+  H268  1  0.16357770  0.09738762  0.26781406  1
  H+  H269  1  0.33595014  0.52233761  0.14897341  1
  H+  H270  1  0.42159141  0.31684426  0.98402511  1
  H+  H271  1  0.75516390  0.09353463  0.67838522  1
  H+  H272  1  0.35925800  0.48454718  0.34584690  1
  H+  H273  1  0.36649789  0.73341996  0.67330641  1
  H+  H274  1  0.41093509  0.86535628  0.98112214  1
  H+  H275  1  0.84558629  0.62607134  0.34442754  1
  H+  H276  1  0.63406393  0.51848962  0.32640420  1
  H+  H277  1  1.05569881  0.64817998  0.24189395  1
  H+  H278  1  0.71503675  0.82645172  0.50065355  1
  H+  H279  1  0.11497623  0.38465596  0.81836757  1
  H+  H280  1  0.87376925  0.52518343  0.84440988  1
  H+  H281  1  0.58258913  0.63772399  0.63386857  1
  H+  H282  1  0.84875768  0.10399296  0.66819927  1
  H+  H283  1  0.60700252  0.48468230  0.13986385  1
  H+  H284  1  0.89649806  0.08170627  0.49947045  1
  H+  H285  1  0.88835870  0.77421156  -0.00468722  1
  H+  H286  1  0.33400899  0.19641020  0.02216478  1
  H+  H287  1  0.86183850  0.37795022  0.14987017  1
  H+  H288  1  0.65586805  1.03059578  0.84198447  1
  H+  H289  1  0.74066029  0.12427685  0.84229313  1
  H+  H290  1  0.91449337  0.82330851  0.27974433  1
  H+  H291  1  0.73694050  0.61732692  0.33225520  1
  H+  H292  1  0.33187359  0.26261101  0.84669216  1
  H+  H293  1  0.48029351  0.72558229  0.23394658  1
  H+  H294  1  0.66662903  0.58509589  0.26639909  1
  H+  H295  1  0.17541852  0.34492170  0.24025146  1
  H+  H296  1  0.54235873  0.13616598  0.41073057  1
  H+  H297  1  0.57933282  0.42802021  0.43616612  1
  H+  H298  1  0.85265330  0.67393553  0.07477838  1
  H+  H299  1  0.20916374  0.12991761  0.84783170  1
  H+  H300  1  0.57300509  0.91131836  0.43758954  1
  H+  H301  1  0.17080768  0.79891986  0.91250163  1
  H+  H302  1  0.08257620  0.40960246  0.72031034  1
  H+  H303  1  0.82239437  0.65343386  0.78623608  1
  H+  H304  1  0.42414921  0.59847556  0.57185925  1
  H+  H305  1  0.03890670  0.36905148  -0.01367040  1
  H+  H306  1  0.89820503  0.57477105  0.93463593  1
  H+  H307  1  0.38097408  0.07456210  0.27805086  1
  H+  H308  1  0.49264926  0.64388217  0.51920087  1
  H+  H309  1  0.93440916  0.08849699  0.58675429  1
  H+  H310  1  0.83185979  0.89468702  0.09702630  1
  H+  H311  1  0.08561276  0.24250528  0.03007648  1
  H+  H312  1  0.11510084  0.74699244  0.83767889  1
  H+  H313  1  0.34157998  0.93614412  0.78009204  1
  H+  H314  1  0.08709891  0.93638106  0.12504460  1
  H+  H315  1  0.60751936  0.47937574  0.49876399  1
  H+  H316  1  0.67967741  0.09135842  0.93404871  1
  H+  H317  1  0.43271929  0.83510516  0.89061942  1
  H+  H318  1  0.34302926  0.42838108  0.43964740  1
  H+  H319  1  0.08983400  0.15961519  0.40714346  1
  H+  H320  1  0.42884707  0.31738575  0.77402815  1
  H+  H321  1  0.62101752  0.45921788  0.75644020  1
  H+  H322  1  0.44388530  0.03497135  0.21666600  1
  H+  H323  1  0.28233393  0.63637528  -0.01446216  1
  H+  H324  1  0.59263085  0.99216782  0.35493673  1
  H+  H325  1  0.17180373  0.58623061  0.56758559  1
  H+  H326  1  0.92404050  0.33967956  0.58379118  1
  H+  H327  1  0.73280372  0.13175928  0.27032759  1
  H+  H328  1  0.07224476  0.37272070  0.08673994  1
  H+  H329  1  0.84026391  0.91288623  0.71111710  1
  H+  H330  1  0.66564509  0.08062533  0.60097583  1
  H+  H331  1  0.34705437  0.23338543  0.51806470  1
  H+  H332  1  0.91224331  0.83008735  0.89343572  1
  H+  H333  1  0.10573893  0.19920578  0.49908795  1
  H+  H334  1  0.06709689  0.17249311  0.10024123  1
  H+  H335  1  0.07477746  0.90833736  0.73528230  1
  H+  H336  1  0.90542900  0.32661703  0.21912229  1
  H+  H337  1  0.64840476  0.26948803  0.29819388  1
  H+  H338  1  0.22593622  0.36210956  0.33330348  1
  H+  H339  1  0.68354267  0.59834493  0.57597456  1
  H+  H340  1  0.82897119  0.39964952  0.43343976  1
  H+  H341  1  0.91873973  0.81734102  0.56268341  1
  H+  H342  1  0.42367931  0.09567689  0.61670914  1
  H+  H343  1  0.09141399  0.66381786  0.04837785  1
  H+  H344  1  0.34094178  0.68211325  0.41577530  1
  H+  H345  1  0.82563359  0.40534496  0.05560709  1
  H+  H346  1  0.67312342  0.83180085  0.90759667  1
  H+  H347  1  0.28591370  0.99949883  0.73097464  1
  H+  H348  1  0.38550124  0.68725073  0.07414929  1
  H+  H349  1  0.92380286  0.41318185  0.63526181  1
  H+  H350  1  0.59487627  0.16474762  0.07736547  1
  H+  H351  1  0.43105641  0.61172512  0.29243670  1
  H+  H352  1  0.11563220  0.11349301  0.81704443  1
  H+  H353  1  0.64210492  0.43285168  0.75035380  1
  H+  H354  1  0.06701788  0.37569912  0.42672372  1
  H+  H355  1  0.16439246  0.57209723  0.91668039  1
  H+  H356  1  0.68028027  0.60949008  0.91238697  1
  H+  H357  1  0.13929195  0.58741853  0.31600018  1
  H+  H358  1  0.07906575  0.16689656  0.72815112  1
  H+  H359  1  0.85738284  0.88586130  0.34623803  1
  H+  H360  1  0.18788457  0.62739583  0.21986446  1
  H+  H361  1  0.29814977  0.37848033  0.05891345  1
  H+  H362  1  0.06821532  0.67382306  0.46700114  1
  H+  H363  1  0.82501604  0.64662094  0.44227124  1
  H+  H364  1  0.83891286  0.25816064  0.29909609  1
  H+  H365  1  0.13863866  0.29842698  0.56866045  1
  H+  H366  1  0.85454443  0.14422240  0.43529824  1
  H+  H367  1  0.08468138  0.61970670  0.85115720  1
  H+  H368  1  0.59456239  0.66341212  0.77070984  1
  H+  H369  1  0.28890315  0.14512686  0.69073176  1
  H+  H370  1  0.72326763  0.85475269  0.65406412  1
  H+  H371  1  0.73932770  0.62293560  0.85258226  1
  H+  H372  1  0.92652535  0.59616532  0.29080915  1
  H+  H373  1  0.92083620  0.33590001  0.88835248  1
  H+  H374  1  0.82193343  0.89317832  0.43869052  1
  H+  H375  1  0.67295132  0.86632881  0.27355518  1
  H+  H376  1  0.58719500  0.67820591  0.11425935  1
  H+  H377  1  0.09400811  0.87532100  0.03648673  1
  H+  H378  1  0.46900661  0.85764871  0.66261686  1
  H+  H379  1  0.55468640  0.39940156  0.03470862  1
  H+  H380  1  0.91413502  0.66574234  0.71860463  1
  H+  H381  1  0.34111115  0.42882867  0.73267069  1
  H+  H382  1  0.64446344  0.86629563  1.00199011  1
  H+  H383  1  0.41825216  0.33997748  0.26393264  1
  O2-  O384  1  0.07481227  0.16311837  0.15371468  1
  O2-  O385  1  0.10171082  0.14780052  0.47573966  1
  O2-  O386  1  0.07120988  0.15931090  0.80946969  1
  O2-  O387  1  0.04948874  0.34613549  0.12658706  1
  O2-  O388  1  0.07606729  0.38316460  0.47100794  1
  O2-  O389  1  0.08595148  0.41402357  0.80192757  1
  O2-  O390  1  0.09415063  0.67969364  0.12223256  1
  O2-  O391  1  0.07737194  0.67195744  0.51142959  1
  O2-  O392  1  0.06478162  0.65797429  0.86656391  1
  O2-  O393  1  0.09255134  0.92811570  0.16825461  1
  O2-  O394  1  0.08392487  0.89820619  0.47226335  1
  O2-  O395  1  0.08305566  0.92108637  0.81950804  1
  O2-  O396  1  0.33375980  0.15435831  0.16108669  1
  O2-  O397  1  0.30877392  0.16821507  0.52131810  1
  O2-  O398  1  0.28043818  0.22925113  0.87363178  1
  O2-  O399  1  0.28436636  0.32671966  0.12155857  1
  O2-  O400  1  0.34973419  0.43056016  0.48440113  1
  O2-  O401  1  0.34599088  0.43105990  0.81082352  1
  O2-  O402  1  0.42550837  0.72065585  0.10710343  1
  O2-  O403  1  0.33695764  0.67893575  0.48704334  1
  O2-  O404  1  0.34917707  0.67697868  0.80845865  1
  O2-  O405  1  0.33113657  0.93004954  0.12466670  1
  O2-  O406  1  0.34265976  0.92940797  0.47847280  1
  O2-  O407  1  0.34211864  0.91380737  0.82233386  1
  O2-  O408  1  0.59146320  0.17381737  0.15107360  1
  O2-  O409  1  0.56132641  0.13949891  0.48512616  1
  O2-  O410  1  0.58972155  0.17106036  0.81644175  1
  O2-  O411  1  0.58065701  0.42757913  0.12016035  1
  O2-  O412  1  0.57693666  0.42119498  0.48078272  1
  O2-  O413  1  0.58209488  0.42514046  0.88560351  1
  O2-  O414  1  0.59812155  0.68423891  0.15929972  1
  O2-  O415  1  0.60999425  0.70754133  0.50126341  1
  O2-  O416  1  0.59005439  0.66432475  0.81499117  1
  O2-  O417  1  0.59749246  0.93639847  0.14044339  1
  O2-  O418  1  0.57543760  0.90546797  0.48279686  1
  O2-  O419  1  0.61353859  0.93860718  0.82029399  1
  O2-  O420  1  0.83652755  0.16052789  0.13995378  1
  O2-  O421  1  0.84606584  0.14940973  0.48002671  1
  O2-  O422  1  0.88053096  0.18589767  0.79156300  1
  O2-  O423  1  0.83213334  0.41056698  0.13475119  1
  O2-  O424  1  0.83002523  0.39514303  0.47850792  1
  O2-  O425  1  0.83782171  0.42909488  0.80512656  1
  O2-  O426  1  0.84412384  0.66904483  0.15705853  1
  O2-  O427  1  0.83104727  0.64636196  0.48676093  1
  O2-  O428  1  0.82892125  0.66241342  0.83019441  1
  O2-  O429  1  0.81929795  0.87051208  0.14019656  1
  O2-  O430  1  0.81566168  0.88171938  0.48369884  1
  O2-  O431  1  0.89442303  0.94079212  0.77881944  1
  O2-  O432  1  0.16939252  0.09538410  0.19691704  1
  O2-  O433  1  0.25498763  0.14368512  0.46664911  1
  O2-  O434  1  0.15872575  0.08877237  0.82197810  1
  O2-  O435  1  0.18502677  0.36612798  0.19693035  1
  O2-  O436  1  0.09573205  0.26814433  0.53620061  1
  O2-  O437  1  0.18769052  0.30918653  0.86491664  1
  O2-  O438  1  0.12694773  0.59562657  0.23260606  1
  O2-  O439  1  0.16882016  0.59701655  0.52378887  1
  O2-  O440  1  0.16730857  0.58743083  0.81752320  1
  O2-  O441  1  0.17891462  0.85132158  0.17331900  1
  O2-  O442  1  0.18089398  0.84369217  0.53766423  1
  O2-  O443  1  0.15674612  0.81078469  0.82621757  1
  O2-  O444  1  0.42462006  0.06343613  0.18796701  1
  O2-  O445  1  0.39936905  0.07663004  0.54013535  1
  O2-  O446  1  0.43687023  0.08193775  0.88078528  1
  O2-  O447  1  0.42029308  0.32771919  0.18493002  1
  O2-  O448  1  0.41172718  0.33624026  0.52650539  1
  O2-  O449  1  0.42639580  0.33909575  0.81432603  1
  O2-  O450  1  0.45892373  0.66582301  0.22236831  1
  O2-  O451  1  0.43048886  0.60584446  0.52682083  1
  O2-  O452  1  0.42897555  0.58828823  0.85766963  1
  O2-  O453  1  0.43257985  0.86159692  0.15362825  1
  O2-  O454  1  0.40579512  0.83812323  0.52511730  1
  O2-  O455  1  0.41914637  0.82916484  0.84536097  1
  O2-  O456  1  0.68095034  0.09407612  0.19436527  1
  O2-  O457  1  0.67090811  0.07438393  0.52026183  1
  O2-  O458  1  0.68233212  0.09336876  0.85835326  1
  O2-  O459  1  0.66432236  0.34749139  0.17289997  1
  O2-  O460  1  0.64714240  0.30986561  0.49906882  1
  O2-  O461  1  0.67175446  0.33404944  0.85458136  1
  O2-  O462  1  0.66812448  0.58864701  0.19287633  1
  O2-  O463  1  0.67356557  0.59547512  0.53115049  1
  O2-  O464  1  0.67523999  0.59595233  0.86855426  1
  O2-  O465  1  0.66421172  0.84990861  0.19150210  1
  O2-  O466  1  0.65133456  0.80083795  0.51301272  1
  O2-  O467  1  0.67332566  0.83784872  0.86289079  1
  O2-  O468  1  0.91951695  0.08593081  0.20771898  1
  O2-  O469  1  0.92439562  0.04991408  0.51523723  1
  O2-  O470  1  0.92056141  0.08125219  0.85754811  1
  O2-  O471  1  0.90539766  0.32560139  0.17316198  1
  O2-  O472  1  0.90830105  0.31375688  0.52183502  1
  O2-  O473  1  0.92469280  0.34150805  0.84294476  1
  O2-  O474  1  1.01192542  0.66463627  0.23305992  1
  O2-  O475  1  0.90989309  0.55653512  0.53524425  1
  O2-  O476  1  0.89937474  0.58177616  0.86559345  1
  O2-  O477  1  0.92605598  0.82847007  0.20099593  1
  O2-  O478  1  0.91671374  0.81727316  0.51720276  1
  O2-  O479  1  0.92100117  0.82626959  0.84939474  1
  O2-  O480  1  0.16244425  0.09613622  0.31441399  1
  O2-  O481  1  0.18528192  0.08530570  0.66608669  1
  O2-  O482  1  0.17980771  0.04337198  0.97318411  1
  O2-  O483  1  0.16686520  0.32617976  0.31487375  1
  O2-  O484  1  0.18434174  0.33639363  0.64451304  1
  O2-  O485  1  0.13363673  0.34193175  0.98303254  1
  O2-  O486  1  0.15560717  0.60749470  0.35831864  1
  O2-  O487  1  0.17652681  0.57801241  0.65050232  1
  O2-  O488  1  0.16525480  0.57114677  0.96122544  1
  O2-  O489  1  0.11159036  0.82419500  0.33705981  1
  O2-  O490  1  0.17438438  0.83256755  0.65992191  1
  O2-  O491  1  0.16776342  0.80130608  0.95716803  1
  O2-  O492  1  0.37662508  0.07581880  0.32245179  1
  O2-  O493  1  0.43528965  0.10513436  0.66141049  1
  O2-  O494  1  0.43258674  0.09037267  0.99900891  1
  O2-  O495  1  0.41856700  0.34467045  0.30933774  1
  O2-  O496  1  0.42910462  0.34375359  0.64979990  1
  O2-  O497  1  0.35802548  0.28589481  0.98207132  1
  O2-  O498  1  0.41781052  0.59350128  0.33579904  1
  O2-  O499  1  0.41591247  0.58998075  0.65068736  1
  O2-  O500  1  0.42083069  0.56636136  0.98362708  1
  O2-  O501  1  0.40361904  0.85095028  0.33329706  1
  O2-  O502  1  0.40775552  0.82470611  0.64954809  1
  O2-  O503  1  0.44116184  0.83757918  0.96435697  1
  O2-  O504  1  0.76248273  0.16267235  0.30786356  1
  O2-  O505  1  0.66276429  0.07869280  0.64632222  1
  O2-  O506  1  0.67948181  0.08732256  0.97988172  1
  O2-  O507  1  0.66500975  0.33021669  0.29941848  1
  O2-  O508  1  0.70444770  0.35689270  0.64632047  1
  O2-  O509  1  0.65355357  0.31111123  0.99131792  1
  O2-  O510  1  0.66776644  0.58198597  0.31306811  1
  O2-  O511  1  0.70209388  0.60469490  0.65353273  1
  O2-  O512  1  0.68363974  0.60498313  0.99817608  1
  O2-  O513  1  0.67999876  0.87182135  0.31821377  1
  O2-  O514  1  0.65895187  0.82548096  0.64218352  1
  O2-  O515  1  0.67466527  0.83404350  0.99114751  1
  O2-  O516  1  0.91675723  0.08727674  0.33068892  1
  O2-  O517  1  0.94787178  0.13092944  0.62074183  1
  O2-  O518  1  0.92151675  0.08544277  0.98316312  1
  O2-  O519  1  0.88789146  0.32049935  0.29350716  1
  O2-  O520  1  0.93607568  0.36374522  0.62959555  1
  O2-  O521  1  0.92408002  0.33233332  0.96785496  1
  O2-  O522  1  0.90073684  0.57852027  0.33171050  1
  O2-  O523  1  0.91379658  0.49649231  0.64636746  1
  O2-  O524  1  0.90378393  0.57257849  0.98147884  1
  O2-  O525  1  0.90934522  0.81727710  0.32488137  1
  O2-  O526  1  0.91550045  0.81055180  0.64067604  1
  O2-  O527  1  0.91457901  0.83295002  0.97719454  1
  O2-  O528  1  0.06157967  0.18330599  0.04624312  1
  O2-  O529  1  0.08405337  0.16343501  0.36067819  1
  O2-  O530  1  0.09264860  0.17224650  0.68426585  1
  O2-  O531  1  0.09973538  0.39930352  0.00201974  1
  O2-  O532  1  0.05004649  0.37018355  0.34244986  1
  O2-  O533  1  0.08671507  0.41382437  0.67523376  1
  O2-  O534  1  0.08877135  0.65851117  0.00274830  1
  O2-  O535  1  0.04934682  0.67102625  0.38857642  1
  O2-  O536  1  0.09354573  0.65701329  0.69557766  1
  O2-  O537  1  0.09232593  0.88282063  -0.00732195  1
  O2-  O538  1  0.07547409  0.87744992  0.35825338  1
  O2-  O539  1  0.07479662  0.90462310  0.69030396  1
  O2-  O540  1  0.32012869  0.13914188  0.03929477  1
  O2-  O541  1  0.31640076  0.17939383  0.35445185  1
  O2-  O542  1  0.35037216  0.18093970  0.70392571  1
  O2-  O543  1  0.29860897  0.39446393  0.01435025  1
  O2-  O544  1  0.32841122  0.42176558  0.35633986  1
  O2-  O545  1  0.34468699  0.42894694  0.68742357  1
  O2-  O546  1  0.34348937  0.66323663  -0.00285108  1
  O2-  O547  1  0.33913124  0.68095015  0.36928468  1
  O2-  O548  1  0.33815338  0.67227595  0.69263054  1
  O2-  O549  1  0.31669457  0.94477441  0.06018136  1
  O2-  O550  1  0.27817996  0.90157536  0.36774312  1
  O2-  O551  1  0.31635569  0.97006363  0.71746664  1
  O2-  O552  1  0.59385695  0.16364740  0.03130352  1
  O2-  O553  1  0.53657849  0.14553188  0.36591350  1
  O2-  O554  1  0.60917928  0.18988425  0.69083514  1
  O2-  O555  1  0.54139112  0.36431727  -0.00261001  1
  O2-  O556  1  0.58178381  0.42211469  0.34938621  1
  O2-  O557  1  0.60459107  0.42252693  0.63249498  1
  O2-  O558  1  0.58216377  0.66913407  0.03649295  1
  O2-  O559  1  0.57646603  0.66474992  0.38725104  1
  O2-  O560  1  0.59182071  0.66691464  0.67294919  1
  O2-  O561  1  0.59218089  0.92211915  0.01803649  1
  O2-  O562  1  0.56748922  0.93079424  0.36228293  1
  O2-  O563  1  0.57769086  0.91165363  0.69157293  1
  O2-  O564  1  0.84348490  0.17121616  0.01660103  1
  O2-  O565  1  0.87750623  0.13369399  0.36049187  1
  O2-  O566  1  0.80545454  0.09519412  0.69931690  1
  O2-  O567  1  0.81904539  0.40334488  0.01046997  1
  O2-  O568  1  0.81909538  0.40355384  0.35218627  1
  O2-  O569  1  0.83954687  0.47679627  0.68567366  1
  O2-  O570  1  0.84840022  0.67432769  0.02978442  1
  O2-  O571  1  0.81228582  0.65615788  0.35561378  1
  O2-  O572  1  0.85787455  0.63290528  0.69961282  1
  O2-  O573  1  0.83991018  0.91958908  0.02503015  1
  O2-  O574  1  0.83262301  0.91915102  0.36410089  1
  O2-  O575  1  0.81908228  0.89421574  0.66868281  1
