# generated using pymatgen
data_H2O
_symmetry_space_group_name_H-M   'P 1'
_cell_length_a   17.98819516
_cell_length_b   17.99206789
_cell_length_c   22.00384366
_cell_angle_alpha   90.01193013
_cell_angle_beta   89.99481745
_cell_angle_gamma   120.00399795
_symmetry_Int_Tables_number   1
_chemical_formula_structural   H2O
_chemical_formula_sum   'H384 O192'
_cell_volume   6167.09086267
_cell_formula_units_Z   192
loop_
 _symmetry_equiv_pos_site_id
 _symmetry_equiv_pos_as_xyz
  1  'x, y, z'
loop_
 _atom_type_symbol
 _atom_type_oxidation_number
  H+  1.0
  O2-  -2.0
loop_
 _atom_site_type_symbol
 _atom_site_label
 _atom_site_symmetry_multiplicity
 _atom_site_fract_x
 _atom_site_fract_y
 _atom_site_fract_z
 _atom_site_occupancy
  H+  H0  1  0.36059391  0.38013330  0.68075168  1
  H+  H1  1  0.91778161  0.07673069  0.27158522  1
  H+  H2  1  0.85518353  0.47274218  0.82947686  1
  H+  H3  1  1.02586751  0.13965627  1.01342106  1
  H+  H4  1  0.98295705  0.10343490  0.32611102  1
  H+  H5  1  0.38546996  0.27187509  0.66394636  1
  H+  H6  1  0.89920968  0.23342845  0.35105552  1
  H+  H7  1  0.88789264  0.61408116  0.65765184  1
  H+  H8  1  0.88604199  0.85780268  0.65990345  1
  H+  H9  1  0.85481618  0.36717715  0.68116860  1
  H+  H10  1  0.61399494  0.63820913  0.68355656  1
  H+  H11  1  0.61996271  0.66893568  -0.01439252  1
  H+  H12  1  0.62065793  0.26508567  0.51312712  1
  H+  H13  1  0.14139497  0.02044154  0.16146369  1
  H+  H14  1  0.41827719  1.02400138  -0.00100172  1
  H+  H15  1  0.72713174  0.13051001  0.51974288  1
  H+  H16  1  0.27852290  0.89044622  0.82774216  1
  H+  H17  1  0.38866751  1.01905952  0.82243859  1
  H+  H18  1  0.10854746  0.40553145  0.84338109  1
  H+  H19  1  0.15163248  0.61570342  0.18333105  1
  H+  H20  1  0.73086989  0.12634976  0.83453199  1
  H+  H21  1  0.03438318  0.08451596  0.78669194  1
  H+  H22  1  0.33541794  0.21331905  0.33925672  1
  H+  H23  1  0.62016750  0.99271340  0.51572848  1
  H+  H24  1  0.28671854  0.12945533  0.82883587  1
  H+  H25  1  0.97635444  0.37992487  0.84616720  1
  H+  H26  1  0.86867832  0.61139278  0.18110677  1
  H+  H27  1  0.51382137  0.62720239  0.83558378  1
  H+  H28  1  0.77073609  0.63071040  0.66901241  1
  H+  H29  1  0.66446887  0.00565540  0.15445407  1
  H+  H30  1  0.14862719  1.03763734  0.49364635  1
  H+  H31  1  0.85899584  0.71355574  0.35463338  1
  H+  H32  1  0.36068039  0.46911865  0.68452245  1
  H+  H33  1  0.65679400  0.83491221  0.58527970  1
  H+  H34  1  0.14405219  0.11897303  0.16319989  1
  H+  H35  1  0.28663352  0.39496212  0.16019617  1
  H+  H36  1  0.27418570  0.72848768  0.77944732  1
  H+  H37  1  0.84854869  0.11540385  0.69469951  1
  H+  H38  1  0.12595564  0.22915059  0.15902194  1
  H+  H39  1  0.36738934  0.72547804  0.00676606  1
  H+  H40  1  0.61823810  0.13348070  0.79521073  1
  H+  H41  1  0.86617603  0.50872978  0.51597485  1
  H+  H42  1  0.35153833  0.13597223  0.32766888  1
  H+  H43  1  0.17712614  0.30161524  0.49249170  1
  H+  H44  1  0.59003463  0.12349118  0.34253433  1
  H+  H45  1  0.00217942  0.35756066  0.33259928  1
  H+  H46  1  0.79249754  0.15707744  0.16839958  1
  H+  H47  1  0.23795227  0.61150902  0.18198776  1
  H+  H48  1  0.63439256  0.52416832  0.66422093  1
  H+  H49  1  0.77473509  0.14851300  0.35029897  1
  H+  H50  1  0.87763121  0.64980407  0.01091644  1
  H+  H51  1  0.48029704  0.11438512  0.16535087  1
  H+  H52  1  0.39876057  0.52188000  0.32257898  1
  H+  H53  1  0.87221531  0.52464612  0.17888715  1
  H+  H54  1  0.34018211  0.44685573  0.83514864  1
  H+  H55  1  0.42145482  0.82924514  0.56669103  1
  H+  H56  1  0.85937567  0.22613932  0.00718427  1
  H+  H57  1  0.23126042  0.61595023  0.65567157  1
  H+  H58  1  0.87272961  0.98388850  0.16416875  1
  H+  H59  1  0.85349097  0.96666674  0.34756886  1
  H+  H60  1  0.33836927  0.86775343  0.30762533  1
  H+  H61  1  0.29591567  0.40638890  0.48999895  1
  H+  H62  1  0.38871988  0.02150523  0.52934170  1
  H+  H63  1  0.32153549  0.72757808  0.31384898  1
  H+  H64  1  0.52248844  0.38920653  0.67635890  1
  H+  H65  1  0.47279225  0.10661865  0.67973041  1
  H+  H66  1  0.10740047  0.49225614  0.83979541  1
  H+  H67  1  0.59369116  0.46867007  0.14775080  1
  H+  H68  1  0.15518829  0.35861081  0.32451337  1
  H+  H69  1  0.15620642  0.37823083  0.50164104  1
  H+  H70  1  0.68476690  0.94143887  0.36596986  1
  H+  H71  1  0.06090946  0.40142653  0.59698207  1
  H+  H72  1  0.62105792  0.61145729  0.14689270  1
  H+  H73  1  0.47534641  0.34862842  0.18116816  1
  H+  H74  1  0.89933874  0.87874919  0.17128475  1
  H+  H75  1  0.82013227  0.89333801  0.82796937  1
  H+  H76  1  0.25157840  0.65604016  0.82653665  1
  H+  H77  1  0.11757743  0.71590366  0.33936587  1
  H+  H78  1  0.47795663  0.36354836  0.51569617  1
  H+  H79  1  0.64333061  0.03507463  0.82625860  1
  H+  H80  1  0.77208788  0.13278793  0.00362735  1
  H+  H81  1  0.87378377  0.73614581  0.01177868  1
  H+  H82  1  0.83512394  0.16857869  0.10241720  1
  H+  H83  1  0.60453277  0.37965027  0.82348781  1
  H+  H84  1  0.63010660  0.49415862  1.00795229  1
  H+  H85  1  0.19963702  0.34274533  0.84837225  1
  H+  H86  1  0.87713294  0.23930501  0.50774168  1
  H+  H87  1  0.63026767  0.26828220  0.31815976  1
  H+  H88  1  0.64546923  0.00472290  0.97218846  1
  H+  H89  1  0.86991983  0.24969140  0.83980582  1
  H+  H90  1  0.16390579  0.16858500  0.47373384  1
  H+  H91  1  0.38688675  0.85710661  0.65964092  1
  H+  H92  1  0.87666891  0.98762779  0.00901456  1
  H+  H93  1  0.61364722  0.84865421  0.91058911  1
  H+  H94  1  0.36739561  0.39090962  0.00460060  1
  H+  H95  1  0.55510431  0.65177148  0.49020067  1
  H+  H96  1  0.97393327  0.60609226  0.32451596  1
  H+  H97  1  0.52512575  0.89651597  0.82568402  1
  H+  H98  1  0.96696250  0.12454571  0.85895393  1
  H+  H99  1  0.33626175  0.58296346  0.45579939  1
  H+  H100  1  0.41727485  0.82812634  0.93567864  1
  H+  H101  1  0.50800029  0.13329450  0.33722016  1
  H+  H102  1  0.88985427  0.12773095  1.00593994  1
  H+  H103  1  0.88791310  0.27739841  0.18073777  1
  H+  H104  1  0.64550719  0.14054448  0.01072463  1
  H+  H105  1  0.63179145  0.86145417  0.67024245  1
  H+  H106  1  0.68160707  0.83691662  0.24659629  1
  H+  H107  1  0.97702608  0.86075722  0.65836117  1
  H+  H108  1  0.33013366  0.66124496  0.10045010  1
  H+  H109  1  0.39549233  0.87692030  0.84318296  1
  H+  H110  1  0.52556277  0.65521908  0.98186826  1
  H+  H111  1  0.38391564  0.61065737  0.17710809  1
  H+  H112  1  0.39063253  1.02286815  0.16643723  1
  H+  H113  1  0.27484512  0.88179736  0.16127267  1
  H+  H114  1  0.87780914  0.60524320  0.51441211  1
  H+  H115  1  0.21340211  0.85446855  0.31940230  1
  H+  H116  1  0.45636416  0.41663608  0.33725064  1
  H+  H117  1  0.86101086  0.73277142  0.16118479  1
  H+  H118  1  0.65136489  0.85136970  0.17903429  1
  H+  H119  1  0.50585534  0.83199951  0.36311204  1
  H+  H120  1  0.38577838  0.52172377  0.99434978  1
  H+  H121  1  0.62175209  1.00199501  0.16096867  1
  H+  H122  1  0.10702000  0.12543517  0.00419472  1
  H+  H123  1  0.86888983  0.62964050  0.34904652  1
  H+  H124  1  0.02840320  0.88479396  0.01078901  1
  H+  H125  1  0.61072751  0.23633467  0.15856464  1
  H+  H126  1  0.62785472  0.60839300  0.84532450  1
  H+  H127  1  0.69339958  0.84906790  0.87963698  1
  H+  H128  1  0.13700838  0.86079977  0.65969925  1
  H+  H129  1  0.71742855  0.35869264  0.31805984  1
  H+  H130  1  0.50632270  0.87371667  0.36764159  1
  H+  H131  1  0.62608001  0.26829139  0.67553560  1
  H+  H132  1  0.51822960  0.64672646  0.16792212  1
  H+  H133  1  0.28112337  0.36019759  0.33394876  1
  H+  H134  1  0.35142231  0.60617387  0.48558062  1
  H+  H135  1  0.13067988  0.72112515  0.15514844  1
  H+  H136  1  0.87036769  0.01278384  0.85248725  1
  H+  H137  1  0.09020679  0.16462797  0.70742355  1
  H+  H138  1  0.18968036  0.58365611  0.26989466  1
  H+  H139  1  0.60897835  0.47505831  0.50012917  1
  H+  H140  1  0.13225216  0.84286097  0.50625765  1
  H+  H141  1  0.41511156  0.33414699  0.60636985  1
  H+  H142  1  0.84286845  0.17477583  0.78719052  1
  H+  H143  1  0.14227576  0.27270965  1.00389050  1
  H+  H144  1  0.84841614  0.47611899  0.33718219  1
  H+  H145  1  0.11988931  0.88553777  0.00690723  1
  H+  H146  1  0.14726027  0.26683518  0.31223218  1
  H+  H147  1  0.10797716  0.38089420  0.01162268  1
  H+  H148  1  0.88419554  0.13511401  0.35189461  1
  H+  H149  1  0.70856683  0.61174176  0.15573190  1
  H+  H150  1  0.82590013  0.66796683  0.76207441  1
  H+  H151  1  0.82594340  0.37416813  0.48165388  1
  H+  H152  1  0.82888526  0.77337302  0.28985012  1
  H+  H153  1  0.36912811  0.87964292  0.00895820  1
  H+  H154  1  0.39054317  0.52458165  0.17721126  1
  H+  H155  1  0.12286071  0.38889489  0.64069650  1
  H+  H156  1  0.87110380  0.53970362  0.98080727  1
  H+  H157  1  0.63167878  0.27192975  0.81219308  1
  H+  H158  1  0.63073605  0.76999941  0.67020341  1
  H+  H159  1  0.96659844  0.35192787  0.66603092  1
  H+  H160  1  0.22329214  0.84638701  0.51278511  1
  H+  H161  1  0.87950227  0.60879468  0.84827098  1
  H+  H162  1  0.36368005  0.72374625  0.15741173  1
  H+  H163  1  0.66791609  0.17072186  0.19810320  1
  H+  H164  1  0.21623937  0.62677098  0.49979671  1
  H+  H165  1  0.15638914  0.10543685  0.83549624  1
  H+  H166  1  0.65730536  0.33102819  0.22692391  1
  H+  H167  1  0.31181496  0.39399430  0.77377780  1
  H+  H168  1  0.36601112  0.63142758  0.67597063  1
  H+  H169  1  0.73154091  0.63086505  -0.00298416  1
  H+  H170  1  0.68209343  1.02806809  0.37329158  1
  H+  H171  1  0.02348069  0.11302209  0.53721161  1
  H+  H172  1  0.72692393  0.60546790  0.51453373  1
  H+  H173  1  0.83610498  0.65617533  0.44423929  1
  H+  H174  1  0.85587106  0.85216632  0.33415336  1
  H+  H175  1  0.71859981  0.59378199  0.34684957  1
  H+  H176  1  0.48339581  0.87069225  0.50920960  1
  H+  H177  1  0.70931285  0.85623364  0.51633903  1
  H+  H178  1  0.59429503  0.72098447  0.84314095  1
  H+  H179  1  0.36712334  0.22379638  0.17438539  1
  H+  H180  1  0.64607915  0.61719702  0.50357651  1
  H+  H181  1  0.23199086  0.36002234  0.65722414  1
  H+  H182  1  1.01204643  0.07555676  0.51589271  1
  H+  H183  1  0.07922189  0.17769904  0.81046039  1
  H+  H184  1  0.39334773  0.11927786  0.82097194  1
  H+  H185  1  0.62906756  0.87978261  0.52466240  1
  H+  H186  1  0.36737370  0.88151851  0.51085091  1
  H+  H187  1  0.85896902  0.96670362  0.67793108  1
  H+  H188  1  0.27242674  0.64495175  1.01082287  1
  H+  H189  1  0.29611682  0.13846876  0.49521483  1
  H+  H190  1  0.11174129  0.72211317  0.67446354  1
  H+  H191  1  0.84462275  0.34326243  1.01581370  1
  H+  H192  1  0.78026412  0.41670447  -0.00849864  1
  H+  H193  1  0.37521868  0.27478128  -0.00654536  1
  H+  H194  1  0.11440687  0.46963515  0.49306941  1
  H+  H195  1  0.14936095  0.86374222  0.83423061  1
  H+  H196  1  0.91017935  0.85050345  0.83917241  1
  H+  H197  1  -0.00612551  0.85737551  0.33935007  1
  H+  H198  1  0.62969696  0.02285448  0.66815991  1
  H+  H199  1  0.63408666  0.12192244  0.51625693  1
  H+  H200  1  0.09417064  0.92368850  0.54578990  1
  H+  H201  1  0.24084068  0.11719125  0.16654479  1
  H+  H202  1  0.14428941  0.36407967  0.16826595  1
  H+  H203  1  0.88141041  0.37179840  0.84600680  1
  H+  H204  1  0.78618732  0.89149845  0.16757676  1
  H+  H205  1  0.11776142  0.84009338  0.32469451  1
  H+  H206  1  0.48291882  0.83433977  0.14249090  1
  H+  H207  1  0.93293218  0.18905396  0.85442465  1
  H+  H208  1  1.01564066  0.63888853  0.82663360  1
  H+  H209  1  0.11529513  0.22699084  0.65060196  1
  H+  H210  1  0.09673895  0.28138214  0.86480025  1
  H+  H211  1  0.11454206  0.71626333  0.49125487  1
  H+  H212  1  0.61938577  0.83962488  0.32062129  1
  H+  H213  1  0.12506902  0.63014442  0.34225708  1
  H+  H214  1  0.03581232  0.39947543  0.16599046  1
  H+  H215  1  0.61549030  0.72735758  0.17234139  1
  H+  H216  1  0.81858831  0.27710053  0.21935936  1
  H+  H217  1  0.52274119  0.88353752  0.67359089  1
  H+  H218  1  0.16672605  0.58979082  0.56486712  1
  H+  H219  1  0.60345463  0.46896215  0.83138441  1
  H+  H220  1  0.86189163  0.71896355  0.50195730  1
  H+  H221  1  0.38879029  0.76867667  0.65881952  1
  H+  H222  1  0.74370026  0.37878534  0.50156892  1
  H+  H223  1  0.70656032  0.17419726  0.36966225  1
  H+  H224  1  0.35980012  0.13241238  0.67364834  1
  H+  H225  1  0.76556038  0.12543835  0.69622881  1
  H+  H226  1  0.60318416  0.38304554  0.50001023  1
  H+  H227  1  0.71845706  0.36595215  0.16818749  1
  H+  H228  1  0.71585943  0.35792044  0.83054726  1
  H+  H229  1  0.50634180  0.54431834  0.55342920  1
  H+  H230  1  0.71491622  0.60665800  0.83941173  1
  H+  H231  1  0.98018847  0.61493696  0.65639035  1
  H+  H232  1  0.58446472  0.47242704  0.34872844  1
  H+  H233  1  0.04512683  0.88779335  0.82535672  1
  H+  H234  1  0.23021023  0.86560191  0.99370197  1
  H+  H235  1  0.38833956  0.35988208  0.51078050  1
  H+  H236  1  0.34113775  0.74570782  0.47539028  1
  H+  H237  1  0.51731975  0.13078916  0.50255215  1
  H+  H238  1  0.38013407  1.02791244  0.30769978  1
  H+  H239  1  0.41178114  0.58460871  0.27016782  1
  H+  H240  1  0.87245862  0.85404474  0.50758230  1
  H+  H241  1  0.13050028  1.00973079  -0.00911705  1
  H+  H242  1  0.48383984  0.11051934  0.80776786  1
  H+  H243  1  0.02769669  0.37235219  0.50038178  1
  H+  H244  1  0.36302422  0.97093159  0.67700945  1
  H+  H245  1  0.61159173  0.89435503  0.82665916  1
  H+  H246  1  0.12528441  0.48474407  0.16821941  1
  H+  H247  1  0.37252478  0.22368991  0.82520612  1
  H+  H248  1  0.40397503  0.56672483  0.90400879  1
  H+  H249  1  0.98650542  0.11817119  0.17587173  1
  H+  H250  1  0.36413389  0.13321879  0.15979537  1
  H+  H251  1  0.37240702  0.58619680  0.84153204  1
  H+  H252  1  0.26640502  0.21831855  1.05013685  1
  H+  H253  1  0.13955642  0.85976659  0.16853934  1
  H+  H254  1  0.37400725  0.34418509  0.83648836  1
  H+  H255  1  0.60156654  0.38435922  0.15465700  1
  H+  H256  1  0.27940472  0.39204290  0.01285409  1
  H+  H257  1  0.62195746  0.73243138  0.33498290  1
  H+  H258  1  0.13648102  0.47071219  0.34599042  1
  H+  H259  1  0.11254132  0.63366249  0.67216013  1
  H+  H260  1  0.62860767  0.35802692  0.66918685  1
  H+  H261  1  0.01410120  0.88164015  0.50439623  1
  H+  H262  1  0.27337736  0.88130334  0.67410166  1
  H+  H263  1  0.36549347  0.88401019  0.15477792  1
  H+  H264  1  0.96642388  0.10522196  0.65445999  1
  H+  H265  1  0.89767694  0.87536248  1.00011202  1
  H+  H266  1  0.14270140  0.52670930  0.64476387  1
  H+  H267  1  0.38522149  0.78551617  0.83825138  1
  H+  H268  1  0.89597675  1.02657931  0.82296480  1
  H+  H269  1  0.03410411  0.89679542  0.15968524  1
  H+  H270  1  0.46985661  0.35573876  0.83617169  1
  H+  H271  1  0.11252672  0.62097890  0.49468910  1
  H+  H272  1  0.84254652  0.10402547  0.51854909  1
  H+  H273  1  0.75716500  0.88088967  0.34445910  1
  H+  H274  1  0.85441545  0.38889989  0.16890637  1
  H+  H275  1  0.39489098  0.11504655  0.52373624  1
  H+  H276  1  0.82266359  0.95805231  0.50096181  1
  H+  H277  1  0.92669563  0.37019140  0.52324364  1
  H+  H278  1  0.63976178  0.60900481  0.33624742  1
  H+  H279  1  0.11511873  0.97643963  0.66582388  1
  H+  H280  1  0.13774920  0.11210331  0.64336594  1
  H+  H281  1  0.61199109  0.12836238  0.69645548  1
  H+  H282  1  0.11315730  0.12251998  0.32220407  1
  H+  H283  1  -0.02211578  0.35968007  -0.00279390  1
  H+  H284  1  0.47630356  0.60785091  0.67534236  1
  H+  H285  1  0.55091396  0.76479133  0.12297961  1
  H+  H286  1  0.60386009  0.16975948  0.10777232  1
  H+  H287  1  0.38129664  0.22656919  0.50711910  1
  H+  H288  1  0.46918918  0.87290408  0.20221499  1
  H+  H289  1  0.08945411  0.65662633  0.42713293  1
  H+  H290  1  0.42279268  0.08226236  0.61550019  1
  H+  H291  1  0.72207917  0.45794020  0.98756247  1
  H+  H292  1  0.57853122  0.17028705  0.01118085  1
  H+  H293  1  0.11731809  1.00171920  0.32632753  1
  H+  H294  1  0.30525576  0.59344828  0.33124693  1
  H+  H295  1  0.83502534  0.67307847  0.10291443  1
  H+  H296  1  0.82136062  0.39769797  0.10411001  1
  H+  H297  1  0.91604212  0.08126390  0.51991020  1
  H+  H298  1  0.56876342  0.16006659  0.43869506  1
  H+  H299  1  0.66793154  0.08074539  0.92614681  1
  H+  H300  1  0.10141967  0.40861708  0.40412588  1
  H+  H301  1  0.80455862  0.90170680  0.44039284  1
  H+  H302  1  0.48968127  0.84710122  -0.01786441  1
  H+  H303  1  0.05387238  0.88664196  0.39690626  1
  H+  H304  1  0.08331991  0.17882658  0.46979072  1
  H+  H305  1  0.32836323  0.16243407  0.73021272  1
  H+  H306  1  0.76966118  0.37354265  0.68283958  1
  H+  H307  1  0.17040899  0.83622708  0.93576574  1
  H+  H308  1  0.40666859  0.32551676  0.93129245  1
  H+  H309  1  0.84672500  0.92747208  0.06722434  1
  H+  H310  1  0.91569368  0.31735641  0.60635358  1
  H+  H311  1  0.20799839  0.08889364  0.32176065  1
  H+  H312  1  0.34980449  0.42905911  0.10426632  1
  H+  H313  1  0.80742827  0.72863406  0.80207706  1
  H+  H314  1  0.60202480  0.42169769  0.05688590  1
  H+  H315  1  0.42332208  0.51570073  0.51551371  1
  H+  H316  1  0.88390675  0.06708176  0.61068400  1
  H+  H317  1  0.64930146  0.32151008  0.57497867  1
  H+  H318  1  0.91167994  0.57724770  0.58458360  1
  H+  H319  1  0.38359237  0.78222080  0.26100744  1
  H+  H320  1  0.15880470  0.82196644  0.22801652  1
  H+  H321  1  0.22635025  0.11134352  0.65186820  1
  H+  H322  1  0.90860393  0.83010475  0.56668882  1
  H+  H323  1  0.29371338  0.68183547  0.41928963  1
  H+  H324  1  0.13429642  0.97631739  0.82288890  1
  H+  H325  1  0.07513069  0.66165804  0.76667999  1
  H+  H326  1  0.16638085  0.33609496  0.94717458  1
  H+  H327  1  0.89846703  0.12025685  0.17434429  1
  H+  H328  1  0.86085016  0.71944548  0.66688091  1
  H+  H329  1  0.41918426  0.09480421  0.25479408  1
  H+  H330  1  0.11554019  0.65589407  0.10137019  1
  H+  H331  1  0.70690510  0.15684836  0.26116548  1
  H+  H332  1  0.80481812  0.42208802  0.39596726  1
  H+  H333  1  0.58115989  0.91712448  0.73432748  1
  H+  H334  1  0.92564093  0.59057381  0.90267392  1
  H+  H335  1  0.32845212  0.66691092  0.72878650  1
  H+  H336  1  0.66181417  0.09389890  0.61536078  1
  H+  H337  1  0.08015646  0.42153815  0.06374668  1
  H+  H338  1  0.37870972  0.60764637  0.99138855  1
  H+  H339  1  0.61876133  0.94467511  0.45527311  1
  H+  H340  1  0.58320147  0.66750389  0.74388814  1
  H+  H341  1  0.18778814  0.33969408  0.59059055  1
  H+  H342  1  0.16362891  0.82271516  0.60326920  1
  H+  H343  1  0.94205233  0.13215951  0.94718105  1
  H+  H344  1  0.61634527  0.79658750  0.99958506  1
  H+  H345  1  0.58414300  0.84353591  0.07748995  1
  H+  H346  1  0.53020327  0.64408243  0.33809870  1
  H+  H347  1  0.34759557  0.92109447  0.36519811  1
  H+  H348  1  0.16134902  0.60396343  0.90768631  1
  H+  H349  1  0.17761092  0.09181239  0.55468717  1
  H+  H350  1  0.40389966  0.34137690  0.22766035  1
  H+  H351  1  0.91604661  0.33439916  0.93752529  1
  H+  H352  1  0.10962733  0.17642475  0.37812506  1
  H+  H353  1  0.35408167  0.41728981  0.43195647  1
  H+  H354  1  0.09186360  0.92003052  0.09864679  1
  H+  H355  1  0.90815736  0.58436986  0.26737777  1
  H+  H356  1  0.92687495  0.32681005  0.28219866  1
  H+  H357  1  0.92876835  0.84944198  0.23043212  1
  H+  H358  1  0.53815330  0.40987954  0.40424195  1
  H+  H359  1  0.92088150  0.77196339  0.85071583  1
  H+  H360  1  0.76883763  0.87785711  0.67509088  1
  H+  H361  1  0.12510744  0.62219682  0.84638353  1
  H+  H362  1  0.57999230  0.41893906  0.73645378  1
  H+  H363  1  0.31405630  0.17484388  0.07904906  1
  H+  H364  1  0.33469927  0.91469633  0.76555479  1
  H+  H365  1  0.92918070  0.84095766  0.94274140  1
  H+  H366  1  0.21163640  0.10502034  0.99574454  1
  H+  H367  1  0.09047283  0.91905317  0.72681632  1
  H+  H368  1  0.60278923  0.67171331  0.42673162  1
  H+  H369  1  0.17645933  0.33415182  0.22614808  1
  H+  H370  1  0.33669207  0.92347571  0.46078892  1
  H+  H371  1  0.82927359  0.40935217  0.77072703  1
  H+  H372  1  0.42591715  0.57121818  0.61409172  1
  H+  H373  1  0.66218671  0.58399205  0.60463771  1
  H+  H374  1  0.09195556  0.16562193  0.10079028  1
  H+  H375  1  0.17598344  0.07531953  0.89964923  1
  H+  H376  1  0.67131358  0.59509495  0.93864290  1
  H+  H377  1  0.14321060  0.77268878  0.83810558  1
  H+  H378  1  0.33578368  0.91131764  0.06472216  1
  H+  H379  1  0.97502703  0.59076941  0.99550241  1
  H+  H380  1  0.83099666  0.87561162  0.75941938  1
  H+  H381  1  0.42033402  0.10850400  0.98060916  1
  H+  H382  1  0.74341680  0.29196963  0.03187673  1
  H+  H383  1  0.84260910  0.17766715  0.44788137  1
  O2-  O384  1  0.09618529  0.16661374  0.14648257  1
  O2-  O385  1  0.14216676  0.20512404  0.45497995  1
  O2-  O386  1  0.09024521  0.13714727  0.78791900  1
  O2-  O387  1  0.09389759  0.42583454  0.14970012  1
  O2-  O388  1  0.09138546  0.40923646  0.48069337  1
  O2-  O389  1  0.07703196  0.43192370  0.82541369  1
  O2-  O390  1  0.11258944  0.66056249  0.14577070  1
  O2-  O391  1  0.08460207  0.65556292  0.47423716  1
  O2-  O392  1  0.07679223  0.66796105  0.81185569  1
  O2-  O393  1  0.09508118  0.92544541  0.14463695  1
  O2-  O394  1  0.07893779  0.91033900  0.50289638  1
  O2-  O395  1  0.10211003  0.91775651  0.80423810  1
  O2-  O396  1  0.33249152  0.16530528  0.15197548  1
  O2-  O397  1  0.35932158  0.16612402  0.49385099  1
  O2-  O398  1  0.34504943  0.16166116  0.80937730  1
  O2-  O399  1  0.34817810  0.42967217  0.14946106  1
  O2-  O400  1  0.35663218  0.42721951  0.47653014  1
  O2-  O401  1  0.30740018  0.38717810  0.81908663  1
  O2-  O402  1  0.33155473  0.66235552  0.14624141  1
  O2-  O403  1  0.28485485  0.70590309  0.45700000  1
  O2-  O404  1  0.29964652  0.69735187  0.79836475  1
  O2-  O405  1  0.33490202  0.91538223  0.14503703  1
  O2-  O406  1  0.33018357  0.90937819  0.50385085  1
  O2-  O407  1  0.33917747  0.92381579  0.81097966  1
  O2-  O408  1  0.58796929  0.17256601  0.15070623  1
  O2-  O409  1  0.57602589  0.16331264  0.48374478  1
  O2-  O410  1  0.58035908  0.15799570  0.77973575  1
  O2-  O411  1  0.56391063  0.40563953  0.13827819  1
  O2-  O412  1  0.57359899  0.41431652  0.48611624  1
  O2-  O413  1  0.57224350  0.41088677  0.81243624  1
  O2-  O414  1  0.57194846  0.68403294  0.14444014  1
  O2-  O415  1  0.61231301  0.67550243  0.47187535  1
  O2-  O416  1  0.57471154  0.66460204  0.82281489  1
  O2-  O417  1  0.55700900  0.82314247  0.11880005  1
  O2-  O418  1  0.59498772  0.93292095  0.49823408  1
  O2-  O419  1  0.58452112  0.92601105  0.80807904  1
  O2-  O420  1  0.84687572  0.17235455  0.14715472  1
  O2-  O421  1  0.83159096  0.17837278  0.49226529  1
  O2-  O422  1  0.84786722  0.18597951  0.83232564  1
  O2-  O423  1  0.82728161  0.41757485  0.14727353  1
  O2-  O424  1  0.80357756  0.41350386  0.48320697  1
  O2-  O425  1  0.82540995  0.41178943  0.81708635  1
  O2-  O426  1  0.82682505  0.67237819  0.14802280  1
  O2-  O427  1  0.83439874  0.65728911  0.49036699  1
  O2-  O428  1  0.81937708  0.68111487  0.80546236  1
  O2-  O429  1  0.84515413  0.92362656  0.14872519  1
  O2-  O430  1  0.80115284  0.89811011  0.48626251  1
  O2-  O431  1  0.82792248  0.85365686  0.80212744  1
  O2-  O432  1  0.17418107  0.08460683  0.17430589  1
  O2-  O433  1  0.18336367  0.09652127  0.50919494  1
  O2-  O434  1  0.18565255  0.07705777  0.85404407  1
  O2-  O435  1  0.17319096  0.33155090  0.18060327  1
  O2-  O436  1  0.19615346  0.35621907  0.51502994  1
  O2-  O437  1  0.14961191  0.33646593  0.87215093  1
  O2-  O438  1  0.18021704  0.58392467  0.20253757  1
  O2-  O439  1  0.15961130  0.58396861  0.51916429  1
  O2-  O440  1  0.16261086  0.59999924  0.86281039  1
  O2-  O441  1  0.16857556  0.82839005  0.18335617  1
  O2-  O442  1  0.15999867  0.81089448  0.52166855  1
  O2-  O443  1  0.17868011  0.83370659  0.85164097  1
  O2-  O444  1  0.41878426  0.08437784  0.17930133  1
  O2-  O445  1  0.42401820  0.08233271  0.54146742  1
  O2-  O446  1  0.42632576  0.08497136  0.82964308  1
  O2-  O447  1  0.42531228  0.30760590  0.20721832  1
  O2-  O448  1  0.41674229  0.33097405  0.53104772  1
  O2-  O449  1  0.40852961  0.31740576  0.84956363  1
  O2-  O450  1  0.41675387  0.58504410  0.19491142  1
  O2-  O451  1  0.46472115  0.56217823  0.54360892  1
  O2-  O452  1  0.40371098  0.55921980  0.85751306  1
  O2-  O453  1  0.43622968  0.83847900  0.16750997  1
  O2-  O454  1  0.42178713  0.83600497  0.52131470  1
  O2-  O455  1  0.42302921  0.84321787  0.85604868  1
  O2-  O456  1  0.72026150  0.17681795  0.21860072  1
  O2-  O457  1  0.66706696  0.09685477  0.53578340  1
  O2-  O458  1  0.66698252  0.09642974  0.83840666  1
  O2-  O459  1  0.65684307  0.33429584  0.18061585  1
  O2-  O460  1  0.64943848  0.32513964  0.52947589  1
  O2-  O461  1  0.65214123  0.32506491  0.83552411  1
  O2-  O462  1  0.64562424  0.57578171  0.15968111  1
  O2-  O463  1  0.66549818  0.58053494  0.52647020  1
  O2-  O464  1  0.65712127  0.57615048  0.85803009  1
  O2-  O465  1  0.68921711  0.83442136  0.19958995  1
  O2-  O466  1  0.65257267  0.83959811  0.53837697  1
  O2-  O467  1  0.63344275  0.82994424  0.87100797  1
  O2-  O468  1  0.92643987  0.08848414  0.19107955  1
  O2-  O469  1  0.85672503  0.05813849  0.53361973  1
  O2-  O470  1  0.98510612  0.18406954  0.86922392  1
  O2-  O471  1  0.87980574  0.31699649  0.20798490  1
  O2-  O472  1  0.94658058  0.32959191  0.53028303  1
  O2-  O473  1  0.91529652  0.34489053  0.86182861  1
  O2-  O474  1  0.89819016  0.58185324  0.19830721  1
  O2-  O475  1  0.90324859  0.56950106  0.53063465  1
  O2-  O476  1  0.91754268  0.58600797  0.85686042  1
  O2-  O477  1  0.93164483  0.84904878  0.18583983  1
  O2-  O478  1  0.90846406  0.82936745  0.52090673  1
  O2-  O479  1  0.94832422  0.83347836  0.86074718  1
  O2-  O480  1  0.14668389  0.05910871  0.30808654  1
  O2-  O481  1  0.16798455  0.07976684  0.63252186  1
  O2-  O482  1  0.15688094  0.06990551  0.97307481  1
  O2-  O483  1  0.18323217  0.32987635  0.30305370  1
  O2-  O484  1  0.17537244  0.33116744  0.63539681  1
  O2-  O485  1  0.17089776  0.33441874  0.99248296  1
  O2-  O486  1  0.18688497  0.57709738  0.31819577  1
  O2-  O487  1  0.17116799  0.59095342  0.64015726  1
  O2-  O488  1  0.15628104  0.60754715  0.98977260  1
  O2-  O489  1  0.15193854  0.81439792  0.30937105  1
  O2-  O490  1  0.16694513  0.82846212  0.64823350  1
  O2-  O491  1  0.16961821  0.84081981  0.98044894  1
  O2-  O492  1  0.41350147  0.09049760  0.30043606  1
  O2-  O493  1  0.41462547  0.07735085  0.66120714  1
  O2-  O494  1  0.45783475  0.08476297  0.98699414  1
  O2-  O495  1  0.40360288  0.41804985  0.31514115  1
  O2-  O496  1  0.41523486  0.33369881  0.65226868  1
  O2-  O497  1  0.40561816  0.33275812  0.97579676  1
  O2-  O498  1  0.40516041  0.57908887  0.31575889  1
  O2-  O499  1  0.41664614  0.57570832  0.65849329  1
  O2-  O500  1  0.40987572  0.57975323  0.97406290  1
  O2-  O501  1  0.34969177  0.78530191  0.29425527  1
  O2-  O502  1  0.41927385  0.82945457  0.64375008  1
  O2-  O503  1  0.42548710  0.82489542  0.98014406  1
  O2-  O504  1  0.71126760  0.13357234  0.34270055  1
  O2-  O505  1  0.65701643  0.08594368  0.66044305  1
  O2-  O506  1  0.67145483  0.06844757  0.96948263  1
  O2-  O507  1  0.65959413  0.32459578  0.29838127  1
  O2-  O508  1  0.65401979  0.32335327  0.65340502  1
  O2-  O509  1  0.77713970  0.46438309  0.97126094  1
  O2-  O510  1  0.66073702  0.56808862  0.32928837  1
  O2-  O511  1  0.66472977  0.58566820  0.65025071  1
  O2-  O512  1  0.67154570  0.60710318  0.98273023  1
  O2-  O513  1  0.67029986  0.83464757  0.31455627  1
  O2-  O514  1  0.66154764  0.83037253  0.65362519  1
  O2-  O515  1  0.63361188  0.85769275  1.01238935  1
  O2-  O516  1  0.91978309  0.07270143  0.31674531  1
  O2-  O517  1  0.90275364  0.06891672  0.65359974  1
  O2-  O518  1  0.92797553  0.10662426  0.98818222  1
  O2-  O519  1  0.93935966  0.32287598  0.32546981  1
  O2-  O520  1  0.90730207  0.31905864  0.65126502  1
  O2-  O521  1  0.91573008  0.32575495  0.98266370  1
  O2-  O522  1  0.91333855  0.58433841  0.31429344  1
  O2-  O523  1  0.92010136  0.58699589  0.63963696  1
  O2-  O524  1  0.92861001  0.59607967  0.97662206  1
  O2-  O525  1  0.87800553  0.81559867  0.31343951  1
  O2-  O526  1  0.91653016  0.82847937  0.64313759  1
  O2-  O527  1  0.92631332  0.84088802  0.98756861  1
  O2-  O528  1  0.08787156  0.16240268  0.02490409  1
  O2-  O529  1  0.09153412  0.16324154  0.33507309  1
  O2-  O530  1  0.08251352  0.16437470  0.66303676  1
  O2-  O531  1  0.07460843  0.41022558  0.01974816  1
  O2-  O532  1  0.10740190  0.40958980  0.35862018  1
  O2-  O533  1  0.09022347  0.42020761  0.63633349  1
  O2-  O534  1  0.11055893  0.63535576  0.01555474  1
  O2-  O535  1  0.09202970  0.65690947  0.35773805  1
  O2-  O536  1  0.07917932  0.66077326  0.68755904  1
  O2-  O537  1  0.09014913  0.91692541  0.02415536  1
  O2-  O538  1  0.05421001  0.88343632  0.35265579  1
  O2-  O539  1  0.08496718  0.91604877  0.68132170  1
  O2-  O540  1  0.29251014  0.18398804  0.03902420  1
  O2-  O541  1  0.31003547  0.15160399  0.34462962  1
  O2-  O542  1  0.32722311  0.16213038  0.68492997  1
  O2-  O543  1  0.34165913  0.42430730  0.02348805  1
  O2-  O544  1  0.33290294  0.36960354  0.35800502  1
  O2-  O545  1  0.32689701  0.40718248  0.69614679  1
  O2-  O546  1  0.33224013  0.66527599  0.02351725  1
  O2-  O547  1  0.27523897  0.62626445  0.34188268  1
  O2-  O548  1  0.33550690  0.66441840  0.68420469  1
  O2-  O549  1  0.34069227  0.91310599  0.01957220  1
  O2-  O550  1  0.32554548  0.91283142  0.32396310  1
  O2-  O551  1  0.33358341  0.90883976  0.68969764  1
  O2-  O552  1  0.63522006  0.18546715  0.02809480  1
  O2-  O553  1  0.56542769  0.15735020  0.35810479  1
  O2-  O554  1  0.57861041  0.15786676  0.71243193  1
  O2-  O555  1  0.62541015  0.43779078  0.01515758  1
  O2-  O556  1  0.53134699  0.41700735  0.36057174  1
  O2-  O557  1  0.58342621  0.42031096  0.69062447  1
  O2-  O558  1  0.58697785  0.69900386  -0.02141233  1
  O2-  O559  1  0.59081158  0.67113955  0.35102107  1
  O2-  O560  1  0.58353389  0.66858996  0.69829481  1
  O2-  O561  1  0.59368165  0.88577127  -0.03399323  1
  O2-  O562  1  0.67976241  0.97922829  0.39573802  1
  O2-  O563  1  0.58344548  0.91518448  0.68837596  1
  O2-  O564  1  0.82840380  0.16625555  0.02487897  1
  O2-  O565  1  0.86373579  0.17282843  0.36993077  1
  O2-  O566  1  0.81423043  0.13162474  0.72058437  1
  O2-  O567  1  0.79651648  0.34812727  0.03541008  1
  O2-  O568  1  0.81221318  0.41652011  0.35235433  1
  O2-  O569  1  0.82802346  0.39908285  0.69962258  1
  O2-  O570  1  0.84287976  0.67508330  0.02564863  1
  O2-  O571  1  0.83728755  0.65550703  0.37111078  1
  O2-  O572  1  0.83216733  0.65981060  0.68341608  1
  O2-  O573  1  0.85245029  0.92766057  0.02229378  1
  O2-  O574  1  0.81809481  0.90721908  0.36390070  1
  O2-  O575  1  0.82997498  0.90381594  0.68848536  1
