# generated using pymatgen
data_H2O
_symmetry_space_group_name_H-M   'P 1'
_cell_length_a   18.00263641
_cell_length_b   18.00012116
_cell_length_c   22.00939623
_cell_angle_alpha   90.02136671
_cell_angle_beta   89.99824617
_cell_angle_gamma   119.97792843
_symmetry_Int_Tables_number   1
_chemical_formula_structural   H2O
_chemical_formula_sum   'H384 O192'
_cell_volume   6177.98443448
_cell_formula_units_Z   192
loop_
 _symmetry_equiv_pos_site_id
 _symmetry_equiv_pos_as_xyz
  1  'x, y, z'
loop_
 _atom_type_symbol
 _atom_type_oxidation_number
  H+  1.0
  O2-  -2.0
loop_
 _atom_site_type_symbol
 _atom_site_label
 _atom_site_symmetry_multiplicity
 _atom_site_fract_x
 _atom_site_fract_y
 _atom_site_fract_z
 _atom_site_occupancy
  H+  H0  1  0.26664893  0.38162063  0.01443823  1
  H+  H1  1  0.39610185  0.77918233  1.01161187  1
  H+  H2  1  0.88238077  0.52837064  0.83667381  1
  H+  H3  1  0.64773661  0.14750090  0.83232492  1
  H+  H4  1  0.33190478  0.43759394  0.48982718  1
  H+  H5  1  0.22834706  0.35780858  0.17290238  1
  H+  H6  1  0.27325273  0.63904587  0.32893798  1
  H+  H7  1  0.03393404  0.13429539  0.68205550  1
  H+  H8  1  0.37173859  0.15177234  0.34590703  1
  H+  H9  1  0.75241229  0.37831424  0.05287765  1
  H+  H10  1  0.92609948  0.09016647  0.55658984  1
  H+  H11  1  0.52654180  0.64434659  0.16141337  1
  H+  H12  1  0.11334528  0.13020324  0.17087276  1
  H+  H13  1  0.53236617  0.89723082  0.20416752  1
  H+  H14  1  0.64121944  0.62168641  0.32833871  1
  H+  H15  1  0.58863145  0.93196253  0.66311948  1
  H+  H16  1  0.89370453  0.37720933  0.67649916  1
  H+  H17  1  0.64465654  0.37369716  0.84206666  1
  H+  H18  1  0.37750346  0.84248100  0.63544321  1
  H+  H19  1  0.88794044  0.24377106  0.68206016  1
  H+  H20  1  0.60710140  0.46187131  0.70580027  1
  H+  H21  1  0.61825011  0.64676858  0.16317439  1
  H+  H22  1  0.33878452  0.70765701  0.63381802  1
  H+  H23  1  0.77125284  0.14005873  0.33461500  1
  H+  H24  1  0.47570335  0.12277838  0.66138219  1
  H+  H25  1  0.12938936  0.66087031  -0.00118299  1
  H+  H26  1  0.27919671  0.52687618  0.52282441  1
  H+  H27  1  0.78482346  0.36839567  0.14777716  1
  H+  H28  1  0.97405705  0.87065970  0.84205992  1
  H+  H29  1  0.48288764  0.12999813  0.49894531  1
  H+  H30  1  0.38202878  0.79856117  0.49586524  1
  H+  H31  1  0.36162363  0.27632124  0.84632228  1
  H+  H32  1  0.94197966  0.86364432  0.17458968  1
  H+  H33  1  0.52705105  0.64633922  0.49297029  1
  H+  H34  1  0.90011215  0.13619849  0.00292107  1
  H+  H35  1  0.25270845  0.60768008  0.84919620  1
  H+  H36  1  0.87036388  -0.02040063  0.16491589  1
  H+  H37  1  0.20946429  0.10312369  0.84446401  1
  H+  H38  1  0.38989253  0.27338319  -0.00123129  1
  H+  H39  1  0.84437443  0.70858893  0.79865404  1
  H+  H40  1  0.38857974  0.35238605  0.50257252  1
  H+  H41  1  0.88142487  0.50691001  0.15417309  1
  H+  H42  1  0.15038581  0.04104181  0.28603275  1
  H+  H43  1  0.34426796  0.68905215  0.86241393  1
  H+  H44  1  0.34703857  0.46892190  0.67693868  1
  H+  H45  1  0.83556965  0.42048185  0.38964046  1
  H+  H46  1  0.11976869  0.85632105  0.84179989  1
  H+  H47  1  0.88992431  0.85645960  0.32964301  1
  H+  H48  1  0.08417551  0.15794197  0.07486311  1
  H+  H49  1  0.52881932  0.14083008  0.00322226  1
  H+  H50  1  0.38159267  0.13685305  0.16868055  1
  H+  H51  1  0.37142196  0.39168349  0.33946571  1
  H+  H52  1  0.87243390  0.23504423  0.48885530  1
  H+  H53  1  0.36253427  0.88310733  0.00453421  1
  H+  H54  1  0.85845019  0.22880993  0.02094915  1
  H+  H55  1  0.33712841  0.13435629  0.83549756  1
  H+  H56  1  0.92921888  0.82826089  0.27395778  1
  H+  H57  1  0.19044216  0.50690115  0.99034772  1
  H+  H58  1  0.13822579  0.86232361  0.50668158  1
  H+  H59  1  0.28018953  0.14096669  0.01019712  1
  H+  H60  1  0.12607842  0.50593942  0.17167689  1
  H+  H61  1  0.73598006  0.13154190  0.17277049  1
  H+  H62  1  0.38015882  0.52900774  0.00514445  1
  H+  H63  1  0.61298421  0.64538015  0.48040228  1
  H+  H64  1  0.09292446  0.62922858  0.82006083  1
  H+  H65  1  0.37147256  0.64564056  0.02186099  1
  H+  H66  1  0.01884777  0.12286838  0.48350837  1
  H+  H67  1  0.80106556  0.62670776  0.50459024  1
  H+  H68  1  0.09902188  0.72162718  0.82713366  1
  H+  H69  1  0.62888898  0.60833917  0.99608569  1
  H+  H70  1  0.73320295  0.62544398  0.33089845  1
  H+  H71  1  0.13492785  0.64447691  0.49456924  1
  H+  H72  1  0.56872928  0.15863765  0.84569290  1
  H+  H73  1  0.33358724  0.17410639  0.43808201  1
  H+  H74  1  0.11856689  0.48440925  0.49270818  1
  H+  H75  1  0.23621303  0.12809947  0.18010049  1
  H+  H76  1  0.71388576  0.59871129  0.83518353  1
  H+  H77  1  0.12920106  0.92025641  0.33206361  1
  H+  H78  1  0.11443926  0.64379102  0.67980715  1
  H+  H79  1  0.34155919  0.96236033  0.84798170  1
  H+  H80  1  0.50867066  0.60944193  0.81704778  1
  H+  H81  1  0.04179016  0.81402891  0.20418616  1
  H+  H82  1  0.23378681  0.86321979  -0.01195156  1
  H+  H83  1  0.85140638  0.88502637  0.49503658  1
  H+  H84  1  0.61973531  -0.02113559  0.99721692  1
  H+  H85  1  0.15007718  0.27168367  0.32329659  1
  H+  H86  1  -0.01848331  0.12445336  0.31715657  1
  H+  H87  1  0.85814796  0.47718767  0.32773228  1
  H+  H88  1  0.27850321  0.38601601  0.33863439  1
  H+  H89  1  0.22272303  0.32810899  0.49625397  1
  H+  H90  1  0.81413779  0.14618170  0.66916543  1
  H+  H91  1  0.90990896  0.82833147  0.60080604  1
  H+  H92  1  0.21673996  0.35598643  0.64952973  1
  H+  H93  1  0.86922227  0.35825552  1.06287695  1
  H+  H94  1  0.75283627  0.89892641  0.67739960  1
  H+  H95  1  0.63504125  0.28160433  0.00546608  1
  H+  H96  1  0.83779404  0.16395275  0.07447060  1
  H+  H97  1  0.35354342  0.63847064  0.17126747  1
  H+  H98  1  0.62675472  0.83975544  0.84464501  1
  H+  H99  1  0.51961378  0.38489268  0.68236319  1
  H+  H100  1  0.73405941  0.11722848  0.99668101  1
  H+  H101  1  0.22400240  0.11004540  0.50837051  1
  H+  H102  1  0.96396172  0.86236910  0.51255944  1
  H+  H103  1  -0.00065969  0.61515881  0.49919545  1
  H+  H104  1  0.60460884  0.48245675  -0.00441347  1
  H+  H105  1  0.63382042  1.02692543  0.31987823  1
  H+  H106  1  0.64198052  0.37845295  0.49979321  1
  H+  H107  1  0.72093457  0.85602393  0.83861923  1
  H+  H108  1  0.12301945  0.34082202  0.01056093  1
  H+  H109  1  0.78054937  0.88439088  0.16790998  1
  H+  H110  1  0.88829522  0.36029698  0.49781133  1
  H+  H111  1  0.83267108  0.91469317  0.09706058  1
  H+  H112  1  0.01780567  0.87607681  0.67175726  1
  H+  H113  1  0.51844151  0.63589638  0.33324230  1
  H+  H114  1  0.15959738  1.03023467  0.00985851  1
  H+  H115  1  0.98682473  0.37907966  0.67858134  1
  H+  H116  1  0.77155965  0.64309605  0.00362777  1
  H+  H117  1  0.87530242  0.48079708  0.48506065  1
  H+  H118  1  0.22331261  0.10375233  0.66426449  1
  H+  H119  1  0.61572757  0.46358175  0.84088011  1
  H+  H120  1  0.11715143  0.22066332  1.01552631  1
  H+  H121  1  0.86917090  0.39722990  0.81271190  1
  H+  H122  1  0.61933598  0.24951482  0.48302957  1
  H+  H123  1  0.22479665  0.61310685  0.66670729  1
  H+  H124  1  0.74356491  0.00602889  0.67541059  1
  H+  H125  1  0.61113118  0.14213103  0.67803494  1
  H+  H126  1  0.78658061  0.13519288  0.82570082  1
  H+  H127  1  0.35568773  0.55995287  0.85183126  1
  H+  H128  1  0.39149700  0.26719168  0.50917712  1
  H+  H129  1  0.88797199  0.79418774  0.87099611  1
  H+  H130  1  0.86573561  0.48501987  0.66368517  1
  H+  H131  1  0.26119031  0.66898574  1.00053163  1
  H+  H132  1  0.98629443  0.11883517  0.85055177  1
  H+  H133  1  0.90339311  0.76250113  0.17517480  1
  H+  H134  1  0.17588314  0.58251525  0.26610337  1
  H+  H135  1  0.45838193  0.84040998  0.84514318  1
  H+  H136  1  0.12694807  0.86184170  0.17041083  1
  H+  H137  1  0.78163724  0.39764061  0.48716734  1
  H+  H138  1  0.96775813  0.61921894  0.83544329  1
  H+  H139  1  0.63176362  0.86570733  0.32065212  1
  H+  H140  1  0.66787142  0.08790638  0.26089351  1
  H+  H141  1  0.13950687  0.35327507  0.32782224  1
  H+  H142  1  0.10983057  0.13346943  0.83960741  1
  H+  H143  1  0.33801713  0.76193205  0.17690346  1
  H+  H144  1  0.10696056  0.11860244  0.48956702  1
  H+  H145  1  0.81527533  0.64141399  0.71617582  1
  H+  H146  1  0.29698063  0.89094677  0.15503276  1
  H+  H147  1  0.73374473  0.63219883  0.17349711  1
  H+  H148  1  0.02589075  0.37850047  0.81438980  1
  H+  H149  1  0.60987494  0.13302506  0.15657379  1
  H+  H150  1  0.11543623  0.22055580  0.16442508  1
  H+  H151  1  0.91619576  0.59231059  0.92914776  1
  H+  H152  1  0.37048529  0.83758137  0.85623318  1
  H+  H153  1  0.10844244  -0.02620445  0.51847494  1
  H+  H154  1  0.12909136  0.73054208  0.49126660  1
  H+  H155  1  0.52756259  0.39215946  0.48313727  1
  H+  H156  1  0.33432600  0.44411053  0.77870990  1
  H+  H157  1  0.48817944  0.37737526  0.32629189  1
  H+  H158  1  0.98152992  0.61654566  0.65333351  1
  H+  H159  1  0.65404023  0.10244735  0.55074415  1
  H+  H160  1  0.14269832  0.27494747  0.84758973  1
  H+  H161  1  0.43152562  0.09753497  0.84321609  1
  H+  H162  1  0.45234309  0.43334330  0.62938785  1
  H+  H163  1  0.03210146  0.64715500  0.00033321  1
  H+  H164  1  0.87375078  0.73279801  0.34285620  1
  H+  H165  1  0.23283087  0.87423756  0.49742888  1
  H+  H166  1  0.12128747  0.48048263  0.68041960  1
  H+  H167  1  0.40595903  0.85783612  0.16508936  1
  H+  H168  1  0.85257054  0.62703833  0.81746493  1
  H+  H169  1  0.59043483  0.84760723  0.67244333  1
  H+  H170  1  0.85805540  -0.01398333  0.83601481  1
  H+  H171  1  0.63727841  0.78466889  0.50474304  1
  H+  H172  1  0.13070887  0.73621807  0.33998929  1
  H+  H173  1  0.36687235  -0.01142579  0.33079426  1
  H+  H174  1  0.10377458  0.96809378  0.82847983  1
  H+  H175  1  0.38758340  0.52881894  0.17338087  1
  H+  H176  1  0.60870610  0.88804535  0.48989353  1
  H+  H177  1  0.08809685  0.71917266  0.16646912  1
  H+  H178  1  0.16031851  0.32441120  0.94762412  1
  H+  H179  1  0.13995129  0.77641442  0.65195627  1
  H+  H180  1  0.22641385  0.36994953  0.85233032  1
  H+  H181  1  0.63937209  0.52520705  0.60878045  1
  H+  H182  1  0.66514082  0.28589860  0.84138880  1
  H+  H183  1  0.35950763  0.13832324  0.49568869  1
  H+  H184  1  0.51831935  0.89112185  0.33178888  1
  H+  H185  1  0.47137654  0.61318838  1.00411125  1
  H+  H186  1  0.61352751  0.37226287  0.15563324  1
  H+  H187  1  0.89392224  1.03797669  0.65309040  1
  H+  H188  1  0.16658818  0.08416398  0.56948595  1
  H+  H189  1  0.52268258  0.95860096  0.79092250  1
  H+  H190  1  0.64510126  0.27009808  0.16670428  1
  H+  H191  1  0.69234547  0.05315374  0.69578634  1
  H+  H192  1  0.87700438  0.37384310  0.15275115  1
  H+  H193  1  0.88181957  0.27716791  0.32142862  1
  H+  H194  1  0.63519875  0.52792650  0.47671435  1
  H+  H195  1  0.86373370  0.65107905  0.00062097  1
  H+  H196  1  0.33762871  0.61754685  0.63172761  1
  H+  H197  1  0.20777215  0.85221893  0.84593570  1
  H+  H198  1  0.61355752  0.72022722  0.00988637  1
  H+  H199  1  0.63358661  0.36183055  0.66242973  1
  H+  H200  1  0.00975190  0.35969098  0.34297358  1
  H+  H201  1  0.12330727  0.55960455  0.88860714  1
  H+  H202  1  0.96602879  0.59848342  0.16160784  1
  H+  H203  1  0.15585806  0.62358974  0.32434245  1
  H+  H204  1  0.67667491  0.60378425  0.23352925  1
  H+  H205  1  0.04142733  0.91816315  0.32969918  1
  H+  H206  1  0.47550480  0.35490002  0.17611158  1
  H+  H207  1  0.66077857  1.03892195  0.16358271  1
  H+  H208  1  0.66344101  0.91350359  0.14791206  1
  H+  H209  1  0.46373823  0.59663111  0.64643720  1
  H+  H210  1  0.88972300  0.36988268  0.32152355  1
  H+  H211  1  0.25613167  0.62323730  0.16722814  1
  H+  H212  1  0.88247258  0.77058803  0.50467237  1
  H+  H213  1  0.89231385  0.63837393  0.49276296  1
  H+  H214  1  0.61403174  0.14207521  0.32766433  1
  H+  H215  1  0.76821967  0.88105345  1.02238498  1
  H+  H216  1  0.37584539  0.37157624  0.85142211  1
  H+  H217  1  0.35670320  0.57241591  0.48084871  1
  H+  H218  1  0.97698818  0.10704103  0.17161104  1
  H+  H219  1  0.86979132  0.13950629  0.16263147  1
  H+  H220  1  0.77449856  0.39596023  0.66620799  1
  H+  H221  1  0.64134310  0.28148642  0.31480088  1
  H+  H222  1  0.89131683  0.54150655  0.99170297  1
  H+  H223  1  0.62519231  0.39634625  0.33058057  1
  H+  H224  1  0.35280771  0.22584378  0.67745977  1
  H+  H225  1  0.85836270  -0.02247652  0.49110866  1
  H+  H226  1  0.12083134  0.13849542  0.31808569  1
  H+  H227  1  0.37217923  1.04558175  0.16358158  1
  H+  H228  1  0.07462974  0.67683967  0.72829435  1
  H+  H229  1  0.15365719  0.49815096  -0.03019549  1
  H+  H230  1  0.89916797  0.12249137  0.84945141  1
  H+  H231  1  0.52958612  0.89083551  0.00546700  1
  H+  H232  1  0.92004446  0.34053777  0.76200936  1
  H+  H233  1  0.70975838  0.61873904  0.45167883  1
  H+  H234  1  0.25173107  0.63157297  0.49220937  1
  H+  H235  1  0.13514223  0.36617884  0.64087576  1
  H+  H236  1  0.60359975  0.62329318  0.65814210  1
  H+  H237  1  0.15680375  1.06793508  0.90633957  1
  H+  H238  1  0.10958939  0.87964052  0.67078440  1
  H+  H239  1  0.18981243  0.60097102  0.73464178  1
  H+  H240  1  0.11062590  0.38803162  0.16806216  1
  H+  H241  1  0.87257085  0.60509487  0.31384245  1
  H+  H242  1  0.89416820  0.11973865  0.49739936  1
  H+  H243  1  0.12512291  0.23581243  0.49810949  1
  H+  H244  1  0.76809584  0.87249636  0.33702602  1
  H+  H245  1  0.34510189  0.38189238  0.68928203  1
  H+  H246  1  0.88707944  0.76510618  0.65613702  1
  H+  H247  1  0.13430121  1.01425954  0.66277382  1
  H+  H248  1  0.40927801  0.70639241  0.46904979  1
  H+  H249  1  0.74976135  0.38210194  0.83348170  1
  H+  H250  1  0.61520800  0.97785893  0.49097245  1
  H+  H251  1  0.06927995  0.90214305  0.56810447  1
  H+  H252  1  0.72563732  0.87339749  0.50842601  1
  H+  H253  1  0.27102329  0.89491538  0.64549273  1
  H+  H254  1  0.36387259  -0.00679868  0.48710226  1
  H+  H255  1  0.99625331  0.13083826  1.00531516  1
  H+  H256  1  0.13886898  0.10619974  1.00260457  1
  H+  H257  1  0.36570193  0.90574206  0.48720727  1
  H+  H258  1  0.57135464  0.64354842  0.72137013  1
  H+  H259  1  0.86346686  0.89054503  1.02114328  1
  H+  H260  1  0.58521906  0.16692870  1.06352391  1
  H+  H261  1  0.50150388  0.38011985  0.99447171  1
  H+  H262  1  0.43037040  0.35047353  0.59318649  1
  H+  H263  1  0.85963863  0.62767065  0.15132130  1
  H+  H264  1  0.44933000  0.82837408  0.66550904  1
  H+  H265  1  0.38014331  0.27359615  0.18214245  1
  H+  H266  1  0.11683036  0.12744356  0.68735955  1
  H+  H267  1  0.38429956  0.52351271  0.32982953  1
  H+  H268  1  0.12851645  0.59920100  0.17408292  1
  H+  H269  1  0.52245740  0.13939000  0.15542997  1
  H+  H270  1  0.35780298  0.38721777  1.01042578  1
  H+  H271  1  0.52393569  0.85192917  0.20255225  1
  H+  H272  1  0.38585884  0.11288018  0.00030189  1
  H+  H273  1  0.36919700  0.39192773  0.16543102  1
  H+  H274  1  0.93307755  0.10462784  0.93926673  1
  H+  H275  1  0.64499395  0.02649008  0.84152465  1
  H+  H276  1  0.38416810  0.02237368  0.99411395  1
  H+  H277  1  0.58456482  0.66260046  0.06974864  1
  H+  H278  1  0.73254262  0.36855434  0.31849804  1
  H+  H279  1  0.00838262  0.35791973  0.02836647  1
  H+  H280  1  0.62817766  0.77466976  0.32013122  1
  H+  H281  1  0.76923743  0.62717831  0.65124742  1
  H+  H282  1  0.62969474  0.75653412  0.65473349  1
  H+  H283  1  0.07500101  0.90909570  0.76749019  1
  H+  H284  1  0.62391220  0.16491105  0.47318684  1
  H+  H285  1  0.78653921  0.14246916  0.49381610  1
  H+  H286  1  0.62220117  0.59226270  0.83564267  1
  H+  H287  1  -0.02218328  0.36402915  0.50524265  1
  H+  H288  1  0.07310091  0.39082194  0.08603674  1
  H+  H289  1  0.23786114  0.65248001  0.93278012  1
  H+  H290  1  0.17167342  0.32771684  0.23256018  1
  H+  H291  1  0.10523539  0.67221814  0.39535035  1
  H+  H292  1  0.83455877  0.43175468  0.75896726  1
  H+  H293  1  0.88962414  0.27829887  0.81859434  1
  H+  H294  1  0.85738468  0.89961715  0.82504994  1
  H+  H295  1  0.33191702  0.16749512  0.07214204  1
  H+  H296  1  0.25164718  0.93607986  0.11947637  1
  H+  H297  1  0.34609088  0.91999297  0.69198319  1
  H+  H298  1  0.57969537  0.40779921  0.10330946  1
  H+  H299  1  0.59619801  0.69982416  0.82039059  1
  H+  H300  1  0.42885079  0.10227015  0.56129523  1
  H+  H301  1  0.39583559  0.55430510  0.59060110  1
  H+  H302  1  0.84662109  0.66846419  0.39960665  1
  H+  H303  1  0.60262489  0.38718911  -0.00353709  1
  H+  H304  1  0.92517093  0.33687940  0.22740896  1
  H+  H305  1  0.11556473  0.38050270  0.83078647  1
  H+  H306  1  0.41686742  0.82539982  0.94685068  1
  H+  H307  1  0.37819538  0.24314654  0.34875994  1
  H+  H308  1  0.13566792  0.77101693  0.99453277  1
  H+  H309  1  0.42338682  0.34172212  0.26979673  1
  H+  H310  1  0.59491444  0.17498942  0.74027452  1
  H+  H311  1  0.67345308  0.83669807  0.23059817  1
  H+  H312  1  0.28362318  0.21276234  0.12958262  1
  H+  H313  1  0.65767610  0.57894454  0.93440332  1
  H+  H314  1  0.57807213  0.92001437  0.39119668  1
  H+  H315  1  0.58422022  0.17897859  0.38337222  1
  H+  H316  1  0.09374741  0.15420885  0.38470474  1
  H+  H317  1  0.62611387  0.48695231  0.33527736  1
  H+  H318  1  0.08405686  0.67410311  0.10331091  1
  H+  H319  1  0.82261305  0.90084629  0.39790449  1
  H+  H320  1  0.31785961  0.16583227  0.77295320  1
  H+  H321  1  0.39658050  0.83551237  0.26377289  1
  H+  H322  1  0.87933728  0.23457120  0.16139968  1
  H+  H323  1  0.83196513  0.17078543  0.39382616  1
  H+  H324  1  0.08488028  0.16334472  0.77813891  1
  H+  H325  1  0.57406727  0.39122158  0.78859262  1
  H+  H326  1  0.34527096  0.68502019  0.41072952  1
  H+  H327  1  0.64053599  0.27855829  0.65770148  1
  H+  H328  1  0.67269564  0.82453015  0.93957959  1
  H+  H329  1  0.08334357  0.41430269  0.44030356  1
  H+  H330  1  0.68030082  0.33541317  0.22309685  1
  H+  H331  1  0.33766346  0.67453154  0.08196948  1
  H+  H332  1  0.39294934  0.07608260  0.91090346  1
  H+  H333  1  0.65901590  0.82504901  0.59917927  1
  H+  H334  1  0.15129167  0.83879124  0.27429244  1
  H+  H335  1  0.47743512  0.12230152  0.31586358  1
  H+  H336  1  0.68192070  0.08571776  0.90217073  1
  H+  H337  1  0.41090556  0.09671382  0.26125669  1
  H+  H338  1  0.67565531  0.60432597  0.56698318  1
  H+  H339  1  0.56016150  0.90685521  0.76004194  1
  H+  H340  1  0.16152064  0.31343993  0.55983475  1
  H+  H341  1  0.57776861  0.67478900  0.39172149  1
  H+  H342  1  0.22382183  0.61124734  0.55959242  1
  H+  H343  1  0.38700307  0.03713102  0.64575672  1
  H+  H344  1  0.36530324  0.73237351  0.32802031  1
  H+  H345  1  0.41171730  0.65509803  0.74896112  1
  H+  H346  1  0.83685874  0.67335887  0.09783048  1
  H+  H347  1  0.16712445  0.83225745  0.58992157  1
  H+  H348  1  0.89350151  0.12675790  0.31866467  1
  H+  H349  1  0.15998028  0.83037207  0.92992310  1
  H+  H350  1  0.85153743  0.16543859  0.76790687  1
  H+  H351  1  0.32466303  0.39098070  0.42696927  1
  H+  H352  1  0.64654320  0.12059781  0.99159669  1
  H+  H353  1  0.33650775  0.93238384  0.39176206  1
  H+  H354  1  0.41679476  0.58543416  0.23330013  1
  H+  H355  1  0.64629065  0.77757576  0.17020524  1
  H+  H356  1  0.66750057  0.34449351  0.55976187  1
  H+  H357  1  0.22908373  0.87664086  0.32302618  1
  H+  H358  1  0.89310696  0.56851221  0.25339029  1
  H+  H359  1  0.02700563  0.29994905  0.38442238  1
  H+  H360  1  0.36551264  0.14468844  0.67414257  1
  H+  H361  1  0.40682659  0.32985884  0.93561200  1
  H+  H362  1  0.88053691  0.36482969  0.99105240  1
  H+  H363  1  0.11557028  0.50386450  0.83074292  1
  H+  H364  1  0.33632531  0.41871371  0.10566663  1
  H+  H365  1  0.89040577  0.79195697  0.99980148  1
  H+  H366  1  0.38462972  0.61394724  0.32534431  1
  H+  H367  1  0.09652508  0.40854572  0.72865499  1
  H+  H368  1  0.36529617  0.64145750  0.75362508  1
  H+  H369  1  0.92037861  0.13447122  0.65300314  1
  H+  H370  1  0.58753934  0.42021882  0.42194455  1
  H+  H371  1  0.80660495  0.94727106  0.73695484  1
  H+  H372  1  0.32329346  0.91798169  0.05635014  1
  H+  H373  1  0.91732075  0.08335172  0.23088669  1
  H+  H374  1  0.93581231  0.58376189  0.55723993  1
  H+  H375  1  0.38368676  0.87127508  0.32547287  1
  H+  H376  1  0.69836507  0.05671905  0.58063505  1
  H+  H377  1  0.63951018  0.86038745  -0.00706932  1
  H+  H378  1  0.92945078  0.86655432  0.95062618  1
  H+  H379  1  -0.00351802  0.37061680  0.17007618  1
  H+  H380  1  0.47374473  0.87999578  0.50074874  1
  H+  H381  1  0.88996461  0.61163071  0.64646007  1
  H+  H382  1  0.63018471  0.93883825  0.08807956  1
  H+  H383  1  0.32160437  0.90091907  0.79175890  1
  O2-  O384  1  0.08455981  0.15912913  0.14971898  1
  O2-  O385  1  0.08086773  0.15091751  0.47024492  1
  O2-  O386  1  0.08514784  0.16877436  0.82439342  1
  O2-  O387  1  0.08047828  0.41652015  0.15145107  1
  O2-  O388  1  0.08420530  0.42253057  0.48475632  1
  O2-  O389  1  0.08957395  0.41055730  0.80787359  1
  O2-  O390  1  0.07426776  0.66360177  0.14735589  1
  O2-  O391  1  0.10004742  0.66881419  0.47892012  1
  O2-  O392  1  0.06651796  0.66411424  0.80719412  1
  O2-  O393  1  0.11718107  0.89223896  0.08660261  1
  O2-  O394  1  0.07384656  0.90937635  0.52401747  1
  O2-  O395  1  0.07257200  0.90717520  0.81307681  1
  O2-  O396  1  0.30385331  0.17670869  0.14805245  1
  O2-  O397  1  0.32763392  0.16849573  0.48451282  1
  O2-  O398  1  0.31120042  0.16667784  0.81786443  1
  O2-  O399  1  0.33756001  0.42116399  0.15106820  1
  O2-  O400  1  0.31851072  0.38106089  0.47314982  1
  O2-  O401  1  0.33737874  0.44600395  0.82427134  1
  O2-  O402  1  0.31917548  0.66450708  0.15650914  1
  O2-  O403  1  0.35071647  0.69063010  0.45854960  1
  O2-  O404  1  0.30849227  0.62659587  0.86896981  1
  O2-  O405  1  0.30661601  0.93882353  0.12823487  1
  O2-  O406  1  0.33279876  0.93343690  0.47113270  1
  O2-  O407  1  0.31733301  0.90032535  0.83588154  1
  O2-  O408  1  0.58150811  0.16427957  0.13904721  1
  O2-  O409  1  0.58713696  0.18928578  0.46582395  1
  O2-  O410  1  0.61871177  0.18131339  0.81909384  1
  O2-  O411  1  0.57187337  0.39158765  0.14604477  1
  O2-  O412  1  0.58783744  0.42640105  0.46820397  1
  O2-  O413  1  0.59273035  0.40073355  0.83158920  1
  O2-  O414  1  0.58602184  0.67479290  0.14482200  1
  O2-  O415  1  0.58339127  0.67947291  0.47435842  1
  O2-  O416  1  0.56897178  0.64131386  0.80262129  1
  O2-  O417  1  0.66239180  0.96133313  0.12641771  1
  O2-  O418  1  0.58075712  0.91999047  0.47340062  1
  O2-  O419  1  0.55477880  0.92957318  0.80071952  1
  O2-  O420  1  0.84292392  0.17270752  0.14696134  1
  O2-  O421  1  0.84268970  0.17229115  0.47351612  1
  O2-  O422  1  0.84786699  0.16778691  0.81323550  1
  O2-  O423  1  0.84263139  0.39535295  0.12803496  1
  O2-  O424  1  0.83972890  0.42087291  0.46970341  1
  O2-  O425  1  0.83810378  0.43002760  0.80484913  1
  O2-  O426  1  0.83941606  0.66945715  0.14275176  1
  O2-  O427  1  0.85448138  0.66459843  0.48346353  1
  O2-  O428  1  0.81441399  0.64606542  0.79648948  1
  O2-  O429  1  0.84128340  0.91698488  0.14985561  1
  O2-  O430  1  0.82116430  0.91555371  0.48063279  1
  O2-  O431  1  0.82468213  0.92916570  0.81537738  1
  O2-  O432  1  0.16783849  0.08631459  0.20211505  1
  O2-  O433  1  0.16330144  0.07923837  0.52402838  1
  O2-  O434  1  0.15032189  0.06631831  0.86118733  1
  O2-  O435  1  0.16799238  0.32310394  0.18738888  1
  O2-  O436  1  0.16172548  0.29997870  0.51319044  1
  O2-  O437  1  0.16563582  0.33435275  0.86440475  1
  O2-  O438  1  0.16013197  0.57046119  0.18733141  1
  O2-  O439  1  0.20061510  0.59606195  0.51792599  1
  O2-  O440  1  0.13449277  0.56499907  0.84489865  1
  O2-  O441  1  0.09848769  0.81693348  0.20125614  1
  O2-  O442  1  0.17373206  0.83522958  0.51454803  1
  O2-  O443  1  0.14662857  0.82296983  0.85924460  1
  O2-  O444  1  0.40956286  0.10378845  0.18035074  1
  O2-  O445  1  0.42420801  0.09732300  0.51627572  1
  O2-  O446  1  0.37758796  0.06587087  0.86512311  1
  O2-  O447  1  0.41719558  0.33502516  0.19442642  1
  O2-  O448  1  0.42507880  0.33044066  0.52065471  1
  O2-  O449  1  0.39682825  0.33329772  0.86551123  1
  O2-  O450  1  0.41660424  0.58961582  0.18812916  1
  O2-  O451  1  0.33559719  0.53249274  0.51523245  1
  O2-  O452  1  0.39447635  0.53745426  0.83910998  1
  O2-  O453  1  0.35310718  0.82263976  0.18756030  1
  O2-  O454  1  0.41356682  0.85545958  0.51518960  1
  O2-  O455  1  0.40331324  0.80886976  0.86695632  1
  O2-  O456  1  0.67396734  0.09509541  0.18349833  1
  O2-  O457  1  0.68493803  0.07246610  0.54066122  1
  O2-  O458  1  0.68291566  0.08585220  0.85580718  1
  O2-  O459  1  0.68206149  0.33163095  0.17774113  1
  O2-  O460  1  0.67032656  0.34614109  0.51465285  1
  O2-  O461  1  0.68983468  0.34744351  0.85315051  1
  O2-  O462  1  0.67464819  0.60957593  0.18895497  1
  O2-  O463  1  0.66862433  0.59278553  0.48506425  1
  O2-  O464  1  0.65604430  0.56767293  0.85422169  1
  O2-  O465  1  0.68328121  0.83784444  0.18551059  1
  O2-  O466  1  0.66382559  0.84240135  0.52365448  1
  O2-  O467  1  0.66161108  0.81338395  0.85299623  1
  O2-  O468  1  0.91541890  0.07684941  0.18447013  1
  O2-  O469  1  0.92095247  0.08517370  0.51131464  1
  O2-  O470  1  0.92607005  0.09090303  0.86831683  1
  O2-  O471  1  0.92785158  0.33405810  0.18239885  1
  O2-  O472  1  0.91508858  0.32789096  0.51413812  1
  O2-  O473  1  0.91928624  0.34061553  0.80805151  1
  O2-  O474  1  0.90304829  0.56575713  0.17031801  1
  O2-  O475  1  0.93698028  0.58534618  0.51186968  1
  O2-  O476  1  0.90734962  0.58877867  0.85190128  1
  O2-  O477  1  0.94496773  0.81791148  0.19623659  1
  O2-  O478  1  0.90085801  0.82932509  0.51984345  1
  O2-  O479  1  0.91680952  0.85491593  0.86090829  1
  O2-  O480  1  0.17867275  0.10135197  0.26842733  1
  O2-  O481  1  0.16436595  0.07464383  0.64730210  1
  O2-  O482  1  0.17350190  0.08172871  0.98545280  1
  O2-  O483  1  0.17860013  0.33382789  0.31141420  1
  O2-  O484  1  0.16628257  0.33842155  0.62331263  1
  O2-  O485  1  0.16169196  0.31907438  0.99238617  1
  O2-  O486  1  0.18584698  0.59159019  0.31076242  1
  O2-  O487  1  0.17047588  0.59038810  0.69248122  1
  O2-  O488  1  0.21804807  0.66637541  0.97020950  1
  O2-  O489  1  0.16558457  0.84540562  0.31818578  1
  O2-  O490  1  0.16790832  0.83634739  0.63574491  1
  O2-  O491  1  0.16968073  0.83274480  0.97589851  1
  O2-  O492  1  0.41495996  0.09221212  0.30609826  1
  O2-  O493  1  0.41970191  0.10145185  0.64109510  1
  O2-  O494  1  0.41391195  0.08324014  0.97965294  1
  O2-  O495  1  0.42610862  0.34710246  0.31547731  1
  O2-  O496  1  0.43735447  0.37385483  0.63657387  1
  O2-  O497  1  0.41721343  0.33324735  0.98181227  1
  O2-  O498  1  0.41574654  0.58296846  0.31293474  1
  O2-  O499  1  0.40181031  0.56206130  0.63504129  1
  O2-  O500  1  0.41036799  0.59021112  0.99311917  1
  O2-  O501  1  0.41125094  0.83924056  0.30769207  1
  O2-  O502  1  0.38648175  0.80238541  0.66022128  1
  O2-  O503  1  0.42169382  0.83784203  0.99114365  1
  O2-  O504  1  0.66541663  0.08821138  0.30656521  1
  O2-  O505  1  0.71284423  0.03719218  0.65976052  1
  O2-  O506  1  0.67669339  0.09039727  0.97615265  1
  O2-  O507  1  0.67264878  0.34255187  0.30117226  1
  O2-  O508  1  0.66614686  0.33787419  0.64192945  1
  O2-  O509  1  0.66309788  0.34289046  0.99041403  1
  O2-  O510  1  0.67258130  0.59154570  0.31597775  1
  O2-  O511  1  0.66718125  0.58765803  0.61054345  1
  O2-  O512  1  0.65732795  0.57541909  0.97961004  1
  O2-  O513  1  0.66162295  0.83518643  0.30568103  1
  O2-  O514  1  0.65587566  0.81862373  0.64482046  1
  O2-  O515  1  0.67042962  0.82796410  0.98429190  1
  O2-  O516  1  0.92232553  0.09694201  0.30129429  1
  O2-  O517  1  0.93672609  0.09358476  0.63538488  1
  O2-  O518  1  0.93481830  0.10925617  0.98596773  1
  O2-  O519  1  0.91930548  0.33787485  0.30801904  1
  O2-  O520  1  0.92356038  0.34503029  0.68739403  1
  O2-  O521  1  0.88608461  0.33608816  1.02658552  1
  O2-  O522  1  0.89392601  0.56773515  0.29830644  1
  O2-  O523  1  0.92296488  0.58269607  0.63479412  1
  O2-  O524  1  0.92309350  0.59912448  0.97455143  1
  O2-  O525  1  0.92861273  0.83274589  0.31893206  1
  O2-  O526  1  0.91989246  0.82645545  0.64507008  1
  O2-  O527  1  0.92102860  0.85518873  0.99444005  1
  O2-  O528  1  0.08254847  0.15807200  0.02863749  1
  O2-  O529  1  0.09391258  0.16659783  0.34092108  1
  O2-  O530  1  0.08716312  0.15562175  0.70600693  1
  O2-  O531  1  0.06463632  0.36823040  0.04126695  1
  O2-  O532  1  0.05662521  0.35748358  0.36704328  1
  O2-  O533  1  0.09215213  0.41682723  0.68411082  1
  O2-  O534  1  0.09118484  0.68102258  0.01700421  1
  O2-  O535  1  0.11025540  0.67552706  0.35072210  1
  O2-  O536  1  0.08201159  0.67531464  0.68339769  1
  O2-  O537  1  0.18089493  0.96084720  0.06507912  1
  O2-  O538  1  0.10399135  0.95835086  0.33318709  1
  O2-  O539  1  0.07898735  0.90846842  0.68764355  1
  O2-  O540  1  0.34009053  0.16981809  0.02671715  1
  O2-  O541  1  0.35090932  0.18566908  0.36812895  1
  O2-  O542  1  0.32999677  0.16766934  0.69299373  1
  O2-  O543  1  0.32819405  0.41612991  0.02755558  1
  O2-  O544  1  0.33742569  0.41740453  0.35749059  1
  O2-  O545  1  0.31629310  0.41401524  0.70029857  1
  O2-  O546  1  0.34790438  0.68340225  0.03699184  1
  O2-  O547  1  0.33843825  0.67275650  0.34467693  1
  O2-  O548  1  0.30266963  0.64451724  0.62258562  1
  O2-  O549  1  0.32763929  0.91255800  0.01118940  1
  O2-  O550  1  0.33731996  0.92812525  0.34654731  1
  O2-  O551  1  0.33563119  0.93040175  0.65035889  1
  O2-  O552  1  0.58907064  0.17254797  0.01770316  1
  O2-  O553  1  0.58444088  0.17519717  0.33853841  1
  O2-  O554  1  0.58549899  0.17391168  0.69548018  1
  O2-  O555  1  0.56989804  0.41733259  0.00771151  1
  O2-  O556  1  0.59556924  0.42558401  0.34943489  1
  O2-  O557  1  0.57341956  0.39933944  0.70551078  1
  O2-  O558  1  0.58407386  0.65944308  0.02384772  1
  O2-  O559  1  0.58001694  0.66998760  0.34715153  1
  O2-  O560  1  0.57012364  0.64776490  0.67603389  1
  O2-  O561  1  0.59307720  0.91868434  0.01170177  1
  O2-  O562  1  0.57931534  0.92069390  0.34603948  1
  O2-  O563  1  0.55827917  0.87795939  0.68579822  1
  O2-  O564  1  0.83813144  0.16673604  0.02788088  1
  O2-  O565  1  0.83210909  0.17295672  0.34853234  1
  O2-  O566  1  0.86903566  0.18154755  0.69008977  1
  O2-  O567  1  0.71038784  0.39613049  0.04282447  1
  O2-  O568  1  0.83225684  0.41610347  0.34451944  1
  O2-  O569  1  0.83331871  0.42701831  0.68379678  1
  O2-  O570  1  0.83210637  0.67873107  0.01686840  1
  O2-  O571  1  0.83614537  0.67076238  0.35582492  1
  O2-  O572  1  0.82540359  0.65008452  0.67164760  1
  O2-  O573  1  0.82711963  0.91360980  0.04013768  1
  O2-  O574  1  0.82498405  0.88924750  0.35435506  1
  O2-  O575  1  0.79418050  0.95633292  0.69433320  1
