# generated using pymatgen
data_H2O
_symmetry_space_group_name_H-M   'P 1'
_cell_length_a   17.97905356
_cell_length_b   17.98929338
_cell_length_c   21.99821263
_cell_angle_alpha   90.02518727
_cell_angle_beta   89.98858852
_cell_angle_gamma   119.98898213
_symmetry_Int_Tables_number   1
_chemical_formula_structural   H2O
_chemical_formula_sum   'H384 O192'
_cell_volume   6162.36079775
_cell_formula_units_Z   192
loop_
 _symmetry_equiv_pos_site_id
 _symmetry_equiv_pos_as_xyz
  1  'x, y, z'
loop_
 _atom_type_symbol
 _atom_type_oxidation_number
  H+  1.0
  O2-  -2.0
loop_
 _atom_site_type_symbol
 _atom_site_label
 _atom_site_symmetry_multiplicity
 _atom_site_fract_x
 _atom_site_fract_y
 _atom_site_fract_z
 _atom_site_occupancy
  H+  H0  1  0.71757277  0.37159149  0.31054838  1
  H+  H1  1  0.94081315  0.87516436  0.16309194  1
  H+  H2  1  0.21416487  0.36949609  0.33303182  1
  H+  H3  1  0.39482780  0.49529314  0.16189021  1
  H+  H4  1  0.48881709  0.12330130  0.49937481  1
  H+  H5  1  0.30770160  0.57920248  0.46128235  1
  H+  H6  1  0.72675612  0.61851653  0.66200131  1
  H+  H7  1  0.28798644  0.13269488  0.64752980  1
  H+  H8  1  0.35257039  0.48272135  0.34196490  1
  H+  H9  1  0.85260158  0.37861678  0.00945827  1
  H+  H10  1  0.36631889  0.48211780  0.49749576  1
  H+  H11  1  0.47734581  0.59632575  0.66708493  1
  H+  H12  1  0.16392500  0.07965772  0.26875377  1
  H+  H13  1  0.23593837  0.59768692  0.65197895  1
  H+  H14  1  0.37121838  0.36973344  0.65869787  1
  H+  H15  1  0.60811510  0.62984684  0.33499423  1
  H+  H16  1  0.37902484  0.85542499  0.84092538  1
  H+  H17  1  0.85200531  0.71208229  0.47584289  1
  H+  H18  1  0.12413045  0.71228665  0.68474396  1
  H+  H19  1  0.12070437  0.89019267  0.52333951  1
  H+  H20  1  0.38818875  0.64222913  0.17303614  1
  H+  H21  1  0.97128168  0.37480718  0.18141711  1
  H+  H22  1  0.65100075  0.28599210  0.66237697  1
  H+  H23  1  0.21907988  0.37148611  0.83878277  1
  H+  H24  1  0.76846996  0.63731214  0.15237980  1
  H+  H25  1  0.26388349  0.63759720  0.15826113  1
  H+  H26  1  0.12379591  0.26716020  0.65549330  1
  H+  H27  1  0.36936787  0.62696891  0.67794968  1
  H+  H28  1  0.10884124  0.72811830  0.16234756  1
  H+  H29  1  0.43779831  0.19705009  0.67706246  1
  H+  H30  1  0.85693639  0.39283357  0.16207061  1
  H+  H31  1  0.47841161  0.85108915  0.66048409  1
  H+  H32  1  0.87878781  0.11822080  0.47763729  1
  H+  H33  1  0.81772466  0.89302670  0.72247801  1
  H+  H34  1  0.36165482  0.40063927  0.81508450  1
  H+  H35  1  0.60959487  0.47432491  0.49270410  1
  H+  H36  1  0.71125151  0.09129334  0.31626519  1
  H+  H37  1  0.85694156  0.62363014  0.83473142  1
  H+  H38  1  0.37114749  0.23595127  0.49078048  1
  H+  H39  1  0.96871668  0.84211630  0.66760146  1
  H+  H40  1  0.76875474  0.88741606  0.48270226  1
  H+  H41  1  0.48253720  0.10185632  0.33524293  1
  H+  H42  1  0.75744574  0.63364119  0.47187651  1
  H+  H43  1  0.12039306  0.15568762  0.85570623  1
  H+  H44  1  0.73280016  0.37837413  0.50879400  1
  H+  H45  1  0.38574886  0.87248567  0.99514682  1
  H+  H46  1  0.10683554  0.22790400  0.33257313  1
  H+  H47  1  0.88353612  0.08302342  0.31126682  1
  H+  H48  1  0.86464944  0.49986890  0.84073761  1
  H+  H49  1  0.35062755  0.28144843  0.32549875  1
  H+  H50  1  0.52792647  0.64830077  0.15372808  1
  H+  H51  1  0.84369761  0.95509565  0.02984981  1
  H+  H52  1  0.60334834  0.23177053  0.00177843  1
  H+  H53  1  0.60299302  0.87906391  0.34219978  1
  H+  H54  1  0.47536080  0.86656476  0.51318457  1
  H+  H55  1  0.35433394  0.46826785  0.66726490  1
  H+  H56  1  0.62064093  0.72909393  0.15255079  1
  H+  H57  1  0.91371895  0.79896347  0.60688721  1
  H+  H58  1  0.40606940  0.08630863  0.90902359  1
  H+  H59  1  0.61235225  0.97950210  0.64698086  1
  H+  H60  1  0.87030672  0.41568756  0.50560507  1
  H+  H61  1  0.60512236  0.70799599  0.67086431  1
  H+  H62  1  0.10121751  0.38724721  0.16818969  1
  H+  H63  1  0.86044449  0.25118443  -0.00573498  1
  H+  H64  1  0.13422177  0.28433786  0.17872259  1
  H+  H65  1  0.12848587  0.52717595  0.49920959  1
  H+  H66  1  0.85430646  -0.01841817  0.46921740  1
  H+  H67  1  0.47354476  0.85841176  0.17355150  1
  H+  H68  1  0.43562842  0.33981795  1.08775099  1
  H+  H69  1  0.27683128  0.89209977  0.49796834  1
  H+  H70  1  0.71003024  0.11234551  0.62461670  1
  H+  H71  1  0.70143848  0.10684212  0.99400654  1
  H+  H72  1  0.61861110  1.00978981  0.32766902  1
  H+  H73  1  0.50995713  0.88807674  0.82946502  1
  H+  H74  1  0.39008966  0.09337369  0.33296894  1
  H+  H75  1  0.11805755  0.64661422  0.49079747  1
  H+  H76  1  0.22659788  0.11013582  0.32598323  1
  H+  H77  1  0.62688140  0.49255474  0.82925888  1
  H+  H78  1  0.58201149  0.66287273  0.76902485  1
  H+  H79  1  0.88086699  0.29108860  0.51620006  1
  H+  H80  1  0.09768259  0.72851130  0.33995922  1
  H+  H81  1  0.22530045  0.84777838  0.66726726  1
  H+  H82  1  0.01386237  0.38497911  0.68066633  1
  H+  H83  1  0.61352912  0.22660952  0.15015953  1
  H+  H84  1  0.85467323  0.86746967  0.66441864  1
  H+  H85  1  0.14283062  0.51475006  0.65219469  1
  H+  H86  1  0.61632705  0.13412552  0.34324846  1
  H+  H87  1  0.63526419  0.78098053  0.83336753  1
  H+  H88  1  0.89268812  0.74816149  0.30600718  1
  H+  H89  1  0.86921562  0.31339653  0.33217869  1
  H+  H90  1  0.10533678  0.48589470  0.33860380  1
  H+  H91  1  0.35279016  0.98851027  0.01402392  1
  H+  H92  1  0.52116714  0.13853826  0.82538900  1
  H+  H93  1  0.88287079  0.52038026  0.99748461  1
  H+  H94  1  0.86662145  0.52170587  0.18360274  1
  H+  H95  1  0.37695167  0.36070928  0.17767428  1
  H+  H96  1  0.51256165  0.87656022  0.34287350  1
  H+  H97  1  0.97225664  0.37288831  0.84551459  1
  H+  H98  1  0.64366852  0.86340742  0.17275787  1
  H+  H99  1  0.63000544  0.84363382  0.64615639  1
  H+  H100  1  0.96724743  0.11935706  0.46900906  1
  H+  H101  1  0.61621752  0.22375134  0.34218765  1
  H+  H102  1  0.11625563  0.14268557  0.33503164  1
  H+  H103  1  0.71752547  0.84097692  0.65018899  1
  H+  H104  1  0.38429119  0.76897126  0.84120823  1
  H+  H105  1  0.62434149  0.40073453  0.82938828  1
  H+  H106  1  0.72225064  0.36079221  -0.00790901  1
  H+  H107  1  0.36254869  0.73660032  0.00656297  1
  H+  H108  1  0.50926472  0.38046090  0.34026524  1
  H+  H109  1  0.85892125  0.63705373  1.00466633  1
  H+  H110  1  0.48762532  0.61961963  0.50799898  1
  H+  H111  1  0.61976338  0.39334721  -0.00374222  1
  H+  H112  1  0.14441841  0.56246805  0.98901975  1
  H+  H113  1  0.40333262  0.27378628  1.03373064  1
  H+  H114  1  0.27629576  0.19703860  0.77258760  1
  H+  H115  1  0.85159235  0.52692525  0.34987286  1
  H+  H116  1  0.12180906  0.61673271  0.32334903  1
  H+  H117  1  0.92657796  0.00567968  0.17651881  1
  H+  H118  1  0.31737526  0.65955145  0.39263446  1
  H+  H119  1  0.07138041  0.91731931  0.10732789  1
  H+  H120  1  0.64172735  0.37077072  0.66251519  1
  H+  H121  1  0.52448471  0.13942180  0.15553731  1
  H+  H122  1  0.76419973  0.38457858  0.15750404  1
  H+  H123  1  0.98354554  0.86476527  0.99530916  1
  H+  H124  1  0.75814526  0.86189980  0.03700618  1
  H+  H125  1  0.90836092  0.77363789  0.84196293  1
  H+  H126  1  0.62487905  0.35907623  0.32257863  1
  H+  H127  1  0.06972593  0.13363582  -0.05690411  1
  H+  H128  1  0.60966775  0.96815354  0.16072949  1
  H+  H129  1  0.26091030  0.37750704  0.66516657  1
  H+  H130  1  0.76324609  0.14261170  0.51389782  1
  H+  H131  1  0.48872358  0.38828421  0.81371930  1
  H+  H132  1  0.02020285  0.87714134  0.33370447  1
  H+  H133  1  0.11943824  0.29459202  0.83555062  1
  H+  H134  1  0.12402581  -0.01983154  1.01791574  1
  H+  H135  1  0.11648289  0.88915972  1.01701119  1
  H+  H136  1  0.01354238  0.64007842  0.00416728  1
  H+  H137  1  0.65455184  0.95279673  0.69749131  1
  H+  H138  1  0.36036252  0.38958652  0.02425168  1
  H+  H139  1  0.84479594  0.38273048  0.82853851  1
  H+  H140  1  0.35259586  0.72940726  0.15705575  1
  H+  H141  1  0.20369508  0.85882358  0.17476232  1
  H+  H142  1  0.97591982  0.09508039  0.32845307  1
  H+  H143  1  0.08272730  0.11979519  0.66981289  1
  H+  H144  1  0.63387915  0.85826652  0.49998140  1
  H+  H145  1  0.27133294  0.15894236  0.66322121  1
  H+  H146  1  0.17359976  0.82886375  0.57257613  1
  H+  H147  1  0.39379175  0.20823670  0.33574831  1
  H+  H148  1  0.08947529  0.88290201  0.16928349  1
  H+  H149  1  0.13181622  0.52849107  0.17186645  1
  H+  H150  1  0.03284012  0.87869412  0.83499973  1
  H+  H151  1  0.09179589  0.94504498  0.67895362  1
  H+  H152  1  0.88225970  0.24001702  0.81920143  1
  H+  H153  1  0.89804758  0.56036598  0.51974014  1
  H+  H154  1  0.88275783  0.37140891  0.67205860  1
  H+  H155  1  0.64796314  0.08787664  0.92264162  1
  H+  H156  1  0.61074840  0.97324514  0.49831290  1
  H+  H157  1  0.36392919  0.06359756  0.65382241  1
  H+  H158  1  0.61745846  0.14269383  0.66093749  1
  H+  H159  1  0.87335091  0.01721126  0.84806686  1
  H+  H160  1  0.95600637  0.11021740  0.85144502  1
  H+  H161  1  0.10206218  -0.01839716  0.58649304  1
  H+  H162  1  0.99448033  0.63670930  0.51606752  1
  H+  H163  1  0.34121956  0.87147887  0.16202330  1
  H+  H164  1  0.37982030  0.85484925  0.32811660  1
  H+  H165  1  0.86336846  0.00448755  0.67705545  1
  H+  H166  1  0.57713949  0.66556679  0.05789074  1
  H+  H167  1  0.08391952  0.42900574  0.00044867  1
  H+  H168  1  0.47122281  0.69695324  0.21134082  1
  H+  H169  1  0.97345063  0.37475059  0.51160171  1
  H+  H170  1  0.03904060  0.62233988  0.68619413  1
  H+  H171  1  0.61664055  0.12281570  0.99129489  1
  H+  H172  1  0.24379376  0.62241557  0.83173086  1
  H+  H173  1  0.85465026  0.63551485  0.15852488  1
  H+  H174  1  0.85465826  0.08894235  0.67677092  1
  H+  H175  1  0.89454050  0.77723490  0.99114722  1
  H+  H176  1  0.17855015  0.05289857  0.62683017  1
  H+  H177  1  0.14036506  0.53040684  0.83437866  1
  H+  H178  1  0.09825299  0.35144992  1.00955782  1
  H+  H179  1  0.39835940  0.30063094  0.81406308  1
  H+  H180  1  0.12654177  0.76523782  0.84376832  1
  H+  H181  1  0.61398955  0.72347053  0.48539305  1
  H+  H182  1  0.24026766  0.64087480  0.98853808  1
  H+  H183  1  0.12895437  0.86252276  0.33171940  1
  H+  H184  1  0.21602936  0.85628615  0.32949726  1
  H+  H185  1  0.37997491  0.61313496  -0.00735407  1
  H+  H186  1  0.01117370  0.70658482  0.79594566  1
  H+  H187  1  0.26451566  0.12075468  0.16086326  1
  H+  H188  1  0.75398136  0.89826236  0.81420259  1
  H+  H189  1  0.25872597  0.63485267  0.33263650  1
  H+  H190  1  0.77903343  0.64205763  0.83490081  1
  H+  H191  1  0.41512906  0.29823929  0.66555571  1
  H+  H192  1  0.64220858  0.62275362  0.84213110  1
  H+  H193  1  0.76834960  0.41052590  0.38274639  1
  H+  H194  1  0.63366998  0.36322969  0.16201830  1
  H+  H195  1  0.90365900  0.52098207  0.67140495  1
  H+  H196  1  0.10090423  0.38086906  0.67911893  1
  H+  H197  1  0.77892709  0.39651362  0.67932051  1
  H+  H198  1  1.01276509  0.40392002  0.34246170  1
  H+  H199  1  0.36446934  0.85954337  0.67613741  1
  H+  H200  1  0.29861605  0.12631520  0.00418289  1
  H+  H201  1  0.36890961  0.71578142  0.67361198  1
  H+  H202  1  0.63137354  0.11417501  0.52690832  1
  H+  H203  1  0.11731017  0.00556191  0.17432435  1
  H+  H204  1  0.36198488  0.96251567  0.34070381  1
  H+  H205  1  0.75989915  0.87675935  0.33607995  1
  H+  H206  1  0.25970374  0.62398449  0.48745800  1
  H+  H207  1  0.22367469  0.35606406  -0.00344524  1
  H+  H208  1  0.66499134  0.82202847  0.55492099  1
  H+  H209  1  0.53445958  0.39640224  1.01422223  1
  H+  H210  1  0.38127691  0.52848944  0.83840794  1
  H+  H211  1  0.86013747  0.96027039  0.33490955  1
  H+  H212  1  0.85891682  0.14195709  0.82346751  1
  H+  H213  1  0.95556612  0.09473502  1.00550501  1
  H+  H214  1  -0.02074497  0.81186178  0.52481328  1
  H+  H215  1  0.66789914  0.58215110  0.56199950  1
  H+  H216  1  0.35660354  0.47508167  0.00743609  1
  H+  H217  1  0.08213094  0.67634355  0.43393374  1
  H+  H218  1  0.81069393  0.17434280  0.72770262  1
  H+  H219  1  0.36591432  -0.01921948  0.49005797  1
  H+  H220  1  0.83512306  0.11116810  1.01257699  1
  H+  H221  1  0.62669933  0.23480792  0.49804953  1
  H+  H222  1  0.47883460  0.36954070  0.50804713  1
  H+  H223  1  0.11203373  0.15078939  0.48017422  1
  H+  H224  1  0.00462293  0.64495671  0.34605683  1
  H+  H225  1  0.13157796  0.28006278  0.50050659  1
  H+  H226  1  0.53836512  0.40480620  0.68265562  1
  H+  H227  1  0.69562033  0.19415129  0.70100262  1
  H+  H228  1  0.38845400  0.87043658  0.51502004  1
  H+  H229  1  0.08334028  0.18176327  0.42281220  1
  H+  H230  1  0.82965126  0.15344606  0.26563871  1
  H+  H231  1  0.95446585  0.33098717  0.99820403  1
  H+  H232  1  0.61031444  0.64121254  0.99853818  1
  H+  H233  1  0.10371429  -0.03137769  0.34058619  1
  H+  H234  1  0.15742921  -0.00231446  0.84433600  1
  H+  H235  1  0.62714122  0.86543287  0.83481607  1
  H+  H236  1  0.37906988  0.76602952  0.32474174  1
  H+  H237  1  0.73417895  0.37421181  0.83670138  1
  H+  H238  1  0.16344099  0.11102866  -0.01106635  1
  H+  H239  1  0.84625275  0.45168187  0.44664062  1
  H+  H240  1  0.12311494  0.87604720  0.83318607  1
  H+  H241  1  0.52440088  0.64098243  0.82870349  1
  H+  H242  1  0.81042604  0.98107313  0.77148149  1
  H+  H243  1  0.63159851  0.60672373  0.50333762  1
  H+  H244  1  0.11612081  0.40732864  0.83175962  1
  H+  H245  1  0.61961328  0.47647746  0.15470222  1
  H+  H246  1  0.10584461  0.39026918  0.49205227  1
  H+  H247  1  0.09712825  -0.04367041  0.49243090  1
  H+  H248  1  0.13471881  0.84634733  0.66886268  1
  H+  H249  1  0.28036080  0.13242054  0.81795196  1
  H+  H250  1  0.16695062  0.33421803  0.93495675  1
  H+  H251  1  0.12383439  0.36751677  0.33143435  1
  H+  H252  1  0.63729002  0.28605014  0.83987903  1
  H+  H253  1  0.72057946  0.59544807  0.31985819  1
  H+  H254  1  0.23107486  0.12646396  0.48818944  1
  H+  H255  1  0.36262518  0.94403105  0.66547235  1
  H+  H256  1  0.83102073  0.66795515  1.06473556  1
  H+  H257  1  0.36260850  0.63502706  0.82883813  1
  H+  H258  1  0.61011867  0.38541825  0.49348324  1
  H+  H259  1  -0.01728836  0.21130311  0.78972694  1
  H+  H260  1  0.83655571  0.23760269  0.67193733  1
  H+  H261  1  0.62750703  0.51385843  0.32434699  1
  H+  H262  1  0.60117424  0.86036903  0.02180508  1
  H+  H263  1  0.64417908  0.53650421  0.99011218  1
  H+  H264  1  0.35242384  0.39453272  0.34049136  1
  H+  H265  1  0.37382152  0.14769352  0.48913818  1
  H+  H266  1  0.63147639  0.76827946  0.32538755  1
  H+  H267  1  0.63067639  0.61030081  0.16754425  1
  H+  H268  1  0.64340259  0.52697010  0.65701833  1
  H+  H269  1  0.85560079  0.23744604  0.19499771  1
  H+  H270  1  0.39535674  0.11940849  0.18116431  1
  H+  H271  1  0.16073887  0.08591989  0.85456549  1
  H+  H272  1  1.06445013  0.09484141  0.17967668  1
  H+  H273  1  0.87389015  0.40346277  0.34033970  1
  H+  H274  1  0.10919643  0.65525184  -0.00057055  1
  H+  H275  1  0.46009275  0.08558662  0.66313437  1
  H+  H276  1  0.14396129  0.78068103  0.50790409  1
  H+  H277  1  0.59943976  0.17110998  0.44047002  1
  H+  H278  1  0.35770666  -0.03319534  0.82963799  1
  H+  H279  1  0.07951825  0.11218068  0.85581298  1
  H+  H280  1  0.41072587  0.58508659  0.89970767  1
  H+  H281  1  0.62836903  0.11810241  0.84362237  1
  H+  H282  1  0.61245232  0.62363140  0.67300730  1
  H+  H283  1  0.11605408  0.21152886  -0.01294522  1
  H+  H284  1  0.37657950  0.61336372  0.32827192  1
  H+  H285  1  0.52049853  0.87552610  0.01444411  1
  H+  H286  1  0.85022606  0.72086210  0.68372981  1
  H+  H287  1  0.13103760  0.77948111  0.00039927  1
  H+  H288  1  0.08564263  0.67350451  0.10111383  1
  H+  H289  1  0.33498070  0.66306709  0.76576873  1
  H+  H290  1  0.57375597  0.17029897  0.06202202  1
  H+  H291  1  0.15534854  0.33103830  0.59851841  1
  H+  H292  1  0.05458871  0.21194730  0.09493019  1
  H+  H293  1  0.73231453  0.62641615  0.99322433  1
  H+  H294  1  0.95514664  0.59364496  0.84282938  1
  H+  H295  1  0.80002102  0.18093054  0.45021783  1
  H+  H296  1  0.43139459  0.08734666  0.23541879  1
  H+  H297  1  0.82035483  0.65972423  0.74201655  1
  H+  H298  1  0.82675436  0.41632629  0.74628529  1
  H+  H299  1  0.33313664  0.90866894  0.76850408  1
  H+  H300  1  0.60215322  0.43264854  0.73890757  1
  H+  H301  1  0.58820790  0.16942767  0.76839015  1
  H+  H302  1  0.62193786  1.02486096  0.84703456  1
  H+  H303  1  0.76710759  0.14539598  0.18904249  1
  H+  H304  1  0.17930096  0.60074202  0.89433696  1
  H+  H305  1  0.36580253  0.26491722  0.17932415  1
  H+  H306  1  0.60598613  0.42787410  0.09187508  1
  H+  H307  1  0.79998969  0.14135530  0.06766476  1
  H+  H308  1  0.57134665  0.40835502  0.39858639  1
  H+  H309  1  0.67253275  0.59531916  0.90258972  1
  H+  H310  1  0.32829312  0.90562148  0.40051490  1
  H+  H311  1  0.27052689  0.89528899  0.00711533  1
  H+  H312  1  0.07349110  0.41917384  0.43286665  1
  H+  H313  1  0.90790807  0.32574960  0.90110042  1
  H+  H314  1  0.38395004  0.30860796  0.92518255  1
  H+  H315  1  0.57911847  0.90352761  0.10372229  1
  H+  H316  1  0.62774595  0.10976359  0.16674374  1
  H+  H317  1  0.65838892  0.57932682  0.22753530  1
  H+  H318  1  0.94050318  0.58874786  0.61600201  1
  H+  H319  1  0.14827102  0.83192010  0.23583766  1
  H+  H320  1  0.16091178  0.09365503  0.53992961  1
  H+  H321  1  0.82547172  0.41340693  0.06802756  1
  H+  H322  1  0.41275464  0.83678445  0.93716176  1
  H+  H323  1  0.41151257  0.59030182  0.26976469  1
  H+  H324  1  0.66190191  0.82967036  0.26673149  1
  H+  H325  1  0.65342071  0.32564493  0.22275326  1
  H+  H326  1  0.41473491  0.34385927  0.59507691  1
  H+  H327  1  0.08144472  0.89788168  0.74341008  1
  H+  H328  1  0.42299606  0.57761154  0.60562986  1
  H+  H329  1  0.93863978  0.83390308  0.90139489  1
  H+  H330  1  0.05162736  0.19064755  0.76100153  1
  H+  H331  1  0.73173880  0.85913394  0.17951431  1
  H+  H332  1  0.91159815  0.08284630  0.57734743  1
  H+  H333  1  0.95313739  0.06427197  0.23414251  1
  H+  H334  1  0.56620088  0.92736038  0.76956174  1
  H+  H335  1  0.15488110  0.58837951  0.26388668  1
  H+  H336  1  0.83834949  0.89915948  0.11125424  1
  H+  H337  1  0.66978512  0.34045677  0.56564127  1
  H+  H338  1  0.19653112  0.06895023  0.93942523  1
  H+  H339  1  0.16523471  0.83503527  0.94008531  1
  H+  H340  1  0.41844137  0.82836906  0.60055687  1
  H+  H341  1  0.85771854  0.18116528  0.33655881  1
  H+  H342  1  0.31581758  0.90575403  0.10435047  1
  H+  H343  1  0.91355791  0.34617490  0.60987178  1
  H+  H344  1  0.66721143  0.33639470  0.92937407  1
  H+  H345  1  0.90052248  0.81798095  0.25849100  1
  H+  H346  1  0.39438174  0.21326650  0.73556206  1
  H+  H347  1  0.40344886  0.62736142  0.51691529  1
  H+  H348  1  0.57923051  0.91648770  0.43678381  1
  H+  H349  1  0.45970347  0.13805917  1.00578331  1
  H+  H350  1  0.91463556  0.36535026  0.24104958  1
  H+  H351  1  0.15290606  0.33786925  0.23949155  1
  H+  H352  1  0.22485463  0.84694452  0.84405337  1
  H+  H353  1  0.22110825  0.36817774  0.50688712  1
  H+  H354  1  0.34114526  0.43434093  0.10800293  1
  H+  H355  1  0.93493018  0.13101434  0.57900280  1
  H+  H356  1  0.83227189  0.64537471  0.38611636  1
  H+  H357  1  0.42642495  0.09478687  0.55599191  1
  H+  H358  1  0.82077277  0.90693215  0.40543780  1
  H+  H359  1  0.13714182  0.62127827  0.16977887  1
  H+  H360  1  0.64422095  0.07376914  0.22924218  1
  H+  H361  1  0.06800679  0.40691712  0.10660501  1
  H+  H362  1  0.07017619  0.67220584  0.76628227  1
  H+  H363  1  0.38854446  0.37029987  0.50661675  1
  H+  H364  1  0.34558753  0.16897266  0.39857045  1
  H+  H365  1  0.89515255  0.06370806  0.94834641  1
  H+  H366  1  0.51888356  0.63129664  0.33696097  1
  H+  H367  1  0.57918848  0.65876880  0.42887340  1
  H+  H368  1  0.88293742  0.57829609  0.24356447  1
  H+  H369  1  -0.00298594  0.12256455  0.68016118  1
  H+  H370  1  0.31696047  0.42365047  0.76432134  1
  H+  H371  1  0.41302727  0.82925992  0.23251915  1
  H+  H372  1  0.33074024  0.14821626  0.10567046  1
  H+  H373  1  0.41645166  0.29404243  0.92233752  1
  H+  H374  1  0.90684480  0.57187663  0.93496750  1
  H+  H375  1  0.33234648  0.42418634  0.43708472  1
  H+  H376  1  0.32539092  0.67170364  0.06369004  1
  H+  H377  1  0.46729781  0.60969909  0.99098303  1
  H+  H378  1  0.93261194  0.71069412  0.53971857  1
  H+  H379  1  0.45613370  0.03900048  0.89835280  1
  H+  H380  1  0.16964173  0.58195247  0.55882074  1
  H+  H381  1  0.08204643  0.43013788  0.77045354  1
  H+  H382  1  0.09281610  0.20596806  0.09873725  1
  H+  H383  1  0.39836619  0.33110957  0.26434622  1
  O2-  O384  1  0.12871721  0.12410875  0.16780556  1
  O2-  O385  1  0.08144906  0.18220251  0.46865502  1
  O2-  O386  1  0.03553049  0.20848042  0.79904013  1
  O2-  O387  1  0.07126650  0.41786630  0.15070321  1
  O2-  O388  1  0.07390951  0.41950388  0.47841162  1
  O2-  O389  1  0.08675622  0.43868871  0.81623286  1
  O2-  O390  1  0.09500431  0.67147912  0.14516936  1
  O2-  O391  1  0.09053446  0.68119828  0.47913925  1
  O2-  O392  1  0.04867058  0.68444333  0.80801104  1
  O2-  O393  1  0.06317246  0.91699259  0.15268309  1
  O2-  O394  1  0.08181862  0.91580934  0.52630081  1
  O2-  O395  1  0.09683012  0.91020310  0.81751230  1
  O2-  O396  1  0.32610885  0.15641009  0.14949821  1
  O2-  O397  1  0.34283352  0.17698393  0.47308329  1
  O2-  O398  1  0.31691333  0.18229240  0.79044859  1
  O2-  O399  1  0.35449727  0.43581278  0.15204285  1
  O2-  O400  1  0.33437350  0.42175116  0.48270294  1
  O2-  O401  1  0.32188245  0.42494300  0.80915050  1
  O2-  O402  1  0.32411192  0.66885237  0.14076288  1
  O2-  O403  1  0.31711459  0.63654205  0.46920397  1
  O2-  O404  1  0.33099990  0.66458136  0.81192219  1
  O2-  O405  1  0.30312010  0.89268359  0.14788206  1
  O2-  O406  1  0.33585505  0.91879659  0.47983415  1
  O2-  O407  1  0.32947195  0.90736553  0.81374891  1
  O2-  O408  1  0.58294588  0.16587462  0.13467392  1
  O2-  O409  1  0.59720631  0.17235253  0.48606481  1
  O2-  O410  1  0.58216332  0.16966958  0.81320737  1
  O2-  O411  1  0.59654783  0.41828195  0.13635334  1
  O2-  O412  1  0.57647027  0.41245302  0.47862090  1
  O2-  O413  1  0.59745116  0.43324334  0.81094223  1
  O2-  O414  1  0.58615931  0.66881668  0.13737528  1
  O2-  O415  1  0.58092814  0.66101428  0.47444073  1
  O2-  O416  1  0.58470920  0.67115199  0.81401436  1
  O2-  O417  1  0.58139557  0.90608588  0.15040821  1
  O2-  O418  1  0.58152240  0.91413160  0.48236819  1
  O2-  O419  1  0.57045180  0.92640865  0.81386578  1
  O2-  O420  1  0.82934716  0.17409395  0.19994990  1
  O2-  O421  1  0.81803891  0.17922372  0.49168528  1
  O2-  O422  1  0.87243828  0.18864891  0.79435909  1
  O2-  O423  1  0.82533404  0.41969881  0.14352887  1
  O2-  O424  1  0.84031454  0.44685763  0.49226962  1
  O2-  O425  1  0.81678497  0.41397406  0.81328329  1
  O2-  O426  1  0.82773053  0.66474205  0.13640322  1
  O2-  O427  1  0.80760124  0.67283544  0.44659609  1
  O2-  O428  1  0.83874927  0.66468716  0.81918359  1
  O2-  O429  1  0.84853637  0.90466303  0.16064414  1
  O2-  O430  1  0.82684439  0.91738510  0.46320852  1
  O2-  O431  1  0.81403506  0.93708553  0.79528317  1
  O2-  O432  1  0.15880474  0.06780254  0.19233490  1
  O2-  O433  1  0.16806808  0.09818562  0.49566681  1
  O2-  O434  1  0.19644021  0.05949199  0.86130710  1
  O2-  O435  1  0.15080772  0.34119925  0.19430962  1
  O2-  O436  1  0.16012434  0.33866526  0.52018077  1
  O2-  O437  1  0.16063033  0.34882566  0.85723407  1
  O2-  O438  1  0.16566377  0.58845870  0.18721968  1
  O2-  O439  1  0.16338383  0.58793211  0.51345641  1
  O2-  O440  1  0.17950267  0.59440997  0.84844230  1
  O2-  O441  1  0.14331915  0.83314387  0.19066017  1
  O2-  O442  1  0.17529625  0.83916953  0.52760840  1
  O2-  O443  1  0.16742976  0.82252496  0.86321996  1
  O2-  O444  1  0.43711954  0.10093393  0.19160928  1
  O2-  O445  1  0.42645697  0.09433535  0.51119899  1
  O2-  O446  1  0.42660053  0.06353099  0.87588308  1
  O2-  O447  1  0.39895534  0.32414106  0.19538858  1
  O2-  O448  1  0.41767149  0.33975697  0.52417220  1
  O2-  O449  1  0.42551107  0.36250594  0.80715639  1
  O2-  O450  1  0.43553281  0.63852637  0.19615120  1
  O2-  O451  1  0.42893829  0.59176480  0.52812629  1
  O2-  O452  1  0.41272526  0.58883638  0.85398404  1
  O2-  O453  1  0.41207073  0.82767237  0.18712169  1
  O2-  O454  1  0.41852618  0.84199033  0.53328793  1
  O2-  O455  1  0.41291941  0.82915950  0.85684775  1
  O2-  O456  1  0.65631606  0.07910812  0.18483109  1
  O2-  O457  1  0.65873267  0.07995516  0.54259228  1
  O2-  O458  1  0.65234258  0.08453894  0.86418132  1
  O2-  O459  1  0.65970844  0.32741196  0.17805729  1
  O2-  O460  1  0.67074193  0.33946646  0.51999751  1
  O2-  O461  1  0.66880806  0.34509499  0.85564404  1
  O2-  O462  1  0.65950595  0.57875885  0.18250883  1
  O2-  O463  1  0.66162219  0.57551516  0.51664022  1
  O2-  O464  1  0.67285139  0.59276928  0.85661000  1
  O2-  O465  1  0.66980756  0.82990201  0.19026191  1
  O2-  O466  1  0.66600098  0.82757722  0.50967837  1
  O2-  O467  1  0.66594559  0.84314613  0.84392190  1
  O2-  O468  1  0.96888281  0.06479048  0.19076904  1
  O2-  O469  1  0.90457150  0.08601752  0.46030843  1
  O2-  O470  1  0.90005401  0.07277016  0.87101736  1
  O2-  O471  1  0.91106062  0.34897362  0.19750050  1
  O2-  O472  1  0.91498172  0.35138382  0.53002866  1
  O2-  O473  1  0.91201861  0.33100744  0.85596152  1
  O2-  O474  1  0.89132248  0.58091680  0.19926814  1
  O2-  O475  1  0.93864451  0.61714621  0.53763939  1
  O2-  O476  1  0.89697167  0.56172670  0.86073727  1
  O2-  O477  1  0.88050828  0.84639832  0.17799857  1
  O2-  O478  1  0.92394206  0.76147744  0.53678076  1
  O2-  O479  1  0.94483585  0.83424828  0.85524345  1
  O2-  O480  1  0.16603514  0.08596977  0.31417097  1
  O2-  O481  1  0.11687883  0.02655241  0.61930272  1
  O2-  O482  1  0.19715054  0.08114080  0.98387917  1
  O2-  O483  1  0.15422680  0.33699078  0.31721857  1
  O2-  O484  1  0.15734859  0.32879303  0.64410780  1
  O2-  O485  1  0.16370827  0.32227253  0.97965314  1
  O2-  O486  1  0.15379364  0.58759312  0.30972013  1
  O2-  O487  1  0.18600143  0.56072724  0.62617078  1
  O2-  O488  1  0.18061129  0.61580705  0.96747254  1
  O2-  O489  1  0.15563382  0.82831284  0.31504004  1
  O2-  O490  1  0.16685173  0.82026204  0.64964976  1
  O2-  O491  1  0.16678972  0.84019388  0.98535979  1
  O2-  O492  1  0.42357991  0.06704243  0.31797318  1
  O2-  O493  1  0.42289276  0.09957324  0.63940394  1
  O2-  O494  1  0.39745787  0.10798054  0.99192295  1
  O2-  O495  1  0.39890363  0.33580972  0.31174147  1
  O2-  O496  1  0.41433138  0.34895294  0.64187593  1
  O2-  O497  1  0.42454111  0.33475633  1.04385838  1
  O2-  O498  1  0.40867322  0.58368688  0.31471111  1
  O2-  O499  1  0.41662956  0.56909360  0.65068510  1
  O2-  O500  1  0.40545651  0.57898291  0.97696552  1
  O2-  O501  1  0.41312824  0.82764837  0.31209469  1
  O2-  O502  1  0.41815298  0.82003231  0.64759481  1
  O2-  O503  1  0.41203493  0.83749667  0.98234744  1
  O2-  O504  1  0.64871089  0.06982782  0.31106073  1
  O2-  O505  1  0.64940697  0.07817352  0.60922139  1
  O2-  O506  1  0.64474235  0.08946554  0.97423844  1
  O2-  O507  1  0.65609014  0.33003638  0.30620564  1
  O2-  O508  1  0.67155725  0.34246144  0.64296903  1
  O2-  O509  1  0.66229111  0.33105742  0.97545775  1
  O2-  O510  1  0.65945009  0.57428441  0.30969742  1
  O2-  O511  1  0.66791938  0.58626512  0.64055808  1
  O2-  O512  1  0.67145377  0.59753699  0.97678009  1
  O2-  O513  1  0.66018790  0.82983410  0.31259144  1
  O2-  O514  1  0.65712437  0.81037618  0.63333774  1
  O2-  O515  1  0.65523136  0.80636563  1.01725531  1
  O2-  O516  1  0.91940258  0.05507787  0.30897320  1
  O2-  O517  1  0.88840489  0.06446890  0.69286309  1
  O2-  O518  1  0.89454776  0.06604069  0.99389902  1
  O2-  O519  1  0.90535763  0.37334128  0.32102480  1
  O2-  O520  1  0.91035022  0.33784885  0.65483648  1
  O2-  O521  1  0.89655092  0.31153719  0.98074217  1
  O2-  O522  1  0.88507420  0.59231978  0.32994125  1
  O2-  O523  1  0.94617561  0.58085329  0.65986485  1
  O2-  O524  1  0.91328038  0.57967378  0.98058022  1
  O2-  O525  1  0.92182576  0.81023891  0.29775009  1
  O2-  O526  1  0.91132538  0.82032804  0.64851680  1
  O2-  O527  1  0.92915933  0.83492688  0.97239093  1
  O2-  O528  1  0.08588221  0.14722494  -0.01426523  1
  O2-  O529  1  0.08042303  0.16801743  0.34853399  1
  O2-  O530  1  0.06130744  0.15769747  0.68281572  1
  O2-  O531  1  0.06096481  0.37594412  0.02343306  1
  O2-  O532  1  0.07351324  0.42542738  0.35458828  1
  O2-  O533  1  0.07465541  0.41354772  0.69610360  1
  O2-  O534  1  0.07453328  0.67649681  0.01948462  1
  O2-  O535  1  0.06598075  0.66767543  0.35603316  1
  O2-  O536  1  0.09742966  0.65725550  0.70694233  1
  O2-  O537  1  0.08771493  0.92067320  0.03296430  1
  O2-  O538  1  0.07669235  0.90879944  0.35495319  1
  O2-  O539  1  0.07381330  0.88877607  0.69785780  1
  O2-  O540  1  0.35940675  0.15537730  0.02146223  1
  O2-  O541  1  0.34311778  0.15896472  0.35312499  1
  O2-  O542  1  0.43452276  0.24167695  0.70089031  1
  O2-  O543  1  0.32426495  0.41680723  0.02663531  1
  O2-  O544  1  0.32252791  0.42298495  0.35919243  1
  O2-  O545  1  0.32221358  0.40565376  0.68034037  1
  O2-  O546  1  0.32816823  0.67387302  0.01796874  1
  O2-  O547  1  0.31983347  0.66170750  0.34721537  1
  O2-  O548  1  0.33889708  0.65745705  0.69239070  1
  O2-  O549  1  0.33241043  0.92704465  0.02019333  1
  O2-  O550  1  0.32624413  0.90199505  0.35520143  1
  O2-  O551  1  0.33484415  0.89255816  0.69043682  1
  O2-  O552  1  0.56758871  0.17005225  0.01580352  1
  O2-  O553  1  0.58998508  0.16659410  0.36211789  1
  O2-  O554  1  0.63648780  0.18447596  0.69455837  1
  O2-  O555  1  0.59786372  0.43083662  0.01267304  1
  O2-  O556  1  0.57019666  0.40660708  0.35305916  1
  O2-  O557  1  0.59895789  0.42841866  0.69246884  1
  O2-  O558  1  0.56819998  0.65844561  0.01305601  1
  O2-  O559  1  0.57982856  0.66179767  0.35089209  1
  O2-  O560  1  0.57826422  0.65024804  0.68999721  1
  O2-  O561  1  0.57817373  0.89949254  0.03261321  1
  O2-  O562  1  0.57318658  0.90886984  0.35891297  1
  O2-  O563  1  0.60087698  0.93094184  0.67487180  1
  O2-  O564  1  0.80182575  0.14111699  0.02330979  1
  O2-  O565  1  0.82235014  0.13192519  0.31090015  1
  O2-  O566  1  0.79012123  0.17899118  0.68647598  1
  O2-  O567  1  0.82478259  0.41172560  0.02211863  1
  O2-  O568  1  0.82804078  0.44508321  0.37028618  1
  O2-  O569  1  0.83561172  0.41791335  0.69871983  1
  O2-  O570  1  0.83111546  0.66996915  0.01823859  1
  O2-  O571  1  0.83371489  0.63447823  0.33995306  1
  O2-  O572  1  0.81153811  0.66117775  0.69737028  1
  O2-  O573  1  0.82032291  0.89859784  0.04958400  1
  O2-  O574  1  0.81989534  0.90159360  0.35344937  1
  O2-  O575  1  0.81820465  0.89296133  0.67715041  1
