# generated using pymatgen
data_H2O
_symmetry_space_group_name_H-M   'P 1'
_cell_length_a   17.98597827
_cell_length_b   17.97571374
_cell_length_c   21.97815639
_cell_angle_alpha   89.97256609
_cell_angle_beta   89.99981705
_cell_angle_gamma   119.97668361
_symmetry_Int_Tables_number   1
_chemical_formula_structural   H2O
_chemical_formula_sum   'H384 O192'
_cell_volume   6155.22626968
_cell_formula_units_Z   192
loop_
 _symmetry_equiv_pos_site_id
 _symmetry_equiv_pos_as_xyz
  1  'x, y, z'
loop_
 _atom_type_symbol
 _atom_type_oxidation_number
  H+  1.0
  O2-  -2.0
loop_
 _atom_site_type_symbol
 _atom_site_label
 _atom_site_symmetry_multiplicity
 _atom_site_fract_x
 _atom_site_fract_y
 _atom_site_fract_z
 _atom_site_occupancy
  H+  H0  1  0.07545931  0.17091872  0.06642378  1
  H+  H1  1  0.69000740  0.81804215  0.83983409  1
  H+  H2  1  0.11354567  0.63025244  0.36155835  1
  H+  H3  1  0.26529114  0.37612763  0.66323013  1
  H+  H4  1  0.63183683  0.61975187  0.83533302  1
  H+  H5  1  0.84128069  0.21275921  0.01128184  1
  H+  H6  1  0.88250332  1.02832128  0.18099542  1
  H+  H7  1  0.96803797  0.58901818  0.32302831  1
  H+  H8  1  0.27865241  0.63576988  0.47829011  1
  H+  H9  1  0.62712421  0.07679636  0.18703070  1
  H+  H10  1  0.28336457  0.13700020  0.66294863  1
  H+  H11  1  0.38300747  0.77129984  0.17106928  1
  H+  H12  1  0.27409131  0.39156604  0.33837531  1
  H+  H13  1  0.86314455  0.61405996  0.16276810  1
  H+  H14  1  0.84433172  0.13912388  0.67943501  1
  H+  H15  1  -0.03022769  0.86342834  0.51067425  1
  H+  H16  1  0.36561180  0.63063615  0.67004864  1
  H+  H17  1  0.12825083  0.47615187  0.49569407  1
  H+  H18  1  0.15855978  0.12393662  0.65660291  1
  H+  H19  1  0.67202451  1.08939354  0.60076770  1
  H+  H20  1  0.06892812  0.87062086  0.76223699  1
  H+  H21  1  0.14291911  0.52904608  0.22960197  1
  H+  H22  1  0.10844176  0.71384061  0.15805766  1
  H+  H23  1  0.79644934  0.86532433  0.72481250  1
  H+  H24  1  0.09586894  0.62577085  -0.04258224  1
  H+  H25  1  0.75762023  0.38089649  0.16121069  1
  H+  H26  1  0.13810283  0.28584005  0.32650074  1
  H+  H27  1  0.27756949  0.63347395  0.17201610  1
  H+  H28  1  0.28710038  0.15743110  0.01489503  1
  H+  H29  1  0.61106550  0.63177645  0.66996231  1
  H+  H30  1  0.36118336  0.88831030  0.00251388  1
  H+  H31  1  0.62639697  0.61632422  0.02526680  1
  H+  H32  1  0.12751093  0.52100835  0.98309094  1
  H+  H33  1  0.39622777  0.90204710  0.34101758  1
  H+  H34  1  0.38630626  0.62375399  0.99763666  1
  H+  H35  1  0.62609583  0.75812440  0.64297180  1
  H+  H36  1  0.63883853  0.27739965  0.97670896  1
  H+  H37  1  0.89530604  0.37047575  0.50629732  1
  H+  H38  1  0.98117291  0.85580290  0.66095442  1
  H+  H39  1  0.37872104  0.51273506  0.50158864  1
  H+  H40  1  0.60947830  0.59137629  0.50491779  1
  H+  H41  1  0.75590330  0.63348467  0.49498396  1
  H+  H42  1  0.39316738  0.77644861  0.49253502  1
  H+  H43  1  0.88089919  0.37457277  0.82913552  1
  H+  H44  1  0.96270569  0.83771280  0.98973635  1
  H+  H45  1  0.62057265  0.23639548  0.33115765  1
  H+  H46  1  0.37265462  0.36387811  0.83145445  1
  H+  H47  1  0.61231458  0.95611660  0.16110081  1
  H+  H48  1  0.14841425  0.13558316  0.99385995  1
  H+  H49  1  0.16935781  0.79921340  0.86178731  1
  H+  H50  1  1.06051792  0.42330420  0.34830263  1
  H+  H51  1  0.26780383  0.39497365  0.00278055  1
  H+  H52  1  0.12504246  0.26691623  0.65399436  1
  H+  H53  1  0.28251375  0.90461345  0.83180705  1
  H+  H54  1  0.32290429  0.92019507  0.73046058  1
  H+  H55  1  0.11585624  0.11159944  0.17456229  1
  H+  H56  1  0.01880510  0.13780178  0.00583488  1
  H+  H57  1  0.91722536  0.82878833  0.60278172  1
  H+  H58  1  1.01380414  0.13929206  0.16495091  1
  H+  H59  1  0.63330194  0.51665083  0.66053628  1
  H+  H60  1  0.87341691  0.60469267  0.83093802  1
  H+  H61  1  0.85302384  0.82898747  0.69658963  1
  H+  H62  1  0.61779075  0.88789875  0.66022321  1
  H+  H63  1  0.36587850  0.73120810  0.01076039  1
  H+  H64  1  0.41668438  0.26570284  0.48390721  1
  H+  H65  1  0.84958617  0.88312729  0.51734831  1
  H+  H66  1  0.72002755  0.36544481  0.82480308  1
  H+  H67  1  0.14391427  0.61266735  0.82339521  1
  H+  H68  1  0.86268421  0.34862503  0.17169315  1
  H+  H69  1  0.05508581  0.72986692  0.80212620  1
  H+  H70  1  0.77421376  0.88966260  0.16807958  1
  H+  H71  1  0.62861646  0.11645905  0.99401983  1
  H+  H72  1  -0.02096158  0.87194431  0.32457020  1
  H+  H73  1  0.84421074  0.63390763  0.49579303  1
  H+  H74  1  0.85516858  0.12985777  0.16418423  1
  H+  H75  1  0.80698339  0.15110895  0.41189615  1
  H+  H76  1  0.23318473  0.61326357  0.82371072  1
  H+  H77  1  0.37437106  0.24216269  1.01663850  1
  H+  H78  1  0.08210367  0.63411105  0.11612711  1
  H+  H79  1  0.72435833  0.11890622  0.66388849  1
  H+  H80  1  0.34636934  0.92292958  0.43883262  1
  H+  H81  1  0.06794536  0.66751056  -0.09467756  1
  H+  H82  1  0.35453308  0.97681140  0.67012383  1
  H+  H83  1  0.77600789  0.66231967  0.34268984  1
  H+  H84  1  0.63369795  0.11375238  0.32939979  1
  H+  H85  1  0.36810073  -0.02198152  0.49842693  1
  H+  H86  1  0.75520526  0.86669651  0.53152459  1
  H+  H87  1  0.22587261  0.12449901  0.83462822  1
  H+  H88  1  0.27962100  0.90667765  1.00146437  1
  H+  H89  1  0.52168649  0.38313220  0.66758541  1
  H+  H90  1  0.11486224  0.73743630  0.50666994  1
  H+  H91  1  0.21868082  0.85299598  0.14689582  1
  H+  H92  1  0.10358202  0.37913760  0.81523393  1
  H+  H93  1  0.51761247  0.14324477  0.15500476  1
  H+  H94  1  0.63997667  0.76606508  0.18133300  1
  H+  H95  1  0.93279086  0.27103727  0.95329230  1
  H+  H96  1  0.36217203  0.88842525  0.15313292  1
  H+  H97  1  0.38606774  0.52139933  0.33808709  1
  H+  H98  1  0.11529028  0.47433670  0.81132090  1
  H+  H99  1  0.64468253  0.52050429  0.19973476  1
  H+  H100  1  0.22899787  0.76999858  0.23283531  1
  H+  H101  1  0.11665924  0.72413289  0.66613114  1
  H+  H102  1  0.42476980  0.09046559  0.88221889  1
  H+  H103  1  0.72115421  0.34438929  0.50511895  1
  H+  H104  1  0.39755677  0.37650401  0.50457741  1
  H+  H105  1  0.37196534  -0.01116052  0.81804701  1
  H+  H106  1  0.93251824  0.84743271  0.22627818  1
  H+  H107  1  0.60155778  0.38955729  0.82102821  1
  H+  H108  1  0.07891068  0.46271890  0.14949579  1
  H+  H109  1  0.36606008  0.63397568  0.17071176  1
  H+  H110  1  0.52572561  0.13759632  -0.00976367  1
  H+  H111  1  0.90606100  0.93952039  0.84106947  1
  H+  H112  1  0.38300224  0.51461052  0.65567179  1
  H+  H113  1  0.16349151  0.57098185  0.92076130  1
  H+  H114  1  0.37274294  0.72442853  0.66719647  1
  H+  H115  1  0.46893751  0.36600987  0.16982510  1
  H+  H116  1  0.14879512  0.61356581  0.65773752  1
  H+  H117  1  0.14759019  0.38139411  0.33014944  1
  H+  H118  1  0.32046235  0.46254092  0.81613842  1
  H+  H119  1  0.62785133  0.28754378  0.17398429  1
  H+  H120  1  0.95158081  0.12439293  0.66726077  1
  H+  H121  1  0.58252369  0.67245026  0.40882897  1
  H+  H122  1  0.42218050  0.08821886  0.26583807  1
  H+  H123  1  0.65085578  0.11073902  0.49537599  1
  H+  H124  1  0.45707069  0.97831853  0.38457603  1
  H+  H125  1  0.78140716  0.89816393  0.33460372  1
  H+  H126  1  0.60257636  0.97746584  0.00734119  1
  H+  H127  1  0.65539040  0.57005904  0.59938654  1
  H+  H128  1  0.75558785  0.12078260  0.35013491  1
  H+  H129  1  0.87536494  0.27711239  0.66256568  1
  H+  H130  1  0.86326197  0.37809341  0.00675013  1
  H+  H131  1  -0.02920299  0.37352837  0.82494741  1
  H+  H132  1  0.73280294  0.58438696  0.96942052  1
  H+  H133  1  0.38780593  0.61017847  0.34849149  1
  H+  H134  1  0.98578808  0.37420096  0.50879659  1
  H+  H135  1  0.52534829  0.13390379  0.67264566  1
  H+  H136  1  0.44037568  0.55791927  0.85143435  1
  H+  H137  1  0.14957032  0.32307306  0.89253638  1
  H+  H138  1  0.06808918  0.65591148  0.54827105  1
  H+  H139  1  0.50650764  0.65979242  0.02146086  1
  H+  H140  1  0.88600890  0.60785767  0.65302476  1
  H+  H141  1  0.50753405  0.39690392  0.99187126  1
  H+  H142  1  0.70251654  0.47426969  0.38784183  1
  H+  H143  1  0.61346444  0.89445000  0.00283432  1
  H+  H144  1  -0.08815255  0.09547740  0.52121333  1
  H+  H145  1  0.37741424  0.37371236  -0.01171577  1
  H+  H146  1  0.47254136  0.85811302  0.16693238  1
  H+  H147  1  0.96420145  0.60499775  0.96912634  1
  H+  H148  1  0.15417726  0.92238308  1.00570598  1
  H+  H149  1  0.13043461  0.85269017  0.15097301  1
  H+  H150  1  0.61337879  0.38818638  0.15975730  1
  H+  H151  1  0.27237044  0.37966095  0.49262444  1
  H+  H152  1  0.12746871  0.38797157  0.66137070  1
  H+  H153  1  0.57520795  0.39695193  1.03855266  1
  H+  H154  1  0.84500484  0.21386698  0.16015201  1
  H+  H155  1  0.55150839  0.67879907  0.82740607  1
  H+  H156  1  0.06641660  0.92783589  0.00463420  1
  H+  H157  1  0.61562044  0.13412945  0.67351395  1
  H+  H158  1  0.72334135  0.36084556  0.65880160  1
  H+  H159  1  0.85913806  0.88785467  0.01271388  1
  H+  H160  1  0.85485679  0.62441775  0.00572460  1
  H+  H161  1  0.86722835  0.98105183  0.01029899  1
  H+  H162  1  0.40333965  0.03674267  0.32925975  1
  H+  H163  1  0.37896883  0.36353400  0.16991769  1
  H+  H164  1  0.35461565  0.13419697  0.33231999  1
  H+  H165  1  0.13866288  0.49119467  0.66430362  1
  H+  H166  1  0.10518167  0.22674551  0.16432704  1
  H+  H167  1  0.88479875  0.11490832  0.33514030  1
  H+  H168  1  0.16231297  0.05483791  0.99434753  1
  H+  H169  1  0.81262181  0.93581278  0.85173190  1
  H+  H170  1  0.37166241  0.64519269  0.82428809  1
  H+  H171  1  0.83059347  0.69993349  0.00347350  1
  H+  H172  1  0.37041125  0.22266611  0.17022557  1
  H+  H173  1  0.85355880  0.24544278  0.33301809  1
  H+  H174  1  0.91164014  0.06461571  0.93291472  1
  H+  H175  1  0.53160150  0.87792331  0.51212626  1
  H+  H176  1  0.11241743  0.13713154  0.82584906  1
  H+  H177  1  0.52157985  0.63051710  0.67010811  1
  H+  H178  1  0.26490875  0.38942576  0.16023069  1
  H+  H179  1  0.24229271  0.36815421  0.82071632  1
  H+  H180  1  0.87561582  0.50197990  0.31987403  1
  H+  H181  1  0.15600413  0.81767562  0.99370592  1
  H+  H182  1  0.79537283  0.09675103  0.51323644  1
  H+  H183  1  0.86735258  0.72065166  0.81538072  1
  H+  H184  1  0.89969921  0.87936789  0.17105208  1
  H+  H185  1  0.71154455  0.10529116  -0.00292350  1
  H+  H186  1  0.88879799  0.78597687  0.32311815  1
  H+  H187  1  0.22269890  0.86262827  0.66029149  1
  H+  H188  1  0.41196743  0.83167256  0.93013328  1
  H+  H189  1  0.36006870  0.23270561  0.81819848  1
  H+  H190  1  0.40209146  1.00811545  -0.02337308  1
  H+  H191  1  0.63573568  0.27042323  0.66186408  1
  H+  H192  1  0.96856430  0.60275035  0.17323052  1
  H+  H193  1  0.87064804  0.89940903  0.32740581  1
  H+  H194  1  0.38893535  0.12804159  0.82799681  1
  H+  H195  1  0.73093179  0.36099617  -0.02304893  1
  H+  H196  1  0.63339523  0.85073405  0.17266748  1
  H+  H197  1  0.61693575  0.17143634  0.13934691  1
  H+  H198  1  0.85089008  0.46450143  0.15777322  1
  H+  H199  1  0.95492644  0.61024673  0.49856770  1
  H+  H200  1  0.65366979  0.99588789  0.84269921  1
  H+  H201  1  0.14211518  0.26712125  0.50236279  1
  H+  H202  1  0.87734734  0.10126346  -0.01120068  1
  H+  H203  1  0.38339928  0.77725672  0.83451975  1
  H+  H204  1  0.74704660  0.37366545  0.33143686  1
  H+  H205  1  0.22571204  0.87003018  0.50326929  1
  H+  H206  1  0.13583300  0.87102599  0.50543775  1
  H+  H207  1  0.18808206  0.59337053  0.56255379  1
  H+  H208  1  0.38710634  0.53401024  0.99460907  1
  H+  H209  1  0.59758184  0.96419481  0.34430501  1
  H+  H210  1  0.12725495  0.76568296  0.36544164  1
  H+  H211  1  0.84701550  0.46761853  0.48692140  1
  H+  H212  1  0.23315314  0.74543886  0.25897729  1
  H+  H213  1  0.77174328  0.62742580  0.66504382  1
  H+  H214  1  0.87980138  0.51525338  0.98953207  1
  H+  H215  1  0.01510164  0.12093823  0.82717173  1
  H+  H216  1  -0.02119806  0.82267224  -0.03669082  1
  H+  H217  1  0.02111271  0.38425706  -0.00410188  1
  H+  H218  1  0.47220951  0.86309129  0.98953001  1
  H+  H219  1  0.65535318  0.54749943  0.34188903  1
  H+  H220  1  0.02664259  0.90077710  0.15479801  1
  H+  H221  1  0.99523178  0.37138996  0.15771416  1
  H+  H222  1  0.61441899  0.62810170  0.16935111  1
  H+  H223  1  0.63925940  0.77860449  0.33411444  1
  H+  H224  1  0.60222007  0.87896641  0.34036838  1
  H+  H225  1  0.21664233  0.10688601  0.50457268  1
  H+  H226  1  0.85754808  0.47203814  0.66665542  1
  H+  H227  1  0.13300918  0.36372908  -0.01275021  1
  H+  H228  1  0.61466396  0.51865666  0.82478780  1
  H+  H229  1  0.37033993  0.22837991  0.66425456  1
  H+  H230  1  0.35495478  0.47644870  0.16471494  1
  H+  H231  1  0.62571594  0.96106093  0.51236037  1
  H+  H232  1  0.21328232  0.85075780  0.34987895  1
  H+  H233  1  0.13304185  0.12993926  0.49699199  1
  H+  H234  1  0.12387283  0.35945988  0.17381125  1
  H+  H235  1  0.04138939  0.09713254  0.67959907  1
  H+  H236  1  0.11632725  0.88418469  0.66855148  1
  H+  H237  1  0.10516841  0.98124329  0.50139654  1
  H+  H238  1  0.72372783  0.09570363  0.17759349  1
  H+  H239  1  0.13552861  0.60637443  0.19827985  1
  H+  H240  1  0.83900486  -0.00419731  0.52845472  1
  H+  H241  1  0.12000286  1.01426611  0.16906979  1
  H+  H242  1  0.49762510  0.40515883  0.51347060  1
  H+  H243  1  0.10139993  0.85942505  0.82770850  1
  H+  H244  1  0.58570437  0.57744471  1.03539710  1
  H+  H245  1  0.10918915  0.88955227  0.36050570  1
  H+  H246  1  0.38557178  0.36038892  0.65583480  1
  H+  H247  1  0.12853854  0.11541361  0.32485026  1
  H+  H248  1  0.48122419  0.85188610  0.65401364  1
  H+  H249  1  0.49503787  0.10931228  0.50288064  1
  H+  H250  1  0.62572760  0.84776361  0.54487590  1
  H+  H251  1  0.87582584  0.83956684  0.79319227  1
  H+  H252  1  0.11555843  0.25845972  0.83420205  1
  H+  H253  1  0.60817928  0.46259806  0.11967367  1
  H+  H254  1  0.73035427  0.87268259  1.00375838  1
  H+  H255  1  0.61588247  0.24984161  0.81888029  1
  H+  H256  1  0.76948601  0.62071413  0.16773557  1
  H+  H257  1  0.53056851  0.14742071  0.33619072  1
  H+  H258  1  0.51883403  0.15286645  0.81741133  1
  H+  H259  1  0.90841450  0.56826213  0.23356124  1
  H+  H260  1  0.52205456  0.64089808  0.35025389  1
  H+  H261  1  0.97594381  0.60833750  0.65117984  1
  H+  H262  1  0.21560407  0.11092661  0.32253577  1
  H+  H263  1  0.11828626  0.97410529  0.67303166  1
  H+  H264  1  0.15252593  0.62142459  0.50622740  1
  H+  H265  1  0.46445949  0.36818273  0.83152304  1
  H+  H266  1  0.41824803  0.12802145  0.50129374  1
  H+  H267  1  0.14016223  0.35780596  0.50412485  1
  H+  H268  1  0.84961874  0.47274849  0.81802034  1
  H+  H269  1  1.02583884  0.14578963  0.34090246  1
  H+  H270  1  0.61613442  0.97580320  0.66562579  1
  H+  H271  1  0.62521943  0.21512143  0.49273545  1
  H+  H272  1  0.50990853  0.62705333  0.49990432  1
  H+  H273  1  0.46880469  0.85547362  0.32163325  1
  H+  H274  1  0.87836653  0.77443901  0.51145357  1
  H+  H275  1  0.85306058  0.23202027  0.82469972  1
  H+  H276  1  0.76634635  0.77670633  0.93969942  1
  H+  H277  1  0.15799103  0.52916083  0.35410658  1
  H+  H278  1  0.10912893  0.97788287  0.34498019  1
  H+  H279  1  0.34745587  0.17019622  0.10895176  1
  H+  H280  1  0.27781021  0.63949742  0.38322773  1
  H+  H281  1  0.38678391  0.86819826  0.83572399  1
  H+  H282  1  0.37349018  0.27352944  0.32209788  1
  H+  H283  1  0.39713783  0.11808589  0.65563680  1
  H+  H284  1  0.85845252  0.38230821  0.66949403  1
  H+  H285  1  0.78177844  0.13143694  0.82960080  1
  H+  H286  1  0.13340639  0.27538238  -0.01003045  1
  H+  H287  1  0.63562840  0.62620388  0.33417153  1
  H+  H288  1  0.17594042  0.10691639  0.89753943  1
  H+  H289  1  0.89464641  0.56806857  0.89198894  1
  H+  H290  1  0.91586258  0.34054961  0.60537733  1
  H+  H291  1  0.52572749  0.73539503  0.06553957  1
  H+  H292  1  0.82386072  0.41398512  0.75674878  1
  H+  H293  1  0.91861770  0.33651559  0.91616702  1
  H+  H294  1  0.59785665  0.16343198  0.42864186  1
  H+  H295  1  0.42001540  0.81805196  0.59587215  1
  H+  H296  1  0.17342571  0.74151272  0.05960017  1
  H+  H297  1  0.64171886  0.49446526  0.96554658  1
  H+  H298  1  0.70066608  0.85701329  0.90721494  1
  H+  H299  1  0.05932530  0.64339886  0.41213720  1
  H+  H300  1  0.82635502  0.40427856  0.06386316  1
  H+  H301  1  0.67068403  0.05674377  0.90063306  1
  H+  H302  1  0.66066743  0.33819016  0.24100062  1
  H+  H303  1  0.96520908  0.85377111  0.82355411  1
  H+  H304  1  0.93958398  0.33245818  0.32616142  1
  H+  H305  1  0.41233149  0.58073871  0.24617722  1
  H+  H306  1  0.66569130  0.83256860  0.27235305  1
  H+  H307  1  0.33071203  0.41205808  0.43153971  1
  H+  H308  1  0.39653190  0.11703181  0.17433776  1
  H+  H309  1  0.41027936  0.83928609  0.26249948  1
  H+  H310  1  0.34143819  0.66774451  0.76098100  1
  H+  H311  1  0.81993365  0.15208951  0.06887991  1
  H+  H312  1  0.43016449  0.08712634  0.59835238  1
  H+  H313  1  0.83277019  0.69011553  0.40188426  1
  H+  H314  1  0.10432907  0.42443506  0.43360698  1
  H+  H315  1  0.66454046  0.07087980  0.27750908  1
  H+  H316  1  0.40879193  0.33784290  0.26662474  1
  H+  H317  1  0.59927207  0.68734608  0.76488162  1
  H+  H318  1  0.09609557  0.42077851  0.72560256  1
  H+  H319  1  0.39036213  0.86296804  0.50394511  1
  H+  H320  1  0.40215727  0.33928999  0.92798898  1
  H+  H321  1  0.39574391  0.02643029  0.17100726  1
  H+  H322  1  0.60005351  0.71022909  0.51522336  1
  H+  H323  1  0.83505416  0.65954991  0.75776468  1
  H+  H324  1  0.67773812  0.59441434  0.24966337  1
  H+  H325  1  0.32491082  0.42379879  0.06392221  1
  H+  H326  1  0.63482013  0.78966380  1.00324586  1
  H+  H327  1  0.06993475  0.40768708  0.05952304  1
  H+  H328  1  0.57233328  0.41339134  0.75895200  1
  H+  H329  1  0.66145250  0.31329367  0.56417808  1
  H+  H330  1  0.07453791  0.92210750  0.44206051  1
  H+  H331  1  0.04378802  0.14209965  0.48408037  1
  H+  H332  1  0.58029310  0.90713923  0.09700298  1
  H+  H333  1  0.88881152  0.31326231  0.23081459  1
  H+  H334  1  0.81840925  0.17453721  0.73697151  1
  H+  H335  1  0.66551963  0.33505600  0.88780119  1
  H+  H336  1  0.31753843  0.40411238  0.72511084  1
  H+  H337  1  0.52399525  0.88075509  0.81995770  1
  H+  H338  1  0.16951880  0.70561000  0.03961742  1
  H+  H339  1  0.33528595  0.17211137  0.75871879  1
  H+  H340  1  0.17927662  0.88419467  0.25550553  1
  H+  H341  1  0.18838722  0.86923899  0.91524524  1
  H+  H342  1  0.15976493  0.32372899  0.59168502  1
  H+  H343  1  0.88048375  0.07201077  0.61772652  1
  H+  H344  1  0.91323307  0.09179577  0.23950120  1
  H+  H345  1  0.57685302  0.66335076  0.11581320  1
  H+  H346  1  0.90268218  0.57645841  0.55970804  1
  H+  H347  1  0.16043705  0.33847423  0.23426678  1
  H+  H348  1  0.36144833  0.38628304  0.33823072  1
  H+  H349  1  0.62741887  0.47216236  0.42745280  1
  H+  H350  1  0.09926989  0.94228701  0.09786427  1
  H+  H351  1  0.58608457  0.17666339  0.75710820  1
  H+  H352  1  0.85024682  0.79386953  0.90811092  1
  H+  H353  1  0.83370767  0.92643664  0.10890026  1
  H+  H354  1  0.34088166  0.92704151  0.09409962  1
  H+  H355  1  0.43222300  0.60647023  0.90852156  1
  H+  H356  1  0.07461274  0.15809013  0.73787340  1
  H+  H357  1  0.08061370  0.66267258  0.72374841  1
  H+  H358  1  0.14749218  0.07850601  0.23658510  1
  H+  H359  1  0.24225500  0.61834802  0.65954442  1
  H+  H360  1  0.34059067  0.67224978  0.07149813  1
  H+  H361  1  0.46295748  0.23928368  0.43601503  1
  H+  H362  1  0.57137733  0.18140209  0.05399287  1
  H+  H363  1  0.83370114  0.36829815  0.33809089  1
  H+  H364  1  0.09371097  0.17436326  0.39670178  1
  H+  H365  1  0.42330249  0.34059508  0.59577662  1
  H+  H366  1  0.86386277  0.71497829  0.66551464  1
  H+  H367  1  0.48012648  0.02952941  0.93294678  1
  H+  H368  1  0.00055417  0.63274181  0.82052852  1
  H+  H369  1  0.58382255  0.90730079  0.76179326  1
  H+  H370  1  0.81697242  0.40588283  0.42896847  1
  H+  H371  1  0.82221505  0.64429697  0.09949186  1
  H+  H372  1  0.16537910  0.83316517  0.59890340  1
  H+  H373  1  0.13600591  0.88077779  0.25743321  1
  H+  H374  1  0.20037592  0.61275153  0.30554830  1
  H+  H375  1  0.41218501  0.57535053  0.59706828  1
  H+  H376  1  0.47449184  0.60601417  0.18858630  1
  H+  H377  1  0.61057586  0.38119319  0.67013017  1
  H+  H378  1  0.33531871  0.17225130  0.39089420  1
  H+  H379  1  0.67016164  0.56555285  0.89466781  1
  H+  H380  1  0.62910758  0.35387280  0.32199842  1
  H+  H381  1  0.38140187  0.60379285  0.49734171  1
  H+  H382  1  0.17089914  0.08797888  0.59284339  1
  H+  H383  1  0.88951551  0.02847520  0.32677361  1
  O2-  O384  1  0.07415346  0.16618567  0.14876772  1
  O2-  O385  1  0.10420950  0.17235589  0.47301573  1
  O2-  O386  1  0.07422847  0.16012096  0.80906218  1
  O2-  O387  1  0.05543633  0.40188709  0.14052682  1
  O2-  O388  1  0.09710156  0.41679197  0.47998627  1
  O2-  O389  1  0.08149516  0.41438799  0.79485668  1
  O2-  O390  1  0.07850847  0.64788379  0.15859126  1
  O2-  O391  1  0.08236600  0.67170332  0.50557403  1
  O2-  O392  1  0.06069763  0.67826180  0.80843656  1
  O2-  O393  1  0.09118807  0.93636755  0.14352889  1
  O2-  O394  1  0.07614664  0.91941674  0.48760715  1
  O2-  O395  1  0.04932155  0.83845405  0.80133833  1
  O2-  O396  1  0.34933409  0.16405749  0.15423381  1
  O2-  O397  1  0.41035731  0.21472865  0.46004946  1
  O2-  O398  1  0.33359134  0.17176969  0.80432195  1
  O2-  O399  1  0.32469469  0.41947947  0.14398344  1
  O2-  O400  1  0.33295578  0.41271166  0.47744698  1
  O2-  O401  1  0.30372368  0.40384340  0.80477456  1
  O2-  O402  1  0.33544128  0.66310444  0.15364287  1
  O2-  O403  1  0.34053526  0.66398150  0.46410124  1
  O2-  O404  1  0.33653890  0.66829957  0.80679997  1
  O2-  O405  1  0.33457834  0.92203305  0.13954163  1
  O2-  O406  1  0.33449967  0.91754409  0.48350887  1
  O2-  O407  1  0.33907426  0.92598366  0.81046641  1
  O2-  O408  1  0.57317764  0.18717137  0.13297086  1
  O2-  O409  1  0.59767596  0.15454780  0.47359526  1
  O2-  O410  1  0.58238028  0.18437719  0.80390741  1
  O2-  O411  1  0.57453232  0.40875937  0.14136837  1
  O2-  O412  1  0.59798227  0.47537758  0.49409921  1
  O2-  O413  1  0.56914283  0.41700458  0.80488338  1
  O2-  O414  1  0.58107759  0.65720103  0.16039734  1
  O2-  O415  1  0.57286440  0.65855804  0.48904713  1
  O2-  O416  1  0.60817755  0.69485111  0.80986962  1
  O2-  O417  1  0.57886938  0.89830328  0.14229166  1
  O2-  O418  1  0.59411483  0.89779704  0.51330410  1
  O2-  O419  1  0.58360226  0.90122109  0.80663273  1
  O2-  O420  1  0.81816745  0.15259199  0.14639392  1
  O2-  O421  1  0.76806768  0.12764997  0.49280741  1
  O2-  O422  1  0.83349707  0.17514278  0.80685838  1
  O2-  O423  1  0.81763581  0.40409231  0.14325283  1
  O2-  O424  1  0.82319864  0.40696263  0.47432373  1
  O2-  O425  1  0.82017193  0.41158956  0.80308489  1
  O2-  O426  1  0.82699033  0.64325371  0.14578429  1
  O2-  O427  1  0.81758602  0.66924698  0.48476413  1
  O2-  O428  1  0.83737104  0.66037471  0.80323649  1
  O2-  O429  1  0.83487750  0.92724344  0.15417038  1
  O2-  O430  1  0.81023647  0.90639074  0.51100612  1
  O2-  O431  1  0.87612925  0.97466450  0.83368471  1
  O2-  O432  1  0.14450232  0.07838554  0.18992073  1
  O2-  O433  1  0.15941753  0.08664703  0.52111032  1
  O2-  O434  1  0.16783596  0.10068217  0.85254338  1
  O2-  O435  1  0.15748512  0.33315507  0.18828250  1
  O2-  O436  1  0.16958433  0.32707037  0.52127920  1
  O2-  O437  1  0.14633466  0.32126160  0.84693702  1
  O2-  O438  1  0.17566478  0.58714072  0.21350388  1
  O2-  O439  1  0.18614391  0.59346885  0.51711264  1
  O2-  O440  1  0.17018591  0.57839386  0.83477712  1
  O2-  O441  1  0.15519241  0.81481198  0.14777890  1
  O2-  O442  1  0.16578694  0.83959942  0.51958510  1
  O2-  O443  1  0.18621954  0.85956483  0.86670098  1
  O2-  O444  1  0.42955307  0.08614903  0.18753327  1
  O2-  O445  1  0.43506488  0.08752713  0.51847960  1
  O2-  O446  1  0.42512814  0.10059058  0.83749947  1
  O2-  O447  1  0.41053686  0.33641154  0.18769967  1
  O2-  O448  1  0.43669506  0.35648093  0.52097802  1
  O2-  O449  1  0.40428249  0.33607202  0.84755477  1
  O2-  O450  1  0.41301085  0.57906724  0.20060804  1
  O2-  O451  1  0.40771742  0.57329842  0.51817187  1
  O2-  O452  1  0.43960633  0.61004310  0.86227828  1
  O2-  O453  1  0.41211968  0.83388380  0.18099430  1
  O2-  O454  1  0.42094166  0.83138703  0.51496029  1
  O2-  O455  1  0.41415059  0.83579976  0.85242819  1
  O2-  O456  1  0.66605772  0.05603376  0.19756237  1
  O2-  O457  1  0.67928641  0.07925062  0.51538108  1
  O2-  O458  1  0.69692526  0.04965509  0.86363127  1
  O2-  O459  1  0.66331344  0.34598441  0.19102730  1
  O2-  O460  1  0.66131722  0.30547779  0.51948104  1
  O2-  O461  1  0.65907744  0.33556463  0.84118867  1
  O2-  O462  1  0.67845060  0.58328696  0.20308406  1
  O2-  O463  1  0.64312228  0.56354193  0.51951697  1
  O2-  O464  1  0.64950376  0.57620595  0.84547846  1
  O2-  O465  1  0.66883643  0.82831208  0.19163971  1
  O2-  O466  1  0.65068364  0.80865243  0.56052955  1
  O2-  O467  1  0.73126426  0.86121252  0.86839291  1
  O2-  O468  1  0.91196838  0.09057706  0.19338290  1
  O2-  O469  1  0.85671791  0.05920046  0.54062930  1
  O2-  O470  1  0.92499166  0.05895009  0.86405695  1
  O2-  O471  1  0.89387583  0.31797181  0.18553195  1
  O2-  O472  1  0.92839942  0.34815274  0.52785593  1
  O2-  O473  1  0.91508041  0.34871987  0.84644625  1
  O2-  O474  1  0.90686625  0.57360959  0.18577442  1
  O2-  O475  1  0.89594207  0.57747889  0.51422909  1
  O2-  O476  1  0.90081349  0.57035437  0.84673624  1
  O2-  O477  1  0.93491051  0.85253130  0.18074762  1
  O2-  O478  1  0.91057604  0.83377097  0.52852215  1
  O2-  O479  1  0.90897991  0.85065583  0.83294311  1
  O2-  O480  1  0.15452721  0.08089226  0.30826840  1
  O2-  O481  1  0.17880265  0.08684285  0.63914557  1
  O2-  O482  1  0.18556772  0.11414172  0.97727240  1
  O2-  O483  1  0.16995936  0.34516676  0.30946961  1
  O2-  O484  1  0.15791800  0.32651336  0.63857047  1
  O2-  O485  1  0.16344802  0.33407149  0.97112536  1
  O2-  O486  1  0.18763751  0.60004873  0.34894831  1
  O2-  O487  1  0.18070059  0.58468487  0.64284369  1
  O2-  O488  1  0.15084273  0.57776003  0.96334761  1
  O2-  O489  1  0.15907105  0.82909706  0.37133238  1
  O2-  O490  1  0.16111879  0.82650395  0.64404868  1
  O2-  O491  1  0.19065553  0.87699306  0.97990815  1
  O2-  O492  1  0.42021508  0.09405617  0.31110390  1
  O2-  O493  1  0.42742233  0.08625570  0.64372347  1
  O2-  O494  1  0.44793455  0.05574724  0.94894806  1
  O2-  O495  1  0.40486240  0.33533392  0.31185848  1
  O2-  O496  1  0.41882704  0.33306089  0.64138284  1
  O2-  O497  1  0.40844868  0.34436059  0.97299175  1
  O2-  O498  1  0.41632214  0.58409081  0.32553046  1
  O2-  O499  1  0.41507053  0.57591121  0.64259116  1
  O2-  O500  1  0.41990808  0.59541567  0.98111810  1
  O2-  O501  1  0.40834842  0.83646410  0.30757965  1
  O2-  O502  1  0.42086308  0.81349179  0.64073927  1
  O2-  O503  1  0.41119800  0.83283561  0.97584544  1
  O2-  O504  1  0.66036559  0.07664538  0.32198574  1
  O2-  O505  1  0.66379056  0.08479440  0.64534160  1
  O2-  O506  1  0.65120427  0.07756720  0.98247297  1
  O2-  O507  1  0.65989526  0.32751338  0.30374026  1
  O2-  O508  1  0.66157961  0.32986611  0.64528668  1
  O2-  O509  1  0.67365335  0.33515981  0.95787847  1
  O2-  O510  1  0.67009705  0.60085170  0.31733718  1
  O2-  O511  1  0.66256585  0.57698764  0.64442489  1
  O2-  O512  1  0.69127500  0.54142186  0.94044801  1
  O2-  O513  1  0.66803070  0.83814154  0.31742330  1
  O2-  O514  1  0.65626339  0.81905871  0.62704546  1
  O2-  O515  1  0.67321480  0.84560283  0.98283814  1
  O2-  O516  1  0.91934327  0.09283987  0.31520595  1
  O2-  O517  1  0.89094719  0.08144279  0.66236049  1
  O2-  O518  1  0.91181158  0.07367150  0.97944883  1
  O2-  O519  1  0.88122823  0.30261326  0.31046631  1
  O2-  O520  1  0.90830669  0.33883820  0.65055725  1
  O2-  O521  1  0.92232962  0.31871709  0.96021185  1
  O2-  O522  1  0.91413963  0.55847612  0.29957151  1
  O2-  O523  1  0.91621874  0.57820294  0.63537164  1
  O2-  O524  1  0.89912617  0.57306115  0.97185741  1
  O2-  O525  1  0.92266991  0.84450686  0.30328110  1
  O2-  O526  1  0.91984821  0.82086036  0.64803211  1
  O2-  O527  1  0.81984630  0.77697070  0.94764507  1
  O2-  O528  1  0.07867084  0.17395612  0.02121723  1
  O2-  O529  1  0.08852287  0.17569879  0.35094199  1
  O2-  O530  1  0.07606448  0.15746827  0.69092541  1
  O2-  O531  1  0.07916970  0.41370671  0.01483488  1
  O2-  O532  1  0.11834474  0.44218201  0.36239638  1
  O2-  O533  1  0.10656150  0.42770260  0.67908377  1
  O2-  O534  1  0.06464670  0.65882895  -0.05060626  1
  O2-  O535  1  0.07120664  0.65073080  0.36843589  1
  O2-  O536  1  0.08735483  0.66161396  0.67909146  1
  O2-  O537  1  0.12238521  0.95561906  0.02452643  1
  O2-  O538  1  0.07630597  0.92057733  0.36470815  1
  O2-  O539  1  0.08617159  0.91339776  0.68669596  1
  O2-  O540  1  0.34543996  0.18313413  0.03287618  1
  O2-  O541  1  0.32015579  0.16036206  0.34742413  1
  O2-  O542  1  0.34279922  0.16823494  0.68050194  1
  O2-  O543  1  0.32791507  0.42756825  0.01846538  1
  O2-  O544  1  0.33331534  0.41900632  0.35591269  1
  O2-  O545  1  0.32469960  0.40674962  0.68016025  1
  O2-  O546  1  0.34525228  0.67223397  0.02663376  1
  O2-  O547  1  0.33986509  0.66134521  0.39730676  1
  O2-  O548  1  0.33716657  0.66273591  0.68526150  1
  O2-  O549  1  0.34293658  0.92986219  0.01609169  1
  O2-  O550  1  0.39857580  0.95105472  0.36868922  1
  O2-  O551  1  0.31458118  0.91855457  0.68574983  1
  O2-  O552  1  0.58200546  0.17761122  0.00990924  1
  O2-  O553  1  0.59157452  0.17451126  0.34933613  1
  O2-  O554  1  0.58564454  0.16518657  0.68975099  1
  O2-  O555  1  0.56903247  0.43073199  0.00643559  1
  O2-  O556  1  0.64559277  0.46759784  0.38367694  1
  O2-  O557  1  0.58108374  0.41287869  0.68522348  1
  O2-  O558  1  0.55348814  0.70586133  0.04755507  1
  O2-  O559  1  0.58347229  0.67353199  0.36348503  1
  O2-  O560  1  0.58274816  0.66490766  0.68348262  1
  O2-  O561  1  0.57631659  0.91560610  0.02051689  1
  O2-  O562  1  0.56403222  0.90184899  0.35237106  1
  O2-  O563  1  0.58699633  0.91461917  0.67916392  1
  O2-  O564  1  0.81833878  0.15259490  0.02312173  1
  O2-  O565  1  0.81588689  0.15410655  0.36735240  1
  O2-  O566  1  0.81550086  0.17285940  0.69037418  1
  O2-  O567  1  0.83365835  0.40908294  0.01856953  1
  O2-  O568  1  0.80915880  0.40418244  0.35075191  1
  O2-  O569  1  0.82557104  0.41318291  0.68400346  1
  O2-  O570  1  0.81771057  0.64602347  0.02447451  1
  O2-  O571  1  0.83637795  0.69346360  0.35703497  1
  O2-  O572  1  0.83232758  0.65371106  0.67973640  1
  O2-  O573  1  0.83477363  0.92150602  0.02959306  1
  O2-  O574  1  0.84379998  0.93244251  0.34326985  1
  O2-  O575  1  0.81805583  0.82636106  0.73299783  1
