# generated using pymatgen
data_H2O
_symmetry_space_group_name_H-M   'P 1'
_cell_length_a   17.98771211
_cell_length_b   17.97983955
_cell_length_c   22.01215937
_cell_angle_alpha   89.97667300
_cell_angle_beta   90.01174859
_cell_angle_gamma   119.99749328
_symmetry_Int_Tables_number   1
_chemical_formula_structural   H2O
_chemical_formula_sum   'H384 O192'
_cell_volume   6165.46666239
_cell_formula_units_Z   192
loop_
 _symmetry_equiv_pos_site_id
 _symmetry_equiv_pos_as_xyz
  1  'x, y, z'
loop_
 _atom_type_symbol
 _atom_type_oxidation_number
  H+  1.0
  O2-  -2.0
loop_
 _atom_site_type_symbol
 _atom_site_label
 _atom_site_symmetry_multiplicity
 _atom_site_fract_x
 _atom_site_fract_y
 _atom_site_fract_z
 _atom_site_occupancy
  H+  H0  1  0.89723612  0.86277663  0.41573660  1
  H+  H1  1  0.58696354  0.13699825  0.50927371  1
  H+  H2  1  0.35845375  0.97852586  0.34590165  1
  H+  H3  1  0.15120317  0.09905367  -0.00147924  1
  H+  H4  1  0.26409573  0.13000747  0.49706127  1
  H+  H5  1  0.38187620  0.14054555  0.00064992  1
  H+  H6  1  0.37266527  0.23281293  0.34606475  1
  H+  H7  1  0.16934341  0.60627594  0.92780382  1
  H+  H8  1  0.88526397  0.53005206  0.82638970  1
  H+  H9  1  0.85670324  0.72709155  0.00106806  1
  H+  H10  1  0.11067853  0.19796627  0.01226992  1
  H+  H11  1  0.17051606  0.61422802  0.30570027  1
  H+  H12  1  0.37317998  0.88868105  0.68027721  1
  H+  H13  1  0.89903095  0.15092040  0.14570574  1
  H+  H14  1  0.88879545  0.27887074  0.83657593  1
  H+  H15  1  0.03549759  0.40105550  0.66667034  1
  H+  H16  1  0.75616692  0.16377754  0.65984933  1
  H+  H17  1  0.85196274  0.26349607  0.57995176  1
  H+  H18  1  0.39273722  0.36217092  0.99054599  1
  H+  H19  1  0.63993554  0.53178070  0.17467966  1
  H+  H20  1  0.33451330  -0.08843872  0.77378933  1
  H+  H21  1  0.98761633  0.86989729  0.64612301  1
  H+  H22  1  0.11834881  0.77075658  0.33246132  1
  H+  H23  1  0.14617642  0.37217110  0.82682821  1
  H+  H24  1  0.39044805  0.11738235  0.33788904  1
  H+  H25  1  0.35955162  0.47121988  -0.00411891  1
  H+  H26  1  0.37808782  0.64719702  0.50636816  1
  H+  H27  1  0.62478562  0.88930214  0.00395954  1
  H+  H28  1  0.61269017  0.72532473  0.49831641  1
  H+  H29  1  0.84448169  -0.01603928  0.67624318  1
  H+  H30  1  0.33059733  0.41170278  0.39050637  1
  H+  H31  1  0.13090633  0.63997057  0.51012653  1
  H+  H32  1  0.52217445  0.66021867  0.81205107  1
  H+  H33  1  0.89200990  0.39579955  0.00423991  1
  H+  H34  1  0.40438728  0.71906735  0.20662231  1
  H+  H35  1  0.03011394  0.38959701  0.82342690  1
  H+  H36  1  0.12249583  0.47750999  0.49906408  1
  H+  H37  1  0.60897990  0.38693128  0.49611993  1
  H+  H38  1  0.23601146  0.62398985  0.66483880  1
  H+  H39  1  0.62313062  0.72986798  0.34048134  1
  H+  H40  1  0.00592999  0.64163053  0.39709966  1
  H+  H41  1  0.62522874  0.42359387  0.81271049  1
  H+  H42  1  0.09757917  0.42152764  0.15408569  1
  H+  H43  1  0.13793822  0.36318872  0.66086094  1
  H+  H44  1  1.02770706  0.13004012  0.50211663  1
  H+  H45  1  0.80648270  0.13674004  0.13865737  1
  H+  H46  1  0.39873176  0.02718441  0.18263814  1
  H+  H47  1  0.39623066  0.53293194  0.50428392  1
  H+  H48  1  0.43702653  0.22135986  0.70386686  1
  H+  H49  1  0.63102318  0.37181016  0.34409199  1
  H+  H50  1  0.61870811  0.19511281  0.82417099  1
  H+  H51  1  0.39268924  0.02130969  0.84069666  1
  H+  H52  1  0.61595217  0.67121509  0.80979254  1
  H+  H53  1  0.97644365  0.09597460  0.97232038  1
  H+  H54  1  0.86004623  0.65303364  0.33074242  1
  H+  H55  1  0.87147420  0.52429818  -0.02025149  1
  H+  H56  1  0.37216394  0.89837269  -0.02551322  1
  H+  H57  1  0.13536002  0.36340274  0.50788127  1
  H+  H58  1  0.39758747  0.51918013  0.32183446  1
  H+  H59  1  0.64584390  0.01064810  0.50737189  1
  H+  H60  1  0.13270655  0.27140756  0.66325079  1
  H+  H61  1  0.88499607  0.79871592  0.32723121  1
  H+  H62  1  0.64372207  0.61467015  0.51131091  1
  H+  H63  1  0.26888672  0.88807417  0.34584890  1
  H+  H64  1  0.90094565  -0.00697953  0.36141445  1
  H+  H65  1  0.23717536  0.12392954  0.32977778  1
  H+  H66  1  0.36380917  0.97181072  0.67666189  1
  H+  H67  1  0.38177764  0.28119897  0.66047668  1
  H+  H68  1  0.72168723  0.10554817  0.33658048  1
  H+  H69  1  0.50518283  0.88871118  0.36830993  1
  H+  H70  1  0.11359387  0.96216386  0.00509653  1
  H+  H71  1  0.39174923  0.36764403  0.32578523  1
  H+  H72  1  0.06079227  0.61821986  0.34912941  1
  H+  H73  1  0.49492662  0.11940779  -0.01267678  1
  H+  H74  1  0.60426547  0.63859846  0.98439486  1
  H+  H75  1  0.13675143  0.36591320  0.33359430  1
  H+  H76  1  0.33696879  0.41991500  0.72983288  1
  H+  H77  1  0.59135675  0.67098647  0.43582311  1
  H+  H78  1  0.13353694  0.13004597  0.17609848  1
  H+  H79  1  0.40930134  0.61311236  0.32125990  1
  H+  H80  1  0.33837267  0.58048803  0.14717151  1
  H+  H81  1  0.53749180  0.63757856  0.33916979  1
  H+  H82  1  0.38146684  0.10313249  0.66325360  1
  H+  H83  1  0.27139868  0.38685765  0.67281334  1
  H+  H84  1  0.53010794  0.39564060  0.16505610  1
  H+  H85  1  0.15389917  0.11727043  0.84304694  1
  H+  H86  1  1.01858778  0.87957391  1.00550698  1
  H+  H87  1  0.85116457  0.37704863  0.34117064  1
  H+  H88  1  0.62098104  0.26394413  0.66130689  1
  H+  H89  1  0.74491437  0.89066898  0.67764427  1
  H+  H90  1  0.39036391  0.95734450  0.16616975  1
  H+  H91  1  0.39804397  0.53270139  0.82434510  1
  H+  H92  1  0.89910585  0.78913105  0.63528602  1
  H+  H93  1  0.89115609  0.36915727  0.83445537  1
  H+  H94  1  0.12237437  0.86646163  0.17876826  1
  H+  H95  1  0.83471057  0.14535894  0.40395962  1
  H+  H96  1  0.13182932  0.10412000  0.50707632  1
  H+  H97  1  0.81895214  0.32282048  0.68566065  1
  H+  H98  1  0.51294955  0.15651920  0.17524282  1
  H+  H99  1  0.63390546  0.08220135  0.83510979  1
  H+  H100  1  0.37198477  0.61040359  0.97627424  1
  H+  H101  1  0.52552535  0.37709877  0.01239135  1
  H+  H102  1  0.63835270  0.52362559  0.65599962  1
  H+  H103  1  0.62344719  0.77309702  0.98614412  1
  H+  H104  1  0.84578778  0.63001154  0.99496095  1
  H+  H105  1  0.77758532  0.39335903  0.82797690  1
  H+  H106  1  0.60063314  0.38005135  0.66936746  1
  H+  H107  1  0.62322066  0.48226105  0.34309290  1
  H+  H108  1  0.84469452  0.37770478  0.16353298  1
  H+  H109  1  0.11708740  -0.02351793  0.83130463  1
  H+  H110  1  0.03206366  0.64734640  0.66709047  1
  H+  H111  1  0.14750187  0.12293628  0.32891021  1
  H+  H112  1  0.37956618  0.36987004  0.65754363  1
  H+  H113  1  0.51838106  0.38393795  0.49393531  1
  H+  H114  1  0.87711684  0.13884005  -0.01192692  1
  H+  H115  1  0.72283782  0.63574317  0.82151746  1
  H+  H116  1  0.08026534  0.16155053  0.73603091  1
  H+  H117  1  1.02808751  0.37333288  0.99320838  1
  H+  H118  1  0.37077644  0.88589368  0.83059286  1
  H+  H119  1  0.23383576  0.86398924  0.66562800  1
  H+  H120  1  0.14804555  0.77980717  0.51675026  1
  H+  H121  1  0.90173959  0.79991827  0.22181200  1
  H+  H122  1  0.62766360  0.27122246  0.34433332  1
  H+  H123  1  0.53115377  0.88939018  0.49995885  1
  H+  H124  1  0.73113911  0.61871848  0.32643987  1
  H+  H125  1  0.71749422  0.85400733  0.52741424  1
  H+  H126  1  0.22033912  0.11309733  0.65926792  1
  H+  H127  1  0.63089269  0.65071650  0.16781547  1
  H+  H128  1  0.65420835  0.88388460  0.17332006  1
  H+  H129  1  0.59945229  0.84719072  0.66852910  1
  H+  H130  1  0.39809070  0.27865978  0.83866510  1
  H+  H131  1  0.87724117  0.11406305  0.82540808  1
  H+  H132  1  0.84965618  0.31331761  0.52072661  1
  H+  H133  1  0.94904341  0.60735159  0.31611892  1
  H+  H134  1  0.85064917  0.86772327  0.51431646  1
  H+  H135  1  0.28615123  0.39663022  0.82181911  1
  H+  H136  1  0.33912415  0.17295022  0.08950602  1
  H+  H137  1  0.34441964  0.68067533  0.29309095  1
  H+  H138  1  0.38367715  0.52676950  0.65958571  1
  H+  H139  1  0.84198413  0.97015999  0.82042324  1
  H+  H140  1  0.90592159  0.70483547  0.47745793  1
  H+  H141  1  0.37590716  0.34671366  0.50185154  1
  H+  H142  1  0.27301686  0.39002492  0.33211539  1
  H+  H143  1  0.77386658  0.13476005  0.82320265  1
  H+  H144  1  0.40304254  0.77593624  0.83195217  1
  H+  H145  1  0.13449236  0.24192595  0.82150741  1
  H+  H146  1  1.00902880  0.64594303  0.81966436  1
  H+  H147  1  0.38812174  0.77548445  0.98825587  1
  H+  H148  1  0.64091608  0.61300846  0.32836739  1
  H+  H149  1  0.39976059  0.27658443  0.17513615  1
  H+  H150  1  0.36452108  0.97857307  0.49967882  1
  H+  H151  1  0.84328822  0.69464019  0.39006184  1
  H+  H152  1  0.72015193  0.36855337  0.16483593  1
  H+  H153  1  0.48849958  0.61941739  0.50302416  1
  H+  H154  1  0.72413021  0.36332773  0.34128322  1
  H+  H155  1  0.63834048  0.52494057  0.50992529  1
  H+  H156  1  0.87950373  0.52284093  0.16301534  1
  H+  H157  1  0.06445731  0.16350489  0.85637220  1
  H+  H158  1  0.36813672  0.63852142  0.66736250  1
  H+  H159  1  0.90195343  0.03245271  0.15702559  1
  H+  H160  1  0.00789739  0.37321412  0.34737256  1
  H+  H161  1  -0.00391508  0.84723317  0.20153449  1
  H+  H162  1  0.10870046  0.66903794  0.13528928  1
  H+  H163  1  0.45358173  0.85853621  0.60901624  1
  H+  H164  1  0.39596331  0.78525340  0.36154559  1
  H+  H165  1  0.37232614  0.10333415  0.17996882  1
  H+  H166  1  0.86268751  0.73165938  0.81411197  1
  H+  H167  1  0.16618091  0.33200836  0.56757615  1
  H+  H168  1  0.52271276  0.11605060  0.82514450  1
  H+  H169  1  0.16852109  0.26188244  0.17472539  1
  H+  H170  1  0.71293827  0.62322637  -0.02416683  1
  H+  H171  1  0.63380641  0.86017010  0.32998432  1
  H+  H172  1  0.05067853  0.14320828  0.16661944  1
  H+  H173  1  0.54432662  0.91293809  0.14225279  1
  H+  H174  1  0.48584619  0.61809198  0.16684140  1
  H+  H175  1  0.42049160  0.90988958  0.15060454  1
  H+  H176  1  0.96486497  0.61723534  0.16180789  1
  H+  H177  1  0.20668128  0.86231449  0.17432107  1
  H+  H178  1  0.11714306  0.88261821  0.49476063  1
  H+  H179  1  0.89713408  0.60980283  0.64762839  1
  H+  H180  1  0.85164585  0.46819463  0.33546781  1
  H+  H181  1  0.88668228  0.27220167  0.17126049  1
  H+  H182  1  0.11053993  -0.02551324  0.16325108  1
  H+  H183  1  0.87137750  0.25307666  0.33644830  1
  H+  H184  1  0.63011127  0.55253446  0.81923237  1
  H+  H185  1  0.33894206  0.67584353  0.75991985  1
  H+  H186  1  0.68038356  0.11073038  0.49530587  1
  H+  H187  1  0.63006113  0.27601423  0.50975062  1
  H+  H188  1  0.63192229  0.37871976  0.16820672  1
  H+  H189  1  0.68094294  0.58563593  0.59891071  1
  H+  H190  1  0.52523313  0.89355495  0.72225736  1
  H+  H191  1  0.13608376  0.02073308  0.66469075  1
  H+  H192  1  0.14659221  0.53120893  0.83999605  1
  H+  H193  1  0.46826452  0.10164033  0.65893327  1
  H+  H194  1  0.26522854  0.65018486  0.99348156  1
  H+  H195  1  0.38509744  0.38764064  0.16102125  1
  H+  H196  1  0.74962366  0.88462146  0.82312029  1
  H+  H197  1  0.51423230  0.38760355  0.66526824  1
  H+  H198  1  0.48317448  0.37241231  0.83379012  1
  H+  H199  1  0.72239659  0.36150919  0.51045268  1
  H+  H200  1  0.63926271  -0.00711363  0.99829650  1
  H+  H201  1  0.88146380  0.86243604  0.83439593  1
  H+  H202  1  0.85410171  0.62904113  0.14362150  1
  H+  H203  1  0.54543719  0.86446422  0.83717966  1
  H+  H204  1  0.41381474  0.81786257  0.16184067  1
  H+  H205  1  0.60980111  0.36988591  0.02419206  1
  H+  H206  1  0.52188852  0.13876150  0.34542757  1
  H+  H207  1  0.87895300  0.61750200  0.82785351  1
  H+  H208  1  0.28398988  0.13660139  0.83156759  1
  H+  H209  1  0.11218408  0.32172360  0.97611996  1
  H+  H210  1  0.35549286  0.22018695  0.49998888  1
  H+  H211  1  0.88076479  0.85695635  0.98859906  1
  H+  H212  1  0.74344310  0.10902966  0.98496136  1
  H+  H213  1  0.10949355  0.73636443  0.82636154  1
  H+  H214  1  0.38254924  0.47639144  0.15909266  1
  H+  H215  1  0.61985717  0.12239319  1.00249089  1
  H+  H216  1  0.60834098  -0.01669052  0.35171054  1
  H+  H217  1  1.02741748  0.12925099  0.34783051  1
  H+  H218  1  0.14788525  0.65505439  0.97971720  1
  H+  H219  1  0.37299551  0.10977410  0.50834751  1
  H+  H220  1  0.89859919  0.10193300  0.51402994  1
  H+  H221  1  0.95596169  0.09892420  0.81156568  1
  H+  H222  1  0.86355381  0.20186453  0.49952086  1
  H+  H223  1  0.89033509  0.27543901  -0.01805294  1
  H+  H224  1  0.76147703  0.59682418  0.66961571  1
  H+  H225  1  0.30778230  0.90422877  0.10586333  1
  H+  H226  1  0.22842675  0.85543033  0.84782516  1
  H+  H227  1  0.10496687  0.54224480  0.14631759  1
  H+  H228  1  0.23268942  0.62057688  0.83666465  1
  H+  H229  1  0.40146585  0.87593726  0.51495894  1
  H+  H230  1  0.12133814  0.73679989  0.67392601  1
  H+  H231  1  0.63227086  0.00067258  0.15501036  1
  H+  H232  1  0.23674366  0.61824811  0.51989377  1
  H+  H233  1  1.03369780  0.31881147  0.14620361  1
  H+  H234  1  0.42112079  0.58859274  0.60256780  1
  H+  H235  1  0.35645943  0.69490800  0.21281640  1
  H+  H236  1  0.40279738  0.78787010  0.52093837  1
  H+  H237  1  0.89652125  0.57522393  0.47668566  1
  H+  H238  1  0.12346892  0.89345692  0.67729949  1
  H+  H239  1  0.87820512  0.15731268  0.67229620  1
  H+  H240  1  0.78905301  0.10657966  0.49662559  1
  H+  H241  1  0.60425877  0.32500581  0.88385440  1
  H+  H242  1  0.19379377  0.54886454  0.16103018  1
  H+  H243  1  0.59132202  0.92178549  0.41489408  1
  H+  H244  1  0.59878327  0.12748946  0.66753436  1
  H+  H245  1  0.23457532  0.87010220  0.51285212  1
  H+  H246  1  0.78859118  0.91076370  0.15596067  1
  H+  H247  1  0.09582955  0.74408313  0.15697104  1
  H+  H248  1  0.61674445  0.87972033  0.50120542  1
  H+  H249  1  0.37435439  0.13743351  0.83042540  1
  H+  H250  1  0.10716026  0.96669856  0.49389137  1
  H+  H251  1  0.97119371  0.83795736  0.48749792  1
  H+  H252  1  0.22246343  0.85457104  0.06403427  1
  H+  H253  1  0.82478471  0.40312679  0.76413393  1
  H+  H254  1  0.76788264  0.88296459  -0.00250365  1
  H+  H255  1  0.37730564  0.73269361  0.66917166  1
  H+  H256  1  0.60080608  0.15450996  0.17421079  1
  H+  H257  1  0.83964533  0.17945483  0.76620109  1
  H+  H258  1  1.01168598  0.88765865  0.34499767  1
  H+  H259  1  0.74121067  0.35989709  1.02020972  1
  H+  H260  1  0.46207880  0.61343987  -0.02582781  1
  H+  H261  1  0.11068851  0.88504073  0.83291649  1
  H+  H262  1  0.26408988  0.36355276  0.16594379  1
  H+  H263  1  0.71424701  0.14915968  0.19249944  1
  H+  H264  1  0.85771861  0.96938998  -0.00924940  1
  H+  H265  1  0.24823237  0.35266085  0.48737473  1
  H+  H266  1  0.62333495  0.20884073  0.02068584  1
  H+  H267  1  0.85337055  0.11027660  0.34383952  1
  H+  H268  1  0.62132760  0.27462767  0.17418036  1
  H+  H269  1  0.61635898  0.01466637  0.65975525  1
  H+  H270  1  0.14498019  0.62225785  0.66791803  1
  H+  H271  1  0.38668225  0.87116232  0.36704656  1
  H+  H272  1  0.42739317  0.33627958  0.93250357  1
  H+  H273  1  0.28606402  0.20390294  0.12592576  1
  H+  H274  1  0.22926314  0.09965850  0.18167413  1
  H+  H275  1  0.99607794  0.63946215  0.48910556  1
  H+  H276  1  0.81672010  0.90344473  0.46426921  1
  H+  H277  1  0.11219664  0.22286718  0.50013225  1
  H+  H278  1  0.96626392  0.10361426  0.67076647  1
  H+  H279  1  0.37355657  0.39315007  0.82357605  1
  H+  H280  1  0.64522531  0.82258191  0.57812325  1
  H+  H281  1  0.12447859  0.48794977  0.67184103  1
  H+  H282  1  0.88412346  0.44256254  0.49740112  1
  H+  H283  1  0.19522649  0.31305657  -0.02828147  1
  H+  H284  1  0.17490323  0.84129141  0.60572784  1
  H+  H285  1  0.08747848  0.46647639  0.34035599  1
  H+  H286  1  0.10447029  0.13015963  0.67557362  1
  H+  H287  1  0.11591173  0.83781090  1.00163916  1
  H+  H288  1  0.17495786  0.08029747  0.24515889  1
  H+  H289  1  0.23947913  0.09877766  0.99136403  1
  H+  H290  1  0.57635980  0.16700071  0.40721857  1
  H+  H291  1  0.64975806  0.83783419  0.92882727  1
  H+  H292  1  0.89605397  0.58330740  0.92013673  1
  H+  H293  1  0.08730187  0.16639634  0.40537785  1
  H+  H294  1  0.91296079  0.07773045  0.60919702  1
  H+  H295  1  0.16560589  0.33005880  0.88439121  1
  H+  H296  1  0.93055972  0.09590063  0.21597876  1
  H+  H297  1  0.40959836  0.85262346  0.25944106  1
  H+  H298  1  0.40355900  0.03480227  0.97305619  1
  H+  H299  1  0.83861375  0.93193845  0.09215785  1
  H+  H300  1  0.29988177  0.63238997  0.35328049  1
  H+  H301  1  0.08711344  0.38260493  0.04972073  1
  H+  H302  1  0.42644163  0.33263231  0.23790885  1
  H+  H303  1  0.07958510  0.71037375  0.04683129  1
  H+  H304  1  0.16263345  0.34965094  0.16453391  1
  H+  H305  1  0.65149690  0.00226488  0.84055539  1
  H+  H306  1  0.65632264  0.07048973  0.60015980  1
  H+  H307  1  0.67651992  0.59065810  0.23452190  1
  H+  H308  1  0.15272247  0.83071717  0.27313517  1
  H+  H309  1  0.55156962  0.64316471  0.04246191  1
  H+  H310  1  0.92017902  0.54213093  0.62318521  1
  H+  H311  1  0.17336910  0.58562563  0.57701686  1
  H+  H312  1  0.89392190  0.31139457  0.27748187  1
  H+  H313  1  0.08617341  0.41777852  0.44040220  1
  H+  H314  1  0.10831142  0.15723436  0.07711365  1
  H+  H315  1  0.33661139  0.17067149  0.40501040  1
  H+  H316  1  0.85708524  0.17331221  0.04938461  1
  H+  H317  1  0.61573334  0.78349856  0.82942107  1
  H+  H318  1  0.08825217  0.91982876  0.73556052  1
  H+  H319  1  0.63626623  0.11544591  0.33942367  1
  H+  H320  1  0.41563956  0.08609954  0.27748449  1
  H+  H321  1  0.37227295  0.22474389  -0.00001137  1
  H+  H322  1  0.60248506  0.73784016  0.71822394  1
  H+  H323  1  0.95527053  0.36877520  0.18930445  1
  H+  H324  1  0.41097438  0.33227894  0.56548910  1
  H+  H325  1  0.34593493  0.41946133  0.05748496  1
  H+  H326  1  0.36143856  0.83062097  0.25705928  1
  H+  H327  1  0.66164222  0.60724854  0.91301273  1
  H+  H328  1  0.47760909  0.86390547  0.99306940  1
  H+  H329  1  0.60993984  0.93737489  0.06724619  1
  H+  H330  1  0.68605357  0.33147022  0.96127866  1
  H+  H331  1  0.50242952  0.13911811  0.49893788  1
  H+  H332  1  0.40547565  0.07981461  0.56781162  1
  H+  H333  1  0.89204574  0.57434687  0.25677612  1
  H+  H334  1  0.08867759  0.42204001  0.76391856  1
  H+  H335  1  0.63090522  0.70137732  0.10985214  1
  H+  H336  1  0.11897015  0.68112805  0.44982238  1
  H+  H337  1  0.57843232  0.43088986  0.75380193  1
  H+  H338  1  0.35527912  0.17684014  0.74437815  1
  H+  H339  1  0.83329282  0.40737803  0.43517891  1
  H+  H340  1  0.65406192  0.79506431  0.17743211  1
  H+  H341  1  0.13978045  0.27956340  0.33282641  1
  H+  H342  1  0.27516979  0.52793827  0.09425897  1
  H+  H343  1  0.10175589  0.87604273  0.34103224  1
  H+  H344  1  0.65562929  0.08809980  0.24375411  1
  H+  H345  1  0.43387661  0.09186357  0.89481669  1
  H+  H346  1  0.07787612  0.90787359  0.40744005  1
  H+  H347  1  0.36916690  0.64336080  0.81680548  1
  H+  H348  1  0.17839032  0.07968934  0.90150999  1
  H+  H349  1  0.43310197  0.83242703  0.89303104  1
  H+  H350  1  0.76560918  0.63332753  0.14820759  1
  H+  H351  1  0.90445637  0.01655661  0.29494662  1
  H+  H352  1  0.48240317  0.36988525  0.33065791  1
  H+  H353  1  0.67858193  0.07106720  0.92634190  1
  H+  H354  1  0.91560246  0.07589810  0.91397127  1
  H+  H355  1  0.82063193  0.65921848  0.07151546  1
  H+  H356  1  0.43009192  0.58131698  0.22743295  1
  H+  H357  1  0.93582913  0.48517942  0.03778723  1
  H+  H358  1  0.31126011  0.92380236  0.00958283  1
  H+  H359  1  0.97337324  0.86708055  0.83580470  1
  H+  H360  1  0.91156227  0.82741117  0.92991434  1
  H+  H361  1  0.89502529  0.01248042  0.52556765  1
  H+  H362  1  0.32262783  0.65890304  0.05156036  1
  H+  H363  1  0.26971488  0.29961842  0.44183720  1
  H+  H364  1  0.79840661  0.54612661  0.70868036  1
  H+  H365  1  0.58687129  0.42241517  0.40479441  1
  H+  H366  1  0.07724519  0.91301345  0.10341334  1
  H+  H367  1  0.07784923  0.67991231  0.75686206  1
  H+  H368  1  0.75716797  0.36019834  0.67723391  1
  H+  H369  1  0.80897378  0.91614619  0.73934574  1
  H+  H370  1  0.16563592  0.81954626  0.90540710  1
  H+  H371  1  0.92051891  0.34053033  0.92501920  1
  H+  H372  1  0.33382344  0.91691674  0.44205906  1
  H+  H373  1  0.34708393  0.68430794  0.45353157  1
  H+  H374  1  0.65732977  0.32833089  0.60406399  1
  H+  H375  1  0.66502843  0.41808040  0.90646656  1
  H+  H376  1  0.83574218  0.41353712  0.09949344  1
  H+  H377  1  0.67434760  0.84318358  0.27196367  1
  H+  H378  1  0.82956238  0.65937119  0.75912000  1
  H+  H379  1  0.11137080  0.55388859  0.25500360  1
  H+  H380  1  0.57294612  0.15134875  0.73012921  1
  H+  H381  1  0.41682275  0.58890117  0.88403803  1
  H+  H382  1  0.58502713  0.42221845  0.10200766  1
  H+  H383  1  0.15813869  0.07136491  0.56614790  1
  O2-  O384  1  0.11351970  0.16994319  0.15826178  1
  O2-  O385  1  0.08654523  0.16277086  0.48406155  1
  O2-  O386  1  0.09958243  0.17640128  0.81979132  1
  O2-  O387  1  0.08983506  0.36697751  0.13534720  1
  O2-  O388  1  0.09281091  0.41725596  0.48498558  1
  O2-  O389  1  0.09061566  0.41866726  0.80896725  1
  O2-  O390  1  0.06747034  0.68900963  0.13212603  1
  O2-  O391  1  0.10510359  0.67512924  0.49314727  1
  O2-  O392  1  0.07126439  0.67933884  0.80431539  1
  O2-  O393  1  0.07854493  0.91390773  0.14870186  1
  O2-  O394  1  0.08218087  0.90695735  0.47692032  1
  O2-  O395  1  0.08226220  0.91588058  0.81651384  1
  O2-  O396  1  0.32598267  0.18284042  0.13302620  1
  O2-  O397  1  0.32531630  0.16059416  0.48256403  1
  O2-  O398  1  0.34492201  0.16951608  0.81667919  1
  O2-  O399  1  0.35241490  0.41528890  0.14414824  1
  O2-  O400  1  0.29739136  0.35581767  0.46159844  1
  O2-  O401  1  0.34636457  0.42510518  0.80616035  1
  O2-  O402  1  0.28623617  0.57178634  0.12473102  1
  O2-  O403  1  0.34765662  0.68073562  0.49765082  1
  O2-  O404  1  0.34099002  0.67728434  0.80535644  1
  O2-  O405  1  0.25835421  0.90617299  0.08888477  1
  O2-  O406  1  0.33865679  0.91682746  0.48720308  1
  O2-  O407  1  0.33567075  0.91233864  0.81918394  1
  O2-  O408  1  0.57467177  0.18927412  0.16206511  1
  O2-  O409  1  0.56571977  0.16864661  0.48593198  1
  O2-  O410  1  0.58314079  0.13741654  0.80790295  1
  O2-  O411  1  0.59011183  0.42854490  0.14854992  1
  O2-  O412  1  0.57857525  0.41530086  0.47814365  1
  O2-  O413  1  0.58366886  0.44037252  0.79967482  1
  O2-  O414  1  0.60471203  0.68464547  0.15001050  1
  O2-  O415  1  0.58456395  0.66621219  0.48103762  1
  O2-  O416  1  0.58327059  0.70126484  0.79902215  1
  O2-  O417  1  0.60962162  0.94289058  0.13669132  1
  O2-  O418  1  0.59146671  0.91463570  0.48290630  1
  O2-  O419  1  0.60823105  0.89415103  0.82376541  1
  O2-  O420  1  0.86620710  0.18061106  0.13128659  1
  O2-  O421  1  0.84689907  0.14439184  0.47928199  1
  O2-  O422  1  0.83561427  0.17140134  0.81153725  1
  O2-  O423  1  0.82126873  0.41138553  0.14361157  1
  O2-  O424  1  0.82944525  0.39922842  0.48028158  1
  O2-  O425  1  0.83434640  0.42036094  0.80893589  1
  O2-  O426  1  0.82190250  0.65671362  0.12582756  1
  O2-  O427  1  0.86487806  0.72454857  0.46634055  1
  O2-  O428  1  0.82862516  0.66917152  0.80395068  1
  O2-  O429  1  0.84613365  0.94389820  0.13646334  1
  O2-  O430  1  0.82328124  0.90340423  0.50837528  1
  O2-  O431  1  0.80960063  0.90893972  0.80666835  1
  O2-  O432  1  0.17047299  0.07294048  0.19788014  1
  O2-  O433  1  0.15960481  0.07040463  0.52085584  1
  O2-  O434  1  0.18013253  0.08259454  0.85571375  1
  O2-  O435  1  0.20047750  0.32832450  0.18228304  1
  O2-  O436  1  0.16301024  0.32862383  0.52230266  1
  O2-  O437  1  0.17869558  0.34242142  0.84034960  1
  O2-  O438  1  0.13264048  0.52365634  0.17607560  1
  O2-  O439  1  0.17497976  0.58676857  0.53118687  1
  O2-  O440  1  0.17379335  0.59142084  0.85371528  1
  O2-  O441  1  0.15093633  0.83353543  0.19541015  1
  O2-  O442  1  0.17367059  0.84171968  0.52769105  1
  O2-  O443  1  0.16658388  0.82518707  0.86054438  1
  O2-  O444  1  0.41244640  0.08845772  0.19879400  1
  O2-  O445  1  0.40736043  0.08227013  0.52223170  1
  O2-  O446  1  0.42834867  0.08453642  0.84880051  1
  O2-  O447  1  0.43018644  0.33581676  0.19208491  1
  O2-  O448  1  0.41303059  0.32603247  0.52021138  1
  O2-  O449  1  0.42529463  0.33945003  0.85282643  1
  O2-  O450  1  0.42673248  0.57946896  0.18176984  1
  O2-  O451  1  0.42658291  0.59204856  0.51877241  1
  O2-  O452  1  0.42449712  0.59344827  0.83889158  1
  O2-  O453  1  0.44418275  0.86983032  0.13720080  1
  O2-  O454  1  0.43621180  0.85044289  0.53083421  1
  O2-  O455  1  0.44132999  0.83616784  0.84807936  1
  O2-  O456  1  0.65820187  0.09834357  0.19878189  1
  O2-  O457  1  0.68252553  0.07099658  0.52440580  1
  O2-  O458  1  0.67365718  0.06379139  0.85218715  1
  O2-  O459  1  0.66094172  0.34395965  0.18306587  1
  O2-  O460  1  0.66256635  0.33598434  0.52540715  1
  O2-  O461  1  0.66440054  0.37066141  0.88419334  1
  O2-  O462  1  0.67416982  0.59293826  0.18876014  1
  O2-  O463  1  0.67309280  0.58395987  0.52569812  1
  O2-  O464  1  0.66161574  0.61290301  0.83399806  1
  O2-  O465  1  0.68555430  0.85613353  0.19033667  1
  O2-  O466  1  0.65397432  0.82593950  0.53325377  1
  O2-  O467  1  0.64669420  0.84533470  0.85156880  1
  O2-  O468  1  0.94026941  0.09699772  0.17228334  1
  O2-  O469  1  0.92799081  0.07460995  0.53614987  1
  O2-  O470  1  0.90377056  0.07676073  0.83609089  1
  O2-  O471  1  0.89549410  0.32395070  0.19470444  1
  O2-  O472  1  0.87521085  0.28119874  0.53849712  1
  O2-  O473  1  0.92173788  0.33977930  0.85046042  1
  O2-  O474  1  0.90429241  0.58354983  0.17647394  1
  O2-  O475  1  0.94530506  0.63029987  0.46464404  1
  O2-  O476  1  0.91357224  0.59044319  0.84190128  1
  O2-  O477  1  0.95743355  0.80768904  0.23298413  1
  O2-  O478  1  0.90846727  0.81714325  0.47990961  1
  O2-  O479  1  0.91190556  0.83284076  0.84900253  1
  O2-  O480  1  0.17852677  0.09471230  0.31210829  1
  O2-  O481  1  0.16033656  0.08084831  0.64663325  1
  O2-  O482  1  0.17805114  0.06860268  0.97797570  1
  O2-  O483  1  0.17030589  0.33985299  0.31835874  1
  O2-  O484  1  0.16648658  0.33078100  0.64698581  1
  O2-  O485  1  0.13517014  0.28421836  0.95859072  1
  O2-  O486  1  0.11193603  0.56785425  0.29861467  1
  O2-  O487  1  0.17361900  0.59078050  0.65232962  1
  O2-  O488  1  0.17190254  0.61712246  0.97295326  1
  O2-  O489  1  0.15303489  0.83118218  0.31883666  1
  O2-  O490  1  0.17308043  0.83751864  0.65119673  1
  O2-  O491  1  0.15069867  0.80837617  0.99340309  1
  O2-  O492  1  0.41936180  0.08504109  0.32278698  1
  O2-  O493  1  0.40677161  0.07043620  0.64453554  1
  O2-  O494  1  0.43711740  0.09981967  0.96786363  1
  O2-  O495  1  0.42318815  0.33678350  0.31388091  1
  O2-  O496  1  0.40984448  0.33868876  0.64138949  1
  O2-  O497  1  0.42407740  0.33175995  0.97772902  1
  O2-  O498  1  0.43404634  0.57923441  0.30494336  1
  O2-  O499  1  0.41286590  0.58791030  0.64686347  1
  O2-  O500  1  0.40095557  0.57851204  0.96173501  1
  O2-  O501  1  0.42283123  0.84442472  0.37793421  1
  O2-  O502  1  0.44750653  0.85195395  0.65464641  1
  O2-  O503  1  0.42249436  0.83551785  0.97164575  1
  O2-  O504  1  0.66010069  0.07956323  0.32306863  1
  O2-  O505  1  0.64965860  0.07442929  0.64472747  1
  O2-  O506  1  0.68145760  0.07305324  0.97238857  1
  O2-  O507  1  0.65999223  0.33428271  0.33084455  1
  O2-  O508  1  0.65341281  0.32587373  0.64942520  1
  O2-  O509  1  0.68227975  0.32475719  1.00577357  1
  O2-  O510  1  0.67013967  0.58155551  0.31248894  1
  O2-  O511  1  0.68267506  0.58278835  0.64493903  1
  O2-  O512  1  0.65537567  0.60087896  0.95807845  1
  O2-  O513  1  0.66532669  0.83198044  0.31625728  1
  O2-  O514  1  0.64495107  0.83269914  0.65764979  1
  O2-  O515  1  0.65606129  0.83535699  0.97409457  1
  O2-  O516  1  0.91112125  0.04224443  0.33505110  1
  O2-  O517  1  0.90598468  0.07841151  0.65496044  1
  O2-  O518  1  0.91696620  0.07545820  0.95948355  1
  O2-  O519  1  0.89592825  0.31378409  0.32237546  1
  O2-  O520  1  0.81256417  0.21847581  0.65675833  1
  O2-  O521  1  0.92082057  0.33760711  0.97096583  1
  O2-  O522  1  0.88910262  0.57036343  0.30204748  1
  O2-  O523  1  0.94314630  0.60395414  0.62584505  1
  O2-  O524  1  0.88295311  0.58028276  0.96433220  1
  O2-  O525  1  0.91877446  0.86355757  0.32831993  1
  O2-  O526  1  0.93788977  0.84564817  0.61854351  1
  O2-  O527  1  0.91048104  0.82518161  0.97532069  1
  O2-  O528  1  0.09373957  0.14314842  0.03344887  1
  O2-  O529  1  0.08768234  0.16800035  0.35988205  1
  O2-  O530  1  0.07341042  0.15935422  0.69145949  1
  O2-  O531  1  0.08655943  0.38594731  0.00525471  1
  O2-  O532  1  0.06927695  0.40981815  0.35849142  1
  O2-  O533  1  0.09280371  0.42529149  0.68412469  1
  O2-  O534  1  0.08848198  0.71597593  0.00207444  1
  O2-  O535  1  0.04468401  0.66113592  0.36089723  1
  O2-  O536  1  0.08851732  0.67587233  0.68997637  1
  O2-  O537  1  0.07746453  0.90330329  0.02252260  1
  O2-  O538  1  0.07337049  0.90752241  0.36042406  1
  O2-  O539  1  0.09305129  0.92443601  0.69047370  1
  O2-  O540  1  0.34561393  0.16482341  0.01651647  1
  O2-  O541  1  0.34232973  0.17172314  0.35973535  1
  O2-  O542  1  0.37456783  0.18766341  0.70000883  1
  O2-  O543  1  0.33614542  0.41253597  0.01323976  1
  O2-  O544  1  0.33573751  0.41920081  0.34565615  1
  O2-  O545  1  0.33349139  0.41868742  0.68425643  1
  O2-  O546  1  0.32743691  0.67030230  0.00778473  1
  O2-  O547  1  0.35471043  0.67653766  0.33663607  1
  O2-  O548  1  0.33951811  0.67272725  0.68187875  1
  O2-  O549  1  0.34438695  0.93415360  -0.02795912  1
  O2-  O550  1  0.32801917  0.91847381  0.36257992  1
  O2-  O551  1  0.33676460  0.91230802  0.69406185  1
  O2-  O552  1  0.58641462  0.14587409  0.02147694  1
  O2-  O553  1  0.58276521  0.17073926  0.36199938  1
  O2-  O554  1  0.56886430  0.15686903  0.68524605  1
  O2-  O555  1  0.58311247  0.40518847  0.03226444  1
  O2-  O556  1  0.59144272  0.42095751  0.35868623  1
  O2-  O557  1  0.57357054  0.41434997  0.68266286  1
  O2-  O558  1  0.56952189  0.66629469  0.00168990  1
  O2-  O559  1  0.59612466  0.66941709  0.35683550  1
  O2-  O560  1  0.60810437  0.74114353  0.67306486  1
  O2-  O561  1  0.60369489  0.93009518  0.02031529  1
  O2-  O562  1  0.57827398  0.92211961  0.36876470  1
  O2-  O563  1  0.53706650  0.89739002  0.67823651  1
  O2-  O564  1  0.84717388  0.16867199  0.00487091  1
  O2-  O565  1  0.82692554  0.14377395  0.35841826  1
  O2-  O566  1  0.87189869  0.20330189  0.69384524  1
  O2-  O567  1  0.87884241  0.43784226  0.02714610  1
  O2-  O568  1  0.82388705  0.41057066  0.35614676  1
  O2-  O569  1  0.81437305  0.37434010  0.69381161  1
  O2-  O570  1  0.82102460  0.66494563  0.01537548  1
  O2-  O571  1  0.83445018  0.68741379  0.34511697  1
  O2-  O572  1  0.81767751  0.60357670  0.69264905  1
  O2-  O573  1  0.82864007  0.91228182  0.01106788  1
  O2-  O574  1  0.88013501  0.88564553  0.37973748  1
  O2-  O575  1  0.80711119  0.92145529  0.69192623  1
