# generated using pymatgen
data_H2O
_symmetry_space_group_name_H-M   'P 1'
_cell_length_a   17.93237940
_cell_length_b   17.92292531
_cell_length_c   21.94055334
_cell_angle_alpha   89.97288970
_cell_angle_beta   89.92322818
_cell_angle_gamma   119.95205441
_symmetry_Int_Tables_number   1
_chemical_formula_structural   H2O
_chemical_formula_sum   'H384 O192'
_cell_volume   6109.89677682
_cell_formula_units_Z   192
loop_
 _symmetry_equiv_pos_site_id
 _symmetry_equiv_pos_as_xyz
  1  'x, y, z'
loop_
 _atom_type_symbol
 _atom_type_oxidation_number
  H+  1.0
  O2-  -2.0
loop_
 _atom_site_type_symbol
 _atom_site_label
 _atom_site_symmetry_multiplicity
 _atom_site_fract_x
 _atom_site_fract_y
 _atom_site_fract_z
 _atom_site_occupancy
  H+  H0  1  0.48327302  0.34422762  0.69724035  1
  H+  H1  1  0.86678595  0.52347838  0.09605746  1
  H+  H2  1  0.12106223  0.88585964  0.32823177  1
  H+  H3  1  0.87556175  0.99146657  0.68695158  1
  H+  H4  1  0.52473567  0.88478562  0.14225296  1
  H+  H5  1  0.85518608  0.97830022  0.14275549  1
  H+  H6  1  0.13955650  0.33364307  0.85865424  1
  H+  H7  1  0.10740424  0.62371374  0.50725783  1
  H+  H8  1  0.52154206  0.88019781  0.80714713  1
  H+  H9  1  0.24621790  0.06214626  0.81316215  1
  H+  H10  1  0.36491983  0.20927460  0.50841009  1
  H+  H11  1  0.14228619  0.52514793  0.68372107  1
  H+  H12  1  0.19189938  0.71594505  0.39243433  1
  H+  H13  1  0.27325622  0.88580740  0.81363106  1
  H+  H14  1  0.72449433  0.85873419  0.52215003  1
  H+  H15  1  0.65560125  0.78387125  0.79174344  1
  H+  H16  1  0.26290258  0.88673820  0.67258805  1
  H+  H17  1  0.61562773  0.33174111  -0.00872545  1
  H+  H18  1  0.87324612  0.88100706  0.32190343  1
  H+  H19  1  0.61558282  0.64047643  0.49681672  1
  H+  H20  1  0.27367905  0.63804178  0.49599435  1
  H+  H21  1  0.38509918  0.77430065  0.82220683  1
  H+  H22  1  0.50704219  0.37133993  -0.02768446  1
  H+  H23  1  0.65726693  1.04469495  0.52961260  1
  H+  H24  1  0.43716867  0.41534963  0.53279020  1
  H+  H25  1  0.59737776  0.15050600  0.31282693  1
  H+  H26  1  0.23054908  0.74771083  0.40997960  1
  H+  H27  1  0.43204516  0.08008198  0.49014965  1
  H+  H28  1  0.68000979  0.36664045  0.19997304  1
  H+  H29  1  0.32666585  0.37941454  0.33019075  1
  H+  H30  1  0.24804992  0.63932103  0.15435712  1
  H+  H31  1  0.86020372  0.73125901  -0.00437029  1
  H+  H32  1  0.51714387  0.13044262  0.83711595  1
  H+  H33  1  0.87148695  0.47966418  0.69230854  1
  H+  H34  1  0.89014626  0.40743930  0.52004468  1
  H+  H35  1  0.62474675  0.45572010  0.67890026  1
  H+  H36  1  1.00924304  0.13572568  0.13995460  1
  H+  H37  1  0.99031432  0.87927570  0.88013103  1
  H+  H38  1  0.57877871  0.85325672  0.65838779  1
  H+  H39  1  0.39365515  0.12303857  0.17320106  1
  H+  H40  1  0.11455472  0.81382557  0.40012685  1
  H+  H41  1  0.60693916  0.87374051  0.14246575  1
  H+  H42  1  0.87849002  0.89788492  0.85853665  1
  H+  H43  1  0.78361752  0.32470643  0.29746506  1
  H+  H44  1  0.07926615  0.45659829  1.00497315  1
  H+  H45  1  0.44450681  0.60770001  0.16138837  1
  H+  H46  1  0.78743318  0.50460932  0.23941665  1
  H+  H47  1  0.36330072  0.64084829  0.48804679  1
  H+  H48  1  0.11715632  0.38588720  0.50103680  1
  H+  H49  1  0.56942320  0.26300126  0.33374829  1
  H+  H50  1  0.07259565  0.41064145  0.44655617  1
  H+  H51  1  0.62273753  0.13036952  0.67082581  1
  H+  H52  1  0.98456488  0.12356243  0.66624118  1
  H+  H53  1  0.34056078  0.96766561  0.49102279  1
  H+  H54  1  0.98180019  0.65494923  0.13702003  1
  H+  H55  1  0.12549231  0.26836995  0.01256387  1
  H+  H56  1  0.53527768  0.90631047  0.50996289  1
  H+  H57  1  0.86161598  0.96772754  -0.00605699  1
  H+  H58  1  0.50192991  0.73194072  0.89385216  1
  H+  H59  1  0.35307181  0.63419772  0.00524663  1
  H+  H60  1  0.65923927  0.75985588  0.16561228  1
  H+  H61  1  0.22165391  0.12074826  0.50317741  1
  H+  H62  1  0.15636713  0.83850517  0.23583595  1
  H+  H63  1  0.63079700  0.64429898  0.34020421  1
  H+  H64  1  0.98025572  0.87796534  0.17251215  1
  H+  H65  1  0.40100338  0.01291693  0.85077668  1
  H+  H66  1  0.91470218  0.64628567  0.99555012  1
  H+  H67  1  0.74112894  0.14004371  0.32075634  1
  H+  H68  1  0.94512225  0.20394345  0.28807821  1
  H+  H69  1  0.08866295  0.46589735  0.34719785  1
  H+  H70  1  0.63439185  0.15366157  0.18262259  1
  H+  H71  1  0.98509931  0.11026974  0.50296110  1
  H+  H72  1  0.62586849  -0.01355709  1.07056085  1
  H+  H73  1  0.11214192  0.44380001  0.86668478  1
  H+  H74  1  0.60903064  0.62153092  1.00303973  1
  H+  H75  1  0.20176271  0.86769883  0.33124274  1
  H+  H76  1  0.72214421  0.60558477  0.67587934  1
  H+  H77  1  0.40509332  0.12258867  0.99882685  1
  H+  H78  1  0.51772080  0.87364131  -0.04753711  1
  H+  H79  1  0.41148245  0.32420569  0.74528278  1
  H+  H80  1  0.61928164  0.73650835  0.33481060  1
  H+  H81  1  0.78675300  0.38634339  0.68311939  1
  H+  H82  1  0.35580574  0.84381067  0.96493012  1
  H+  H83  1  0.56603527  0.15881659  0.49077088  1
  H+  H84  1  0.02541130  0.12220189  0.83153128  1
  H+  H85  1  0.37740518  0.10628322  0.33048652  1
  H+  H86  1  0.86707853  0.19191054  0.46043141  1
  H+  H87  1  0.08043086  0.16149242  0.73722566  1
  H+  H88  1  0.38484448  0.66111137  0.83024859  1
  H+  H89  1  0.72773618  0.85711246  0.16489022  1
  H+  H90  1  0.62746644  0.35509260  0.85069037  1
  H+  H91  1  1.01537822  0.36374150  0.34530763  1
  H+  H92  1  0.77699734  0.87322202  -0.01237165  1
  H+  H93  1  0.89808774  0.60200856  0.84146264  1
  H+  H94  1  0.61666738  0.05932604  1.03310774  1
  H+  H95  1  0.14943090  0.91491865  0.00734889  1
  H+  H96  1  0.89185192  0.09818635  0.50431448  1
  H+  H97  1  0.01839424  0.89832485  0.68694796  1
  H+  H98  1  0.68170210  0.26817095  0.65284801  1
  H+  H99  1  0.75047853  0.10101120  0.02941747  1
  H+  H100  1  0.48710058  0.42118912  0.18812306  1
  H+  H101  1  0.10018564  0.99421218  0.49409618  1
  H+  H102  1  0.89966266  0.87249577  0.97591114  1
  H+  H103  1  0.59711858  0.44839317  -0.00669057  1
  H+  H104  1  0.66968009  0.13479360  0.50821437  1
  H+  H105  1  0.88667026  0.86913969  0.67216920  1
  H+  H106  1  0.10155935  0.70636457  0.48264074  1
  H+  H107  1  0.88940426  0.53446946  0.52621017  1
  H+  H108  1  0.37177574  0.76973699  0.31411028  1
  H+  H109  1  0.08311643  0.37099664  0.01846395  1
  H+  H110  1  0.72239503  0.62086125  0.84539568  1
  H+  H111  1  0.60531711  -0.05289706  0.97685707  1
  H+  H112  1  0.62784421  0.01412226  0.81742646  1
  H+  H113  1  0.37020142  0.09474709  0.64711015  1
  H+  H114  1  0.85421930  0.21610239  0.83450829  1
  H+  H115  1  0.00903022  0.91356491  0.33252131  1
  H+  H116  1  0.86337943  -0.02887139  0.49938349  1
  H+  H117  1  0.38600859  0.53116778  0.48960104  1
  H+  H118  1  0.36923803  0.78119238  0.15922914  1
  H+  H119  1  0.13002905  0.12435443  0.66030651  1
  H+  H120  1  0.12469232  0.39102612  0.71029884  1
  H+  H121  1  0.32155838  0.66836834  0.38974821  1
  H+  H122  1  0.34088205  0.37594875  0.68310110  1
  H+  H123  1  0.77943549  0.12495785  0.49499989  1
  H+  H124  1  0.88349712  0.14775952  0.67764194  1
  H+  H125  1  0.39166210  0.53158007  -0.00989035  1
  H+  H126  1  0.61018383  -0.03230451  0.29357414  1
  H+  H127  1  0.85897673  0.24177956  1.00259554  1
  H+  H128  1  0.68715883  0.24469816  0.14835353  1
  H+  H129  1  0.88956061  0.24794470  0.68767367  1
  H+  H130  1  0.04176049  0.62067903  0.40634019  1
  H+  H131  1  0.87116716  0.64379515  0.51757196  1
  H+  H132  1  0.09185900  0.90249255  0.47516407  1
  H+  H133  1  0.76403085  0.40447413  1.01650682  1
  H+  H134  1  0.86915050  0.39746850  0.35450403  1
  H+  H135  1  0.02895707  0.64309668  0.68575999  1
  H+  H136  1  0.48843843  0.06649220  0.68312804  1
  H+  H137  1  0.40053739  0.25591108  0.15978474  1
  H+  H138  1  0.73724681  0.87317693  0.80954211  1
  H+  H139  1  0.63454926  0.77162309  0.51418452  1
  H+  H140  1  0.10525813  0.98951950  0.68182008  1
  H+  H141  1  0.38023336  0.86270413  0.50078587  1
  H+  H142  1  0.35761791  0.40325222  0.46495238  1
  H+  H143  1  0.05011649  0.88952994  -0.00319795  1
  H+  H144  1  0.82019743  0.96980262  0.35413469  1
  H+  H145  1  0.77407794  0.64192679  0.51758093  1
  H+  H146  1  0.06146735  0.67836919  0.00653630  1
  H+  H147  1  0.88547169  0.35266909  0.85289553  1
  H+  H148  1  0.61918506  0.25479002  0.84545648  1
  H+  H149  1  0.11245436  0.59158106  0.32985608  1
  H+  H150  1  0.75789416  0.37752809  0.50972873  1
  H+  H151  1  0.23798960  0.37665149  0.49440844  1
  H+  H152  1  0.71568812  0.59619492  0.99134050  1
  H+  H153  1  0.88960319  0.11414201  0.84162447  1
  H+  H154  1  0.09389029  0.19481037  0.41800116  1
  H+  H155  1  0.58122874  0.68542782  0.67156346  1
  H+  H156  1  0.37485241  0.08147197  0.83888766  1
  H+  H157  1  0.40617603  0.83649784  0.21963604  1
  H+  H158  1  0.10354635  0.64806276  0.16017588  1
  H+  H159  1  0.37070633  0.85763707  0.31531184  1
  H+  H160  1  0.90883990  0.10927688  0.31205946  1
  H+  H161  1  -0.03202315  0.87151271  0.51308016  1
  H+  H162  1  0.61374227  0.88534888  0.79154201  1
  H+  H163  1  0.25976052  0.86826003  0.48976817  1
  H+  H164  1  0.35853308  0.51702091  0.15735000  1
  H+  H165  1  0.51838527  0.88568825  0.30813629  1
  H+  H166  1  0.26148425  0.12922957  0.66772210  1
  H+  H167  1  0.61911128  0.89967294  0.51779303  1
  H+  H168  1  0.14137023  0.61348924  0.67329397  1
  H+  H169  1  0.12408403  0.02083284  0.16132522  1
  H+  H170  1  0.37772023  0.57142290  0.25824105  1
  H+  H171  1  0.78418967  0.39194881  0.13203916  1
  H+  H172  1  0.65081955  0.53316544  0.52407766  1
  H+  H173  1  0.11104640  0.13623959  0.99003775  1
  H+  H174  1  0.39829013  0.33253853  0.90097152  1
  H+  H175  1  0.64951886  0.54274647  0.34501246  1
  H+  H176  1  0.13736771  0.78329512  0.17339516  1
  H+  H177  1  0.64407001  0.76253818  -0.01543121  1
  H+  H178  1  0.44075251  0.23148892  0.36236688  1
  H+  H179  1  0.62420163  0.58678318  0.67170911  1
  H+  H180  1  0.12444895  0.64153722  1.01017843  1
  H+  H181  1  0.98747753  0.65042027  0.30661541  1
  H+  H182  1  0.36344639  0.72074619  0.66696311  1
  H+  H183  1  0.28328405  0.39890519  0.82859963  1
  H+  H184  1  0.14875761  0.78747627  0.83657209  1
  H+  H185  1  0.83073518  0.91183713  0.08719940  1
  H+  H186  1  0.64253134  0.84515826  -0.04099244  1
  H+  H187  1  0.48142520  0.61711832  0.00509574  1
  H+  H188  1  0.79268489  0.91125791  0.71653058  1
  H+  H189  1  0.62486272  0.47252663  0.20069861  1
  H+  H190  1  0.87358831  0.85888901  0.51490984  1
  H+  H191  1  0.31497884  0.97993807  -0.00232311  1
  H+  H192  1  0.44327018  0.39919381  0.50241799  1
  H+  H193  1  0.03883865  0.40134422  0.71540838  1
  H+  H194  1  0.54203415  0.10201096  0.74362501  1
  H+  H195  1  0.39700059  0.39524135  0.81885272  1
  H+  H196  1  0.11246221  0.52057962  0.17326404  1
  H+  H197  1  0.85908125  0.26413974  0.18333575  1
  H+  H198  1  0.63091155  0.36917042  0.68015272  1
  H+  H199  1  0.58378702  0.32707771  0.18120809  1
  H+  H200  1  0.64568801  0.61271158  0.15425722  1
  H+  H201  1  0.66692466  0.37547088  0.51413365  1
  H+  H202  1  0.35399645  -0.02541885  0.66075555  1
  H+  H203  1  0.15074059  0.54269206  0.80049383  1
  H+  H204  1  0.86192204  0.75081586  0.85255337  1
  H+  H205  1  0.03526381  0.76821720  0.44299594  1
  H+  H206  1  0.11468394  0.11081691  0.15766885  1
  H+  H207  1  0.62871061  0.24803088  0.99868774  1
  H+  H208  1  0.79157995  0.75071776  0.81212676  1
  H+  H209  1  0.43546239  0.30057066  0.60258312  1
  H+  H210  1  0.27067317  0.39655551  0.00100197  1
  H+  H211  1  0.36611166  0.00386835  0.17132650  1
  H+  H212  1  0.37290216  0.85755239  0.65110238  1
  H+  H213  1  0.14131150  0.03370539  0.99096966  1
  H+  H214  1  0.88180790  0.46667890  0.84142777  1
  H+  H215  1  0.62540818  0.47607305  0.83194080  1
  H+  H216  1  0.01864496  0.13382220  -0.00401891  1
  H+  H217  1  0.11948145  0.24167313  0.48209067  1
  H+  H218  1  0.35612033  0.39523748  0.15309407  1
  H+  H219  1  0.57999510  0.32989140  0.28233470  1
  H+  H220  1  0.25965127  0.38073211  0.15456701  1
  H+  H221  1  0.60740842  0.13206792  0.83343064  1
  H+  H222  1  0.36080153  0.89886295  0.16123247  1
  H+  H223  1  0.20912415  0.58916892  0.98707752  1
  H+  H224  1  0.36701198  0.27136048  0.32217145  1
  H+  H225  1  0.87695105  0.10243649  1.00067771  1
  H+  H226  1  0.12294236  0.26583406  0.16589465  1
  H+  H227  1  0.44602210  0.36191799  0.31465725  1
  H+  H228  1  0.57610580  0.39254053  0.36513533  1
  H+  H229  1  0.55231195  0.38313644  0.52914640  1
  H+  H230  1  0.12557126  1.04521575  0.31040961  1
  H+  H231  1  0.89839459  0.37041873  0.68840613  1
  H+  H232  1  0.76618158  0.12517229  0.82497888  1
  H+  H233  1  0.62012501  0.85330302  0.30759437  1
  H+  H234  1  0.38575020  0.24329407  -0.00792148  1
  H+  H235  1  0.85943478  0.73062937  0.68288927  1
  H+  H236  1  0.34205102  0.50994952  0.31596602  1
  H+  H237  1  0.75618546  0.12437470  0.20195641  1
  H+  H238  1  0.35453302  0.20833434  0.68776128  1
  H+  H239  1  0.74603512  0.32791625  0.30971336  1
  H+  H240  1  0.34036031  0.63003825  0.32913015  1
  H+  H241  1  0.34497810  0.11309379  0.49415552  1
  H+  H242  1  0.11835836  0.89787831  0.15908018  1
  H+  H243  1  0.16403287  0.33605487  1.06548644  1
  H+  H244  1  0.85471597  0.74804537  0.32679704  1
  H+  H245  1  0.08666952  0.37819536  0.16379880  1
  H+  H246  1  0.12723372  0.87839944  0.67810183  1
  H+  H247  1  0.73638496  0.62964153  0.32177830  1
  H+  H248  1  0.86444089  0.67623813  0.10119064  1
  H+  H249  1  0.49034436  0.86734648  0.65366462  1
  H+  H250  1  0.87314395  0.24480717  0.32725683  1
  H+  H251  1  0.82093002  0.49457085  0.25071286  1
  H+  H252  1  0.38095243  0.60065494  0.65121235  1
  H+  H253  1  0.89102193  0.62155846  0.68202067  1
  H+  H254  1  0.12261857  0.19700844  0.83166817  1
  H+  H255  1  0.36595417  0.87647283  0.81131994  1
  H+  H256  1  0.26861093  0.89823412  0.16945459  1
  H+  H257  1  0.37426098  0.36359632  0.96379797  1
  H+  H258  1  0.13741830  0.51914748  0.51878622  1
  H+  H259  1  0.25028146  0.38003886  0.68253034  1
  H+  H260  1  0.89242100  0.02665558  0.85060807  1
  H+  H261  1  0.46001964  0.09772096  0.32661518  1
  H+  H262  1  0.34046809  -0.03508732  0.33571960  1
  H+  H263  1  0.86557128  0.11187974  0.15669838  1
  H+  H264  1  0.11619222  0.73327245  0.68306653  1
  H+  H265  1  0.14491887  0.14313564  0.30271012  1
  H+  H266  1  0.52944849  0.44376020  0.38900810  1
  H+  H267  1  0.10940089  0.24014930  0.68838513  1
  H+  H268  1  0.20815137  0.60437416  0.32629007  1
  H+  H269  1  0.36373335  0.76067894  -0.02460647  1
  H+  H270  1  0.99226033  0.61633969  0.84386223  1
  H+  H271  1  0.54522581  0.66662899  0.83141476  1
  H+  H272  1  0.86871789  0.73979754  0.51485208  1
  H+  H273  1  0.47678405  0.24716601  0.58123764  1
  H+  H274  1  0.78164447  0.14007647  0.38592496  1
  H+  H275  1  0.12782943  0.65066757  0.83148424  1
  H+  H276  1  0.13729172  0.12976225  0.49599805  1
  H+  H277  1  -0.02094133  0.54422821  0.36477734  1
  H+  H278  1  0.99025594  0.36691567  0.52912906  1
  H+  H279  1  -0.04804623  0.33930702  0.00230901  1
  H+  H280  1  0.94811194  0.35515621  0.17909084  1
  H+  H281  1  0.32946025  0.43739020  0.76630658  1
  H+  H282  1  0.83024808  0.68187274  0.74568412  1
  H+  H283  1  0.38582066  0.77620268  0.50083667  1
  H+  H284  1  0.66883075  0.82001425  0.68191699  1
  H+  H285  1  0.74412252  0.87636550  0.34073397  1
  H+  H286  1  0.52063203  0.11201667  0.02111299  1
  H+  H287  1  0.96983392  0.33941830  0.86252064  1
  H+  H288  1  0.16855905  0.57779918  0.57855844  1
  H+  H289  1  0.72532993  0.67999182  0.11518040  1
  H+  H290  1  0.72459073  0.52396958  0.11424228  1
  H+  H291  1  0.65724456  0.56939647  0.93204267  1
  H+  H292  1  0.33586525  0.63853233  0.15082685  1
  H+  H293  1  0.41283913  0.57697132  0.55514968  1
  H+  H294  1  0.97759289  0.61975200  0.52407315  1
  H+  H295  1  0.84429715  0.17013889  0.74270282  1
  H+  H296  1  0.34664668  0.66612859  0.76333960  1
  H+  H297  1  0.27695354  0.63180254  0.67602632  1
  H+  H298  1  0.30885352  0.10083242  0.75573079  1
  H+  H299  1  0.65049365  0.24754083  0.48538341  1
  H+  H300  1  0.33403881  0.91477464  0.74729200  1
  H+  H301  1  0.48223163  0.38344031  0.82452723  1
  H+  H302  1  0.23155377  0.86136853  0.92441776  1
  H+  H303  1  0.81903571  0.15268921  0.07876286  1
  H+  H304  1  0.09106826  0.92375300  0.09584957  1
  H+  H305  1  0.87053700  0.92725588  0.79027417  1
  H+  H306  1  0.91111915  0.08605368  0.93648444  1
  H+  H307  1  0.14573599  0.84449597  0.61663028  1
  H+  H308  1  0.36019316  0.18556789  0.40835462  1
  H+  H309  1  0.40939456  0.83256181  0.88158204  1
  H+  H310  1  0.08766859  0.40040363  0.80203936  1
  H+  H311  1  0.89590157  0.28666811  0.54206054  1
  H+  H312  1  0.59474354  0.15273818  0.07383213  1
  H+  H313  1  0.80558101  0.34913142  0.18668615  1
  H+  H314  1  0.36772280  0.50543745  0.65025521  1
  H+  H315  1  0.60812503  0.66296071  0.06507172  1
  H+  H316  1  0.66092123  0.81634254  0.25775535  1
  H+  H317  1  0.40207172  0.82814029  0.58865706  1
  H+  H318  1  0.81581528  0.90697455  0.44318964  1
  H+  H319  1  0.14625079  0.57754536  0.23283325  1
  H+  H320  1  0.92372819  0.08811200  0.60632674  1
  H+  H321  1  0.87857051  0.43702806  0.45407700  1
  H+  H322  1  0.60304295  0.41141323  0.77466134  1
  H+  H323  1  0.11168313  0.06040221  0.82813630  1
  H+  H324  1  0.62342729  0.54133734  0.24389079  1
  H+  H325  1  0.40777243  0.35195809  0.22642024  1
  H+  H326  1  0.09399073  0.67809456  0.77373199  1
  H+  H327  1  0.30804095  0.42003593  0.40903090  1
  H+  H328  1  0.89451040  0.30379167  0.93583481  1
  H+  H329  1  0.91395423  0.83868422  0.61151175  1
  H+  H330  1  0.05118621  0.40572149  0.10641466  1
  H+  H331  1  0.10425288  0.69056019  0.09533941  1
  H+  H332  1  0.91991598  0.59353984  0.62173250  1
  H+  H333  1  0.65162553  0.31066748  0.91345965  1
  H+  H334  1  0.94061284  0.34953381  0.63142862  1
  H+  H335  1  0.68240470  0.15385906  0.61188666  1
  H+  H336  1  0.64778534  0.80888622  0.60848082  1
  H+  H337  1  0.96264515  0.42484258  0.38089507  1
  H+  H338  1  0.49726246  0.59547332  0.67046066  1
  H+  H339  1  0.15408043  0.88086076  0.83896133  1
  H+  H340  1  0.56197676  0.90559638  0.71395492  1
  H+  H341  1  0.87245409  0.67312526  0.31276628  1
  H+  H342  1  0.31152159  0.90231755  0.39336721  1
  H+  H343  1  0.15376486  0.09095608  0.59921162  1
  H+  H344  1  0.33668026  0.41984111  0.05272579  1
  H+  H345  1  0.52468962  0.63756863  0.48969741  1
  H+  H346  1  0.23695961  0.61219032  0.83052307  1
  H+  H347  1  0.91710000  0.30166157  0.26701624  1
  H+  H348  1  0.59662183  0.67739050  0.40254356  1
  H+  H349  1  0.69814314  0.33899938  0.60377223  1
  H+  H350  1  0.39247202  0.05992104  0.58439193  1
  H+  H351  1  0.07617045  0.16178494  0.08419183  1
  H+  H352  1  0.08129976  0.93710725  0.78277574  1
  H+  H353  1  0.31018938  0.66386165  0.05678882  1
  H+  H354  1  0.64350683  0.04031956  0.88524724  1
  H+  H355  1  0.59492731  0.42637769  0.46473099  1
  H+  H356  1  0.40440453  0.07961045  0.23639563  1
  H+  H357  1  0.94773552  0.61746439  0.93845995  1
  H+  H358  1  0.57080317  0.64858259  0.76429439  1
  H+  H359  1  0.19556440  0.33588133  0.55891373  1
  H+  H360  1  0.91401152  0.63726787  0.18658572  1
  H+  H361  1  0.15170492  0.08957334  0.22535592  1
  H+  H362  1  0.46677383  0.26070247  0.02616204  1
  H+  H363  1  0.44989475  0.63628756  0.91592653  1
  H+  H364  1  0.71225845  0.50333296  0.08344261  1
  H+  H365  1  0.41756964  0.07459584  0.94246448  1
  H+  H366  1  0.91764246  0.10393468  0.21044095  1
  H+  H367  1  0.14905171  0.31590274  0.22953494  1
  H+  H368  1  0.13501904  0.34504729  0.63816765  1
  H+  H369  1  0.74014612  0.16593852  0.14633623  1
  H+  H370  1  0.91305907  0.85845251  0.26180259  1
  H+  H371  1  0.18971894  0.30479213  0.90309094  1
  H+  H372  1  0.14896828  0.56399596  0.92916664  1
  H+  H373  1  0.63017278  0.60857339  0.83785938  1
  H+  H374  1  1.01267949  0.73752338  0.27577158  1
  H+  H375  1  0.05065587  0.18794693  0.31527091  1
  H+  H376  1  0.22605663  0.35922785  0.33066675  1
  H+  H377  1  0.89041441  0.87526800  0.16734037  1
  H+  H378  1  0.59070132  0.16927977  0.38506383  1
  H+  H379  1  0.67396831  0.59101510  0.58229521  1
  H+  H380  1  0.15471529  0.06885766  0.92463857  1
  H+  H381  1  0.37872652  0.20065330  0.10015706  1
  H+  H382  1  0.06844042  0.95110356  0.39130247  1
  H+  H383  1  0.84508238  0.40642904  0.78348808  1
  O2-  O384  1  0.07186007  0.16260355  0.13008066  1
  O2-  O385  1  0.08802163  0.18386397  0.46258761  1
  O2-  O386  1  0.08346758  0.13882035  0.81448477  1
  O2-  O387  1  0.05377489  0.40701318  0.15167172  1
  O2-  O388  1  0.08092368  0.41238360  0.49183407  1
  O2-  O389  1  0.08086028  0.38678188  0.84760805  1
  O2-  O390  1  0.08907033  0.68940704  0.14072505  1
  O2-  O391  1  0.06871929  0.64359235  0.48893961  1
  O2-  O392  1  0.09683336  0.68141176  0.81962693  1
  O2-  O393  1  0.08859089  0.92762477  0.14138875  1
  O2-  O394  1  0.06077255  0.93491563  0.47689436  1
  O2-  O395  1  0.08706354  0.93714017  0.82873047  1
  O2-  O396  1  0.37399389  0.19614289  0.14516077  1
  O2-  O397  1  0.32815607  0.16008626  0.48195997  1
  O2-  O398  1  0.29994036  0.06979517  0.79497817  1
  O2-  O399  1  0.31741384  0.41478319  0.13476512  1
  O2-  O400  1  0.32289937  0.43023221  0.45665235  1
  O2-  O401  1  0.33917744  0.44206190  0.81121392  1
  O2-  O402  1  0.30698143  0.67017858  0.13589120  1
  O2-  O403  1  0.33075315  0.67011540  0.47573091  1
  O2-  O404  1  0.34238705  0.67223519  0.80859398  1
  O2-  O405  1  0.32933672  0.93233540  0.15327346  1
  O2-  O406  1  0.31787354  0.90357552  0.47379224  1
  O2-  O407  1  0.33503533  0.90975994  0.79563942  1
  O2-  O408  1  0.65521942  0.18132304  0.14100324  1
  O2-  O409  1  0.62037446  0.18686576  0.46864150  1
  O2-  O410  1  0.57750396  0.16336467  0.81991008  1
  O2-  O411  1  0.62534838  0.36676702  0.21064384  1
  O2-  O412  1  0.60690425  0.42557768  0.50912838  1
  O2-  O413  1  0.59605744  0.41382295  0.81988302  1
  O2-  O414  1  0.66851438  0.66740409  0.13124055  1
  O2-  O415  1  0.58745794  0.66999845  0.47718708  1
  O2-  O416  1  0.59419415  0.67346537  0.80554609  1
  O2-  O417  1  0.58134806  0.90511567  0.12295866  1
  O2-  O418  1  0.59866087  0.94049829  0.50962769  1
  O2-  O419  1  0.57725927  0.91237803  0.78453215  1
  O2-  O420  1  0.78732223  0.15656241  0.16369366  1
  O2-  O421  1  0.82899420  0.13086362  0.46837578  1
  O2-  O422  1  0.82839781  0.15890707  0.81307298  1
  O2-  O423  1  0.84791296  0.46446144  0.08051366  1
  O2-  O424  1  0.86346868  0.43697889  0.49824384  1
  O2-  O425  1  0.85126344  0.40540804  0.82851716  1
  O2-  O426  1  0.82934091  0.69834135  0.08007746  1
  O2-  O427  1  0.83802564  0.67448575  0.50344861  1
  O2-  O428  1  0.81724517  0.71526631  0.82189231  1
  O2-  O429  1  0.82890150  0.91635074  0.13238298  1
  O2-  O430  1  0.82461748  0.90912079  0.48815407  1
  O2-  O431  1  0.84996692  0.92227569  0.83282952  1
  O2-  O432  1  0.14802007  0.08365289  0.17584015  1
  O2-  O433  1  0.16035109  0.09606367  0.51696547  1
  O2-  O434  1  0.14195942  0.02928139  0.84387045  1
  O2-  O435  1  0.15180833  0.32487397  0.18354015  1
  O2-  O436  1  0.18080416  0.34150424  0.51704759  1
  O2-  O437  1  0.17684863  0.30684046  0.86020796  1
  O2-  O438  1  0.14499327  0.58124843  0.18742032  1
  O2-  O439  1  0.16663644  0.58005961  0.53321008  1
  O2-  O440  1  0.17293493  0.57827397  0.83724983  1
  O2-  O441  1  0.16574024  0.84387810  0.19126261  1
  O2-  O442  1  0.09786301  0.80360288  0.44445214  1
  O2-  O443  1  0.18731880  0.85075368  0.84497086  1
  O2-  O444  1  0.40792929  0.07926101  0.19068067  1
  O2-  O445  1  0.37792700  0.05481409  0.51243882  1
  O2-  O446  1  0.41855125  0.07210771  0.86270498  1
  O2-  O447  1  0.42859160  0.37048718  0.18398741  1
  O2-  O448  1  0.45842124  0.28680369  0.56636944  1
  O2-  O449  1  0.41854616  0.35259529  0.82233596  1
  O2-  O450  1  0.38413314  0.57775065  0.17338963  1
  O2-  O451  1  0.42037539  0.58814814  0.51009410  1
  O2-  O452  1  0.47014806  0.67327200  0.87775757  1
  O2-  O453  1  0.40564648  0.84143726  0.17407697  1
  O2-  O454  1  0.41243827  0.83544907  0.51872234  1
  O2-  O455  1  0.41515558  0.83694089  0.83542550  1
  O2-  O456  1  0.62503148  0.11442974  0.25258330  1
  O2-  O457  1  0.69633294  0.10885125  0.53400845  1
  O2-  O458  1  0.65609032  0.06605576  0.84442936  1
  O2-  O459  1  0.75683451  0.35186802  0.16746530  1
  O2-  O460  1  0.69594634  0.34120981  0.52212713  1
  O2-  O461  1  0.64959636  0.31517622  0.86575497  1
  O2-  O462  1  0.60265236  0.51305649  0.20367334  1
  O2-  O463  1  0.67846657  0.59533814  0.53622301  1
  O2-  O464  1  0.66108572  0.57927749  0.85445959  1
  O2-  O465  1  0.66891436  0.81596220  0.18090189  1
  O2-  O466  1  0.66399930  0.82646635  0.53768410  1
  O2-  O467  1  0.68721390  0.84697228  0.78148419  1
  O2-  O468  1  0.90430107  0.08939375  0.16633555  1
  O2-  O469  1  0.92825424  0.07649980  0.52338990  1
  O2-  O470  1  0.92342893  0.08977825  0.86031699  1
  O2-  O471  1  0.89103789  0.32385847  0.20012234  1
  O2-  O472  1  0.93422588  0.34699389  0.55237353  1
  O2-  O473  1  0.90681440  0.31191240  0.87140753  1
  O2-  O474  1  0.91835149  0.63296289  0.14221798  1
  O2-  O475  1  0.91729547  0.59596142  0.54068670  1
  O2-  O476  1  0.93186243  0.57831590  0.85883982  1
  O2-  O477  1  0.92209666  0.85240905  0.19068878  1
  O2-  O478  1  0.90904429  0.83377874  0.53155059  1
  O2-  O479  1  0.92918253  0.84697529  0.89437250  1
  O2-  O480  1  0.16030774  0.10041875  0.28743128  1
  O2-  O481  1  0.15490978  0.08869562  0.64458333  1
  O2-  O482  1  0.15985585  0.08746560  0.96739342  1
  O2-  O483  1  0.14425915  0.30451035  0.30600914  1
  O2-  O484  1  0.15278856  0.33988402  0.67912046  1
  O2-  O485  1  0.15332059  0.33267574  1.02157551  1
  O2-  O486  1  0.14673194  0.56677689  0.31266001  1
  O2-  O487  1  0.16961270  0.58026179  0.66009731  1
  O2-  O488  1  0.14744041  0.55615638  0.97348509  1
  O2-  O489  1  0.13812256  0.84100497  0.32297104  1
  O2-  O490  1  0.15404843  0.84478291  0.66060873  1
  O2-  O491  1  0.26690270  0.86636207  0.96058302  1
  O2-  O492  1  0.39872391  0.06919430  0.31267545  1
  O2-  O493  1  0.39791525  0.06220519  0.63121052  1
  O2-  O494  1  0.41275922  0.07271277  0.98782394  1
  O2-  O495  1  0.38558977  0.32889929  0.30294822  1
  O2-  O496  1  0.41958863  0.31831395  0.70048756  1
  O2-  O497  1  0.39913600  0.32971579  0.94645554  1
  O2-  O498  1  0.37677698  0.57120367  0.30319102  1
  O2-  O499  1  0.40454265  0.56552482  0.63334966  1
  O2-  O500  1  0.42369397  0.59552850  0.98526024  1
  O2-  O501  1  0.40202881  0.82999546  0.29774155  1
  O2-  O502  1  0.40261795  0.82648841  0.63578445  1
  O2-  O503  1  0.39277262  0.81875597  0.95558026  1
  O2-  O504  1  0.68212153  0.08514576  0.26230086  1
  O2-  O505  1  0.67680232  0.17669051  0.65144146  1
  O2-  O506  1  0.64753609  0.02614662  1.03421291  1
  O2-  O507  1  0.55638823  0.31037998  0.32436562  1
  O2-  O508  1  0.69387429  0.33017698  0.64874065  1
  O2-  O509  1  0.65420200  0.30751316  0.98106014  1
  O2-  O510  1  0.66932137  0.59342682  0.31787475  1
  O2-  O511  1  0.66498140  0.56778189  0.65666009  1
  O2-  O512  1  0.65514891  0.56345467  0.97741988  1
  O2-  O513  1  0.65317604  0.81953261  0.30317876  1
  O2-  O514  1  0.62262601  0.79536893  0.65171198  1
  O2-  O515  1  0.67749578  0.81656823  0.96088554  1
  O2-  O516  1  0.94955009  0.14921203  0.28230690  1
  O2-  O517  1  0.92182795  0.09178214  0.65168339  1
  O2-  O518  1  0.91093501  0.07854496  0.98184054  1
  O2-  O519  1  0.93082064  0.28064988  0.30582002  1
  O2-  O520  1  0.93350295  0.34214428  0.67655014  1
  O2-  O521  1  0.89059526  0.30237696  0.98466024  1
  O2-  O522  1  0.96625419  0.67763883  0.27706598  1
  O2-  O523  1  0.92269897  0.59240208  0.66707203  1
  O2-  O524  1  0.96677828  0.65402731  0.97503407  1
  O2-  O525  1  0.90971398  0.85716057  0.30840444  1
  O2-  O526  1  0.91471134  0.83666153  0.65697898  1
  O2-  O527  1  0.93460800  0.84392694  0.96159225  1
  O2-  O528  1  0.08060624  0.16624086  0.00850753  1
  O2-  O529  1  0.11045743  0.21640810  0.33203838  1
  O2-  O530  1  0.07985167  0.17377260  0.69286630  1
  O2-  O531  1  0.04608329  0.39788458  0.02409440  1
  O2-  O532  1  0.04672140  0.41525753  0.37226684  1
  O2-  O533  1  0.09889219  0.42944878  0.73064219  1
  O2-  O534  1  0.11685607  0.68901576  0.02506589  1
  O2-  O535  1  0.02708985  0.60490444  0.36292775  1
  O2-  O536  1  0.09152381  0.67304006  0.69759651  1
  O2-  O537  1  0.10343306  0.92739353  0.01939674  1
  O2-  O538  1  0.07123003  0.94710971  0.34643258  1
  O2-  O539  1  0.07864318  0.93203985  0.70291307  1
  O2-  O540  1  0.40663894  0.21525109  0.02143713  1
  O2-  O541  1  0.37762530  0.19588045  0.36392169  1
  O2-  O542  1  0.32018142  0.14459685  0.68244436  1
  O2-  O543  1  0.33333372  0.42270958  0.00755434  1
  O2-  O544  1  0.29159276  0.40416698  0.34521920  1
  O2-  O545  1  0.31695537  0.41426778  0.68793654  1
  O2-  O546  1  0.31358875  0.65769261  0.01154714  1
  O2-  O547  1  0.31457851  0.66592605  0.34489185  1
  O2-  O548  1  0.34014717  0.66269902  0.68565736  1
  O2-  O549  1  0.25657398  0.92627762  0.00051543  1
  O2-  O550  1  0.30628898  0.90290016  0.34800063  1
  O2-  O551  1  0.32579242  0.91377451  0.68142664  1
  O2-  O552  1  0.58363427  0.14199713  0.02922720  1
  O2-  O553  1  0.56792679  0.16915026  0.34403916  1
  O2-  O554  1  0.53151253  0.06299962  0.70893041  1
  O2-  O555  1  0.56065217  0.38459233  -0.00551689  1
  O2-  O556  1  0.58444184  0.44492506  0.38926236  1
  O2-  O557  1  0.59866062  0.39701279  0.69692565  1
  O2-  O558  1  0.58703745  0.65755545  0.02245452  1
  O2-  O559  1  0.59889049  0.67650393  0.35622480  1
  O2-  O560  1  0.55695426  0.62635213  0.68849527  1
  O2-  O561  1  0.57987813  0.90397228  -0.05667460  1
  O2-  O562  1  0.58125440  0.91109502  0.31418415  1
  O2-  O563  1  0.55593939  0.89424986  0.66777712  1
  O2-  O564  1  0.81382633  0.14582185  0.03415692  1
  O2-  O565  1  0.78015051  0.17808220  0.35448797  1
  O2-  O566  1  0.85665161  0.18150314  0.69677213  1
  O2-  O567  1  0.81102907  0.46482978  0.02084133  1
  O2-  O568  1  0.91258271  0.43648627  0.38348209  1
  O2-  O569  1  0.84451254  0.41810885  0.70443024  1
  O2-  O570  1  0.82886643  0.67363978  0.01582982  1
  O2-  O571  1  0.83103456  0.68528835  0.33452582  1
  O2-  O572  1  0.83054446  0.67159382  0.70137934  1
  O2-  O573  1  0.83792842  0.90569114  0.00423817  1
  O2-  O574  1  0.80129767  0.90963574  0.36277182  1
  O2-  O575  1  0.85402941  0.93455258  0.70808005  1
