# generated using pymatgen
data_H2O
_symmetry_space_group_name_H-M   'P 1'
_cell_length_a   17.98543383
_cell_length_b   17.98452936
_cell_length_c   21.99266854
_cell_angle_alpha   90.01530642
_cell_angle_beta   89.99958441
_cell_angle_gamma   120.01808353
_symmetry_Int_Tables_number   1
_chemical_formula_structural   H2O
_chemical_formula_sum   'H384 O192'
_cell_volume   6159.55544560
_cell_formula_units_Z   192
loop_
 _symmetry_equiv_pos_site_id
 _symmetry_equiv_pos_as_xyz
  1  'x, y, z'
loop_
 _atom_type_symbol
 _atom_type_oxidation_number
  H+  1.0
  O2-  -2.0
loop_
 _atom_site_type_symbol
 _atom_site_label
 _atom_site_symmetry_multiplicity
 _atom_site_fract_x
 _atom_site_fract_y
 _atom_site_fract_z
 _atom_site_occupancy
  H+  H0  1  0.52848414  0.87633979  0.49230340  1
  H+  H1  1  0.47699021  0.75486399  0.28166355  1
  H+  H2  1  0.36109951  0.50738829  0.84356655  1
  H+  H3  1  0.89592257  0.63133977  0.51475855  1
  H+  H4  1  0.10280128  0.48101251  0.82909400  1
  H+  H5  1  0.34172920  0.46928135  0.16050952  1
  H+  H6  1  0.44591383  0.89508622  0.65916825  1
  H+  H7  1  0.63703492  1.01921264  0.67610169  1
  H+  H8  1  0.74325378  0.85868408  0.65931891  1
  H+  H9  1  0.47136200  0.37130380  1.00119316  1
  H+  H10  1  0.13070736  0.10156058  0.18404646  1
  H+  H11  1  0.81441162  0.29028947  0.25314393  1
  H+  H12  1  0.87328019  0.23292868  0.01405282  1
  H+  H13  1  0.37570994  0.59838488  0.33248971  1
  H+  H14  1  0.60638315  0.85838185  0.00960154  1
  H+  H15  1  0.13652661  0.64358244  0.18263661  1
  H+  H16  1  0.38573121  0.52601237  1.00290146  1
  H+  H17  1  0.89010160  0.36358318  0.65798519  1
  H+  H18  1  0.36804961  0.62588208  0.50917145  1
  H+  H19  1  0.11411311  0.88573626  0.68150141  1
  H+  H20  1  0.77690352  0.40591948  1.00827457  1
  H+  H21  1  0.87513653  0.74214338  0.49959242  1
  H+  H22  1  0.77942486  0.38346257  0.66715204  1
  H+  H23  1  0.88100414  0.52210296  0.83747748  1
  H+  H24  1  0.13873682  0.28299725  0.50062959  1
  H+  H25  1  0.34503905  0.50833240  0.47196436  1
  H+  H26  1  1.01275275  0.63617212  0.33911070  1
  H+  H27  1  0.57854604  0.45163991  0.07198279  1
  H+  H28  1  0.76956375  0.13709692  0.48764867  1
  H+  H29  1  0.63504823  0.62006885  0.48824593  1
  H+  H30  1  0.21981571  0.09877763  0.84359856  1
  H+  H31  1  0.38529176  0.27750135  0.99906313  1
  H+  H32  1  0.66975926  0.32386131  0.56966654  1
  H+  H33  1  0.98748624  0.62259922  0.17780783  1
  H+  H34  1  0.65408322  0.73767426  0.29120667  1
  H+  H35  1  0.86968413  0.87833513  0.83101569  1
  H+  H36  1  0.61488906  0.14455481  0.16372412  1
  H+  H37  1  0.73890195  0.98517930  0.27599738  1
  H+  H38  1  1.02476471  0.38731696  0.19019954  1
  H+  H39  1  0.35939095  0.21841699  0.83177833  1
  H+  H40  1  0.38803405  0.26700297  0.66856926  1
  H+  H41  1  0.00917212  0.36536204  0.01377205  1
  H+  H42  1  0.76734896  0.39333534  0.48736917  1
  H+  H43  1  0.12920737  0.62143502  0.84141063  1
  H+  H44  1  0.61174854  0.32980243  0.51882285  1
  H+  H45  1  0.06259477  0.24457671  0.28914186  1
  H+  H46  1  0.61175362  0.23464027  0.82341608  1
  H+  H47  1  0.10073699  0.90389191  0.11607004  1
  H+  H48  1  0.87447345  0.49061328  0.16018844  1
  H+  H49  1  0.23718483  0.38966957  0.65275499  1
  H+  H50  1  0.62837507  0.10831717  0.81168788  1
  H+  H51  1  -0.00239611  0.87707054  0.50739037  1
  H+  H52  1  0.88174057  0.26839009  0.51267891  1
  H+  H53  1  0.11488879  0.12742276  1.00620526  1
  H+  H54  1  0.37881940  1.02124976  -0.01463590  1
  H+  H55  1  0.73288481  0.37101832  0.17507551  1
  H+  H56  1  0.39430264  0.85520840  0.51021705  1
  H+  H57  1  0.20401498  0.86291932  0.86157936  1
  H+  H58  1  0.63408012  0.10655676  0.67283435  1
  H+  H59  1  0.88872189  0.61202158  0.66167666  1
  H+  H60  1  0.26277732  0.95391675  0.36974109  1
  H+  H61  1  0.22752748  0.63005196  -0.00196094  1
  H+  H62  1  0.07302312  0.89578461  0.38807362  1
  H+  H63  1  0.37976210  0.25209861  0.35785498  1
  H+  H64  1  0.76474430  0.38474306  0.82076917  1
  H+  H65  1  0.37893131  0.39477766  0.32652804  1
  H+  H66  1  0.14628260  0.01576418  0.99533372  1
  H+  H67  1  0.37319168  0.39473704  0.66758284  1
  H+  H68  1  0.86837819  0.73171228  0.00313611  1
  H+  H69  1  0.13173348  0.85626295  0.95096977  1
  H+  H70  1  0.63975153  0.91626906  0.33031495  1
  H+  H71  1  0.98216883  0.86093366  0.99187538  1
  H+  H72  1  0.64368009  0.10187181  0.50074655  1
  H+  H73  1  0.80782824  0.92248329  0.15712227  1
  H+  H74  1  0.06822981  0.41446714  0.43639819  1
  H+  H75  1  0.61198359  0.41093713  1.02059380  1
  H+  H76  1  0.50098766  0.40147836  0.30514377  1
  H+  H77  1  0.15004734  0.09366825  0.33557680  1
  H+  H78  1  0.37150728  0.51029568  0.31840673  1
  H+  H79  1  0.84782672  0.66651081  0.73541532  1
  H+  H80  1  0.24219521  0.86497382  0.67826820  1
  H+  H81  1  0.35715785  0.72331942  0.82923059  1
  H+  H82  1  0.86306059  0.39677904  0.33003677  1
  H+  H83  1  0.40607534  0.11406492  0.49512426  1
  H+  H84  1  0.12094148  -0.01914270  0.49002764  1
  H+  H85  1  0.27405555  0.13870473  0.00491146  1
  H+  H86  1  0.67088466  0.80977150  0.17654015  1
  H+  H87  1  1.03241732  0.12988570  0.68834588  1
  H+  H88  1  0.94428707  1.04998462  0.16563528  1
  H+  H89  1  0.58376011  0.41327553  0.38496405  1
  H+  H90  1  0.73447116  0.37424174  0.32476208  1
  H+  H91  1  0.35239524  0.70755498  0.15986495  1
  H+  H92  1  0.47777560  0.35307793  0.67664628  1
  H+  H93  1  0.20817471  0.34875789  0.16662869  1
  H+  H94  1  0.27381162  0.13864474  0.67529699  1
  H+  H95  1  0.87074771  0.73187435  0.82581150  1
  H+  H96  1  0.43156062  0.02673879  0.31243023  1
  H+  H97  1  0.85720938  0.38918745  0.82035970  1
  H+  H98  1  0.38294197  0.27568026  0.16629477  1
  H+  H99  1  0.11267278  0.39863085  0.83481162  1
  H+  H100  1  0.64387345  0.28130014  0.17705930  1
  H+  H101  1  0.52297999  0.65036378  0.68542556  1
  H+  H102  1  0.27808531  0.62493530  0.50682387  1
  H+  H103  1  0.86253402  0.14067704  0.82226807  1
  H+  H104  1  0.91945538  0.08206513  0.74333233  1
  H+  H105  1  0.89122964  0.62150853  0.99010080  1
  H+  H106  1  0.23843577  0.40444403  0.31079382  1
  H+  H107  1  0.14009342  0.61635556  0.66785292  1
  H+  H108  1  0.36220494  0.63630353  0.67232444  1
  H+  H109  1  0.12116921  0.65571550  0.01320297  1
  H+  H110  1  0.65491445  0.06793732  1.05251257  1
  H+  H111  1  0.36858233  0.88582644  0.16366207  1
  H+  H112  1  0.63736014  0.53841405  0.99598917  1
  H+  H113  1  0.87204842  0.98150377  0.00181256  1
  H+  H114  1  0.37859609  0.89930505  0.29566937  1
  H+  H115  1  0.89262779  0.01959985  0.82481756  1
  H+  H116  1  0.61957783  0.73230877  0.67966751  1
  H+  H117  1  0.74667112  0.61422847  0.66141396  1
  H+  H118  1  0.90382784  0.02441308  0.31955845  1
  H+  H119  1  0.11718256  0.71374224  0.09492273  1
  H+  H120  1  0.39639353  0.12805174  0.65745159  1
  H+  H121  1  0.13144884  0.52620369  0.33286583  1
  H+  H122  1  0.17719489  0.35678942  0.91076420  1
  H+  H123  1  0.98344371  0.86410896  0.17497108  1
  H+  H124  1  0.64671614  1.03100251  0.33011381  1
  H+  H125  1  0.64601593  0.77818597  0.98701466  1
  H+  H126  1  0.39416509  0.53623920  0.66557253  1
  H+  H127  1  0.21683000  0.87165998  0.32731462  1
  H+  H128  1  0.52000270  0.14371011  0.82436259  1
  H+  H129  1  0.11825570  0.40805258  0.33184941  1
  H+  H130  1  0.12635897  0.34672741  0.00204751  1
  H+  H131  1  0.88613680  0.90449337  0.15734409  1
  H+  H132  1  0.39373222  0.08476153  0.33285853  1
  H+  H133  1  0.64150089  0.51570934  0.32768941  1
  H+  H134  1  0.98734195  0.86813121  0.84071412  1
  H+  H135  1  0.64539645  0.30297426  1.00451254  1
  H+  H136  1  0.11403949  0.75013632  0.66308831  1
  H+  H137  1  0.01633140  0.64267913  0.83011029  1
  H+  H138  1  0.10183837  0.16151121  0.73935315  1
  H+  H139  1  0.95671115  0.09173696  0.26591107  1
  H+  H140  1  0.63373373  0.24029153  0.33802003  1
  H+  H141  1  0.04249165  0.11564031  0.34579011  1
  H+  H142  1  0.51251931  0.62420897  0.50824372  1
  H+  H143  1  0.73714112  0.86936813  0.99109843  1
  H+  H144  1  0.88782887  0.13959573  0.32527250  1
  H+  H145  1  0.76417406  0.12934006  0.67667692  1
  H+  H146  1  0.62817383  0.74011033  0.83131955  1
  H+  H147  1  0.52536159  0.14411865  0.16122209  1
  H+  H148  1  0.02160835  0.61997517  0.68370014  1
  H+  H149  1  0.38061939  0.02196645  0.83659229  1
  H+  H150  1  0.38751403  0.22080122  0.50464359  1
  H+  H151  1  0.10236237  0.72222737  0.34074378  1
  H+  H152  1  0.24074997  0.62456126  0.66214704  1
  H+  H153  1  0.78312025  0.15154630  0.16893775  1
  H+  H154  1  0.36390437  0.38035599  0.53102388  1
  H+  H155  1  0.87376248  0.65227867  0.15562868  1
  H+  H156  1  0.36263392  0.13976919  0.15937211  1
  H+  H157  1  0.02088807  0.38387424  0.32908694  1
  H+  H158  1  0.64007555  0.03135344  0.17101805  1
  H+  H159  1  0.14012692  0.11003087  0.66339459  1
  H+  H160  1  0.85053734  0.87878622  0.46047239  1
  H+  H161  1  0.48232765  0.86673595  0.17113679  1
  H+  H162  1  0.26915670  0.62834866  0.35139327  1
  H+  H163  1  0.46376406  0.84544383  0.99170676  1
  H+  H164  1  0.86529677  0.63912556  0.82733078  1
  H+  H165  1  0.49590610  0.34614591  0.51458954  1
  H+  H166  1  0.32543444  0.66342176  0.76987006  1
  H+  H167  1  0.53936329  0.88062295  0.33720743  1
  H+  H168  1  0.65748312  0.12487396  0.32872030  1
  H+  H169  1  0.12872985  0.77600203  0.23772724  1
  H+  H170  1  0.49534623  0.11523454  0.49925443  1
  H+  H171  1  0.88125257  0.27585892  0.83882378  1
  H+  H172  1  0.62556714  0.22170069  0.49520610  1
  H+  H173  1  0.21462916  0.38217518  0.49019762  1
  H+  H174  1  0.54713300  0.14927426  0.33769067  1
  H+  H175  1  0.40271605  0.74012026  0.32560766  1
  H+  H176  1  0.63882775  0.86137047  0.83988158  1
  H+  H177  1  0.23866263  0.44166747  0.87454990  1
  H+  H178  1  0.90070312  0.25084320  0.28981042  1
  H+  H179  1  0.95779524  0.85171016  0.31868679  1
  H+  H180  1  0.36908803  0.37603511  0.82605078  1
  H+  H181  1  0.36036982  0.88646274  0.00280009  1
  H+  H182  1  0.27665314  0.87514594  0.15315043  1
  H+  H183  1  0.62751247  0.38814314  0.32841127  1
  H+  H184  1  0.12571564  0.00598861  0.84594902  1
  H+  H185  1  0.90790721  0.33205365  0.93390322  1
  H+  H186  1  0.12059633  0.12591113  0.83923968  1
  H+  H187  1  0.85399806  0.72866117  0.33278205  1
  H+  H188  1  0.34401983  0.23568543  0.33481117  1
  H+  H189  1  0.13469534  0.00034907  0.32118152  1
  H+  H190  1  0.13716614  0.61676064  0.33139757  1
  H+  H191  1  0.88504958  0.10787018  0.68632128  1
  H+  H192  1  0.46964732  0.85545614  0.83918798  1
  H+  H193  1  0.73253746  0.61870203  0.83717682  1
  H+  H194  1  0.88224046  0.61834712  0.32534849  1
  H+  H195  1  0.23633353  0.86298868  0.49693701  1
  H+  H196  1  0.11577988  0.72414585  0.48744964  1
  H+  H197  1  0.33110579  0.16582074  0.73672871  1
  H+  H198  1  0.41066439  0.52256892  0.54117637  1
  H+  H199  1  0.42533931  0.59785934  0.60682257  1
  H+  H200  1  0.89603289  0.86872101  0.99265552  1
  H+  H201  1  0.62802953  0.87337038  0.67247580  1
  H+  H202  1  0.32530182  0.65978781  0.07506851  1
  H+  H203  1  0.03079498  0.89220148  0.68367704  1
  H+  H204  1  0.64385712  0.26431541  0.66143806  1
  H+  H205  1  0.84008564  0.42793354  0.06472016  1
  H+  H206  1  0.88875800  0.12242782  0.47005018  1
  H+  H207  1  0.62688148  0.64496098  0.82649497  1
  H+  H208  1  0.83879305  0.67958241  0.39755223  1
  H+  H209  1  0.03132284  0.65432988  0.01740155  1
  H+  H210  1  0.88506392  1.03220335  0.46342705  1
  H+  H211  1  0.35842716  0.38895357  0.01075651  1
  H+  H212  1  0.22564237  0.11429711  0.51202207  1
  H+  H213  1  0.74547271  0.13218627  1.02394180  1
  H+  H214  1  0.38344455  -0.01940862  0.49691237  1
  H+  H215  1  0.48110173  0.35740374  0.85198660  1
  H+  H216  1  0.21592247  0.61716369  0.83955177  1
  H+  H217  1  0.64395196  0.18042658  1.01898477  1
  H+  H218  1  0.23865915  0.61144504  0.17053173  1
  H+  H219  1  -0.01622133  0.62364340  0.51318626  1
  H+  H220  1  0.28435542  0.33166775  0.35353396  1
  H+  H221  1  0.78617167  0.65228221  0.49290595  1
  H+  H222  1  0.41046609  0.08170454  0.89585798  1
  H+  H223  1  0.63654364  0.85220620  0.50583340  1
  H+  H224  1  0.85556058  0.21871884  0.67043825  1
  H+  H225  1  0.53400655  0.86066578  0.67116404  1
  H+  H226  1  0.64361697  0.52866652  0.84481862  1
  H+  H227  1  0.98113442  0.10715877  0.99711912  1
  H+  H228  1  0.88022538  0.72687017  0.67570941  1
  H+  H229  1  0.28143365  0.37860363  0.82360456  1
  H+  H230  1  0.64062250  0.71842819  0.26001679  1
  H+  H231  1  0.50076929  0.59615908  0.34802542  1
  H+  H232  1  0.59331274  0.48615795  0.47399794  1
  H+  H233  1  0.35864266  0.63581565  0.01364622  1
  H+  H234  1  0.12291415  0.89229748  0.48330590  1
  H+  H235  1  0.37276698  0.76322199  0.99509493  1
  H+  H236  1  0.96981187  0.36536198  0.84098177  1
  H+  H237  1  0.32376515  0.85571732  0.68163899  1
  H+  H238  1  0.02734779  0.14339396  0.47927660  1
  H+  H239  1  0.72616808  0.61825346  0.33485505  1
  H+  H240  1  0.36079910  0.72595358  0.67462346  1
  H+  H241  1  0.39028623  0.76320015  0.51422847  1
  H+  H242  1  0.72349594  0.85247123  0.49625320  1
  H+  H243  1  0.89119788  0.77758995  0.16561777  1
  H+  H244  1  0.25880060  0.07060962  0.35044845  1
  H+  H245  1  0.09954802  0.23693657  0.28683733  1
  H+  H246  1  0.77819347  0.91813492  0.31516083  1
  H+  H247  1  0.88103968  0.36475793  0.99307662  1
  H+  H248  1  0.10277564  0.38399766  0.49307194  1
  H+  H249  1  0.61640893  0.59512387  0.34276519  1
  H+  H250  1  0.41638056  0.91486056  0.31705756  1
  H+  H251  1  0.62495582  0.38363655  0.84547906  1
  H+  H252  1  0.11161254  0.13970244  0.50154417  1
  H+  H253  1  0.08651287  0.86082403  0.32314579  1
  H+  H254  1  0.88131518  0.51394843  0.65560195  1
  H+  H255  1  0.13381232  0.80571780  0.60202785  1
  H+  H256  1  0.36730902  0.60596903  0.16638631  1
  H+  H257  1  0.88503503  0.53025863  0.32521847  1
  H+  H258  1  0.64824428  1.01545145  0.49842506  1
  H+  H259  1  0.10876366  0.47495556  0.17156834  1
  H+  H260  1  0.65297111  0.48517072  0.68592824  1
  H+  H261  1  0.97609290  0.35965004  0.51245232  1
  H+  H262  1  0.89421227  0.53420566  0.99235684  1
  H+  H263  1  0.65416815  0.35891939  0.66270119  1
  H+  H264  1  0.85375242  0.48281394  0.48926629  1
  H+  H265  1  0.12317144  0.21708843  0.84033567  1
  H+  H266  1  1.10732505  0.39076160  0.67386002  1
  H+  H267  1  0.71666816  0.10736776  0.81537845  1
  H+  H268  1  0.49195273  0.58392389  0.15400793  1
  H+  H269  1  0.50098138  0.44066330  0.44547952  1
  H+  H270  1  0.60669936  -0.03330828  0.81630533  1
  H+  H271  1  0.38060891  0.11109496  0.98547138  1
  H+  H272  1  0.12279712  0.97276748  0.16841779  1
  H+  H273  1  0.22188291  0.36007942  0.99961412  1
  H+  H274  1  0.34828778  0.35226685  0.50323031  1
  H+  H275  1  0.86995360  0.97162031  0.68826854  1
  H+  H276  1  0.52901913  0.14663291  0.67061864  1
  H+  H277  1  0.12787348  0.86024457  0.22409012  1
  H+  H278  1  0.34106895  0.58557002  0.84734728  1
  H+  H279  1  0.13327633  0.60688202  0.51118550  1
  H+  H280  1  0.30573858  0.90078943  0.77745866  1
  H+  H281  1  0.85009507  0.88306959  0.32157779  1
  H+  H282  1  0.92469430  0.89606339  0.52950572  1
  H+  H283  1  0.11713102  0.86943309  0.85313305  1
  H+  H284  1  0.14439332  0.02280634  0.66295368  1
  H+  H285  1  0.10141323  0.73554696  0.83576124  1
  H+  H286  1  0.12735885  0.51529451  0.51331900  1
  H+  H287  1  0.87247900  0.40185025  0.16468573  1
  H+  H288  1  0.68265549  0.82823412  0.59866735  1
  H+  H289  1  0.57900832  0.90950403  0.10091410  1
  H+  H290  1  0.42950723  0.10159673  0.59809506  1
  H+  H291  1  0.17960823  0.58287537  0.23451958  1
  H+  H292  1  0.43245274  0.37237849  0.24992705  1
  H+  H293  1  0.36007421  0.12986350  0.82725341  1
  H+  H294  1  0.40298980  0.57646849  0.22619636  1
  H+  H295  1  0.42134973  0.83425975  0.60028043  1
  H+  H296  1  0.58810554  0.90680563  0.43198642  1
  H+  H297  1  0.83264434  0.17256680  0.76591395  1
  H+  H298  1  0.46286733  0.37442876  0.16227546  1
  H+  H299  1  0.27336164  0.13873058  0.16109949  1
  H+  H300  1  0.42347166  0.82131683  0.22811902  1
  H+  H301  1  0.67973963  0.57447950  0.60719122  1
  H+  H302  1  0.69223230  0.44864728  0.73300546  1
  H+  H303  1  0.91964312  0.32835155  0.58456472  1
  H+  H304  1  0.16841481  0.07327213  0.93535653  1
  H+  H305  1  0.42159258  0.08755984  0.22832922  1
  H+  H306  1  0.60514613  0.03796780  0.94334480  1
  H+  H307  1  0.91812861  0.58711548  0.58895958  1
  H+  H308  1  0.77780793  0.64401579  0.00492759  1
  H+  H309  1  0.59611749  0.02983153  0.90982144  1
  H+  H310  1  0.68305408  0.59970762  0.43672020  1
  H+  H311  1  0.98082160  0.36007035  0.66434163  1
  H+  H312  1  0.89512858  0.11106005  1.00179738  1
  H+  H313  1  0.83081338  0.19018051  0.43019723  1
  H+  H314  1  0.61545234  0.64951295  0.00175172  1
  H+  H315  1  0.17598279  0.36201451  0.59455405  1
  H+  H316  1  0.11984712  0.34979833  0.16936564  1
  H+  H317  1  0.83597469  0.42025626  0.72882262  1
  H+  H318  1  0.17671291  0.37412818  0.25367573  1
  H+  H319  1  0.81883052  0.91341838  0.40722243  1
  H+  H320  1  0.89402766  0.86075187  0.66933533  1
  H+  H321  1  0.65997747  0.36414040  0.94609827  1
  H+  H322  1  0.84743371  0.92346746  0.06101099  1
  H+  H323  1  0.58360562  0.17439149  0.73336003  1
  H+  H324  1  0.70022037  0.88884779  0.22664267  1
  H+  H325  1  0.08133961  0.66391376  0.74308450  1
  H+  H326  1  0.19019117  0.84564664  0.43605151  1
  H+  H327  1  0.55746822  0.62852944  0.41177926  1
  H+  H328  1  0.79717606  0.13939703  0.32348027  1
  H+  H329  1  0.84220149  0.67931496  0.09685912  1
  H+  H330  1  0.90521172  0.82423404  0.25616254  1
  H+  H331  1  0.92778542  0.02696578  0.56513787  1
  H+  H332  1  0.67625497  0.33981129  0.26274273  1
  H+  H333  1  0.60577557  0.71662935  0.49730060  1
  H+  H334  1  0.34146115  0.92314094  0.06216422  1
  H+  H335  1  0.85663719  0.18346402  0.07790410  1
  H+  H336  1  0.34281779  0.41750288  0.72871594  1
  H+  H337  1  0.77974993  0.88047464  0.83089499  1
  H+  H338  1  0.87760696  0.22567505  0.18633780  1
  H+  H339  1  0.06125416  0.38892950  0.07599263  1
  H+  H340  1  0.60145028  0.17083149  0.43196104  1
  H+  H341  1  0.91346313  0.58221789  0.89840875  1
  H+  H342  1  0.39557638  0.57387743  0.94144978  1
  H+  H343  1  0.67383013  0.83688089  0.90038099  1
  H+  H344  1  0.34622026  0.88003174  0.83402775  1
  H+  H345  1  0.57894055  0.89359882  0.76809176  1
  H+  H346  1  0.40873275  0.82423953  0.89821834  1
  H+  H347  1  0.83751101  0.42382899  0.39533957  1
  H+  H348  1  0.83635400  0.90112695  0.73920645  1
  H+  H349  1  0.33298363  0.21254090  0.44691334  1
  H+  H350  1  0.06838597  0.40562799  0.73647842  1
  H+  H351  1  0.60179218  0.20448301  0.07186802  1
  H+  H352  1  0.32366202  0.41582000  0.06951197  1
  H+  H353  1  0.10083262  0.14995421  0.40562402  1
  H+  H354  1  0.52699694  0.79259884  0.04696909  1
  H+  H355  1  0.66895385  0.08664513  0.23261094  1
  H+  H356  1  0.16683387  0.60375982  0.93936103  1
  H+  H357  1  0.98240736  0.10954085  0.82703051  1
  H+  H358  1  0.67216772  0.59472011  0.93509506  1
  H+  H359  1  0.91917434  0.82995864  0.89752268  1
  H+  H360  1  0.41454112  0.33050439  0.90655149  1
  H+  H361  1  0.16605742  0.07789784  0.57098992  1
  H+  H362  1  0.34453146  0.38113633  0.15892894  1
  H+  H363  1  0.93734902  0.05544552  0.59250454  1
  H+  H364  1  0.59162994  0.67942706  0.76284202  1
  H+  H365  1  0.17477200  0.07669474  0.23752220  1
  H+  H366  1  0.31836755  0.44220366  0.41661099  1
  H+  H367  1  0.16684707  0.58586396  0.60094570  1
  H+  H368  1  0.33170118  0.65249430  0.41020435  1
  H+  H369  1  0.69054263  0.31245423  0.88652465  1
  H+  H370  1  0.34909523  0.91549902  0.44145065  1
  H+  H371  1  0.52537462  0.64691785  0.99880129  1
  H+  H372  1  0.07202474  0.65555864  0.43618245  1
  H+  H373  1  0.08443683  0.91854031  0.78334959  1
  H+  H374  1  0.45756638  0.30723744  0.58022551  1
  H+  H375  1  0.11487719  0.21573331  0.00494915  1
  H+  H376  1  0.38612627  0.02477108  0.17115447  1
  H+  H377  1  0.33336330  0.16955430  0.06417874  1
  H+  H378  1  0.59095033  0.41379963  0.78949230  1
  H+  H379  1  0.62688454  0.90336605  0.15858450  1
  H+  H380  1  0.91936618  0.59177282  0.23056740  1
  H+  H381  1  0.93127634  0.83572102  0.61102576  1
  H+  H382  1  0.08908158  0.20775744  0.17323438  1
  H+  H383  1  0.31651600  0.09538101  0.41169038  1
  O2-  O384  1  0.06493528  0.14405763  0.16672628  1
  O2-  O385  1  0.09208611  0.17538604  0.48013876  1
  O2-  O386  1  0.09343065  0.16018813  0.82207413  1
  O2-  O387  1  0.07184817  0.41241873  0.16087757  1
  O2-  O388  1  0.06971387  0.41459259  0.48169309  1
  O2-  O389  1  0.07566431  0.41942749  0.81616627  1
  O2-  O390  1  0.10619881  0.68055529  0.18480258  1
  O2-  O391  1  0.07786315  0.66068630  0.48163429  1
  O2-  O392  1  0.07722460  0.67761215  0.81538201  1
  O2-  O393  1  0.09483409  0.90965534  0.16017853  1
  O2-  O394  1  0.08901062  0.92064349  0.47298218  1
  O2-  O395  1  0.07788669  0.91759608  0.82771511  1
  O2-  O396  1  0.33322275  0.17107353  0.14499087  1
  O2-  O397  1  0.33802211  0.17673463  0.47820752  1
  O2-  O398  1  0.32801602  0.16014658  0.81336599  1
  O2-  O399  1  0.31069636  0.40828165  0.14492983  1
  O2-  O400  1  0.29583567  0.46219970  0.44997714  1
  O2-  O401  1  0.33979867  0.40472576  0.80588746  1
  O2-  O402  1  0.32080511  0.64757433  0.14637327  1
  O2-  O403  1  0.33822724  0.65661533  0.49248163  1
  O2-  O404  1  0.32245082  0.66188559  0.81468788  1
  O2-  O405  1  0.33802586  0.91681310  0.14967083  1
  O2-  O406  1  0.35065911  0.91730004  0.48587524  1
  O2-  O407  1  0.31371226  0.90894972  0.82228712  1
  O2-  O408  1  0.58747539  0.17844151  0.15085037  1
  O2-  O409  1  0.59506361  0.16281059  0.47709295  1
  O2-  O410  1  0.57936383  0.17380005  0.80706955  1
  O2-  O411  1  0.56535805  0.46826220  0.15385359  1
  O2-  O412  1  0.54558496  0.42904116  0.45977232  1
  O2-  O413  1  0.59233663  0.41589715  0.83427795  1
  O2-  O414  1  0.54361312  0.58457481  0.13431999  1
  O2-  O415  1  0.57397030  0.65431747  0.48609902  1
  O2-  O416  1  0.59799859  0.67853793  0.81281223  1
  O2-  O417  1  0.58879203  0.92637852  0.14473147  1
  O2-  O418  1  0.58871308  0.90453089  0.47759659  1
  O2-  O419  1  0.57813578  0.90173847  0.81295403  1
  O2-  O420  1  0.84438542  0.18034788  0.15670336  1
  O2-  O421  1  0.83216245  0.18113941  0.47400499  1
  O2-  O422  1  0.83259087  0.17272359  0.81165256  1
  O2-  O423  1  0.84314182  0.42910098  0.14567441  1
  O2-  O424  1  0.82547734  0.42644892  0.46945139  1
  O2-  O425  1  0.82743634  0.41883922  0.80290394  1
  O2-  O426  1  0.84540462  0.68433063  0.14216890  1
  O2-  O427  1  0.84917803  0.68208137  0.48442645  1
  O2-  O428  1  0.83769858  0.67072898  0.80911296  1
  O2-  O429  1  0.86781322  0.94557310  0.14236936  1
  O2-  O430  1  0.81888704  0.90896086  0.45414675  1
  O2-  O431  1  0.83887595  0.90842613  0.81390839  1
  O2-  O432  1  0.16963365  0.07812999  0.19231361  1
  O2-  O433  1  0.16512634  0.07848319  0.52461384  1
  O2-  O434  1  0.16087882  0.07173714  0.86083340  1
  O2-  O435  1  0.14836174  0.31768851  0.18397841  1
  O2-  O436  1  0.16062108  0.34389647  0.51320139  1
  O2-  O437  1  0.19209785  0.38132041  0.86785696  1
  O2-  O438  1  0.17320670  0.58285480  0.18988440  1
  O2-  O439  1  0.16001811  0.57555826  0.53005080  1
  O2-  O440  1  0.15549436  0.58670514  0.85443299  1
  O2-  O441  1  0.14765492  0.74475250  0.13656864  1
  O2-  O442  1  0.17661460  0.83424321  0.48061516  1
  O2-  O443  1  0.14284209  0.83394201  0.87397628  1
  O2-  O444  1  0.41649117  0.08663759  0.18342924  1
  O2-  O445  1  0.43306231  0.08361702  0.51306336  1
  O2-  O446  1  0.41305685  0.08346514  0.84907657  1
  O2-  O447  1  0.40457524  0.33649435  0.17939286  1
  O2-  O448  1  0.47290475  0.29330265  0.53961066  1
  O2-  O449  1  0.41836450  0.32781568  0.86104822  1
  O2-  O450  1  0.39893563  0.57198890  0.18150890  1
  O2-  O451  1  0.42690184  0.58229382  0.53405688  1
  O2-  O452  1  0.34407708  0.53984117  0.87107157  1
  O2-  O453  1  0.42120597  0.83449439  0.18477993  1
  O2-  O454  1  0.42319110  0.82489073  0.52746986  1
  O2-  O455  1  0.40830845  0.82513687  0.85250002  1
  O2-  O456  1  0.66893371  0.09128434  0.18741937  1
  O2-  O457  1  0.68051868  0.07695178  0.51023568  1
  O2-  O458  1  0.65391144  0.07061887  0.80951062  1
  O2-  O459  1  0.67588065  0.34029972  0.19480444  1
  O2-  O460  1  0.66272234  0.32407788  0.52390093  1
  O2-  O461  1  0.67579213  0.33488407  0.85110150  1
  O2-  O462  1  0.56277625  0.53318331  0.17890177  1
  O2-  O463  1  0.67407275  0.59294354  0.48063864  1
  O2-  O464  1  0.67194440  0.59201043  0.85235555  1
  O2-  O465  1  0.69648190  0.87186690  0.17935219  1
  O2-  O466  1  0.66856411  0.82257099  0.51950715  1
  O2-  O467  1  0.67088439  0.83182170  0.85422108  1
  O2-  O468  1  0.97694464  0.10545173  0.18900873  1
  O2-  O469  1  0.92354589  0.09478293  0.46195976  1
  O2-  O470  1  0.91968656  0.08284670  0.81865727  1
  O2-  O471  1  0.92918574  0.30364074  0.25868250  1
  O2-  O472  1  0.91742751  0.32710480  0.53286243  1
  O2-  O473  1  0.90829496  0.33653395  0.85403957  1
  O2-  O474  1  0.92468689  0.59155917  0.18549343  1
  O2-  O475  1  0.92320738  0.59754603  0.53077486  1
  O2-  O476  1  0.91180113  0.58279170  0.85244808  1
  O2-  O477  1  0.92122471  0.83805799  0.18487760  1
  O2-  O478  1  0.93806316  0.84980633  0.52685176  1
  O2-  O479  1  0.92028515  0.83032751  0.85212192  1
  O2-  O480  1  0.17837498  0.06196187  0.31536593  1
  O2-  O481  1  0.17226052  0.08182737  0.64480605  1
  O2-  O482  1  0.17277305  0.07628349  0.98119480  1
  O2-  O483  1  0.19416808  0.41193747  0.29037115  1
  O2-  O484  1  0.17940913  0.37489214  0.63847956  1
  O2-  O485  1  0.16323897  0.32645623  0.98137081  1
  O2-  O486  1  0.16940240  0.58733569  0.32065144  1
  O2-  O487  1  0.17559368  0.59379039  0.64740534  1
  O2-  O488  1  0.16785295  0.60985611  0.98397714  1
  O2-  O489  1  0.13596259  0.82838461  0.25804089  1
  O2-  O490  1  0.13745196  0.80952391  0.64613044  1
  O2-  O491  1  0.13580659  0.86315555  0.99708113  1
  O2-  O492  1  0.44162183  0.08535618  0.30885198  1
  O2-  O493  1  0.43290973  0.10491799  0.64270964  1
  O2-  O494  1  0.40649211  0.07961992  0.96639715  1
  O2-  O495  1  0.45031118  0.40328899  0.28979998  1
  O2-  O496  1  0.42649771  0.32748588  0.65117128  1
  O2-  O497  1  0.41239040  0.33839995  0.98372526  1
  O2-  O498  1  0.40756034  0.57237498  0.31235934  1
  O2-  O499  1  0.42016412  0.59807708  0.65335422  1
  O2-  O500  1  0.41377083  0.58511422  0.98480311  1
  O2-  O501  1  0.44964240  0.78481266  0.29947540  1
  O2-  O502  1  0.41980290  0.83511666  0.64662361  1
  O2-  O503  1  0.40505199  0.82176300  0.97518453  1
  O2-  O504  1  0.68198086  0.08977275  0.31225861  1
  O2-  O505  1  0.66616036  0.07773051  0.65945876  1
  O2-  O506  1  0.68160734  0.10823641  1.01926226  1
  O2-  O507  1  0.67389982  0.33953372  0.31016875  1
  O2-  O508  1  0.67849567  0.32570635  0.64341959  1
  O2-  O509  1  0.66907899  0.36619299  0.99017919  1
  O2-  O510  1  0.66339963  0.58109877  0.32239953  1
  O2-  O511  1  0.68484367  0.57590128  0.65125236  1
  O2-  O512  1  0.67351445  0.59833348  0.98010621  1
  O2-  O513  1  0.71103728  0.92423246  0.28583686  1
  O2-  O514  1  0.68240587  0.82794364  0.64413954  1
  O2-  O515  1  0.67733433  0.84128417  0.97377026  1
  O2-  O516  1  0.94197646  0.08713023  0.31000253  1
  O2-  O517  1  0.91761204  0.07822324  0.69744438  1
  O2-  O518  1  0.91945684  0.07767161  0.98342187  1
  O2-  O519  1  0.87157757  0.34047903  0.25991073  1
  O2-  O520  1  0.91801681  0.33077208  0.64354222  1
  O2-  O521  1  0.90788152  0.33082388  0.97931306  1
  O2-  O522  1  0.91564285  0.59146843  0.31059510  1
  O2-  O523  1  0.91452224  0.57776043  0.64101752  1
  O2-  O524  1  0.92332020  0.59306090  0.97442986  1
  O2-  O525  1  0.89811723  0.82079936  0.30248366  1
  O2-  O526  1  0.92579611  0.83010494  0.65568601  1
  O2-  O527  1  0.92173881  0.83386060  0.97727656  1
  O2-  O528  1  0.08323479  0.15607030  0.02056827  1
  O2-  O529  1  0.10033653  0.13288024  0.36245189  1
  O2-  O530  1  0.09530275  0.15648234  0.69454616  1
  O2-  O531  1  0.06554638  0.38128880  0.03216591  1
  O2-  O532  1  0.07317590  0.41706141  0.35330381  1
  O2-  O533  1  0.06318303  0.40345824  0.69130973  1
  O2-  O534  1  0.09036783  0.68360943  0.03352125  1
  O2-  O535  1  0.07242826  0.66437452  0.35772124  1
  O2-  O536  1  0.08187457  0.65453914  0.69700816  1
  O2-  O537  1  0.09227024  0.90350913  0.01643485  1
  O2-  O538  1  0.06363033  0.89411847  0.34354716  1
  O2-  O539  1  0.09239596  0.92340216  0.69570537  1
  O2-  O540  1  0.33538633  0.17355084  0.01904473  1
  O2-  O541  1  0.30568534  0.06465855  0.37280879  1
  O2-  O542  1  0.33424608  0.17124481  0.69101381  1
  O2-  O543  1  0.32774926  0.41971441  0.02391704  1
  O2-  O544  1  0.32666613  0.39248935  0.34968980  1
  O2-  O545  1  0.34714992  0.42784028  0.68373457  1
  O2-  O546  1  0.33029240  0.66790338  0.02851468  1
  O2-  O547  1  0.33023411  0.65181203  0.36494979  1
  O2-  O548  1  0.32691516  0.66444989  0.68574858  1
  O2-  O549  1  0.33674279  0.92243474  0.01763355  1
  O2-  O550  1  0.24049995  0.89081240  0.36847879  1
  O2-  O551  1  0.29868570  0.88852638  0.69834401  1
  O2-  O552  1  0.61515482  0.21437224  0.02788301  1
  O2-  O553  1  0.60674588  0.17964657  0.35391925  1
  O2-  O554  1  0.58940314  0.17338262  0.68756691  1
  O2-  O555  1  0.57737678  0.43965780  0.02801469  1
  O2-  O556  1  0.59791287  0.42226608  0.34121860  1
  O2-  O557  1  0.64012591  0.43138682  0.70935650  1
  O2-  O558  1  0.58713446  0.68401826  0.00923809  1
  O2-  O559  1  0.55252327  0.60306895  0.37029990  1
  O2-  O560  1  0.58270017  0.67722819  0.70191962  1
  O2-  O561  1  0.55544679  0.85239701  0.03354823  1
  O2-  O562  1  0.59501403  0.92342525  0.35520423  1
  O2-  O563  1  0.59073506  0.89491009  0.69003452  1
  O2-  O564  1  0.84943414  0.17499286  0.03307158  1
  O2-  O565  1  0.85977385  0.17573915  0.33163844  1
  O2-  O566  1  0.82749222  0.16133527  0.68944656  1
  O2-  O567  1  0.83839757  0.42846923  0.01956046  1
  O2-  O568  1  0.83824500  0.42885536  0.34951035  1
  O2-  O569  1  0.84012623  0.42219345  0.68228644  1
  O2-  O570  1  0.83901443  0.67105478  0.01852413  1
  O2-  O571  1  0.82597340  0.66960524  0.35354908  1
  O2-  O572  1  0.85157716  0.66489395  0.68912613  1
  O2-  O573  1  0.84119377  0.91825146  0.01608002  1
  O2-  O574  1  0.83291421  0.92351269  0.33845776  1
  O2-  O575  1  0.84116728  0.90713881  0.69329365  1
