# generated using pymatgen
data_H2O
_symmetry_space_group_name_H-M   'P 1'
_cell_length_a   17.98827013
_cell_length_b   18.00089780
_cell_length_c   22.00295882
_cell_angle_alpha   89.98539846
_cell_angle_beta   89.99795596
_cell_angle_gamma   119.99042598
_symmetry_Int_Tables_number   1
_chemical_formula_structural   H2O
_chemical_formula_sum   'H384 O192'
_cell_volume   6170.73865052
_cell_formula_units_Z   192
loop_
 _symmetry_equiv_pos_site_id
 _symmetry_equiv_pos_as_xyz
  1  'x, y, z'
loop_
 _atom_type_symbol
 _atom_type_oxidation_number
  H+  1.0
  O2-  -2.0
loop_
 _atom_site_type_symbol
 _atom_site_label
 _atom_site_symmetry_multiplicity
 _atom_site_fract_x
 _atom_site_fract_y
 _atom_site_fract_z
 _atom_site_occupancy
  H+  H0  1  0.66387471  0.59879024  0.57254933  1
  H+  H1  1  0.50087408  0.42019815  0.48744055  1
  H+  H2  1  0.62843928  0.53375983  0.32766101  1
  H+  H3  1  0.13142123  0.31392893  0.16598996  1
  H+  H4  1  0.89761569  0.75158060  0.17354713  1
  H+  H5  1  0.13971478  0.54720625  0.17350032  1
  H+  H6  1  0.85307664  0.20839167  -0.00015987  1
  H+  H7  1  0.47274492  0.35742294  0.16643773  1
  H+  H8  1  0.10910363  0.23214391  0.49595038  1
  H+  H9  1  0.85659418  0.88596929  0.01221746  1
  H+  H10  1  0.76691300  0.88682415  0.35111817  1
  H+  H11  1  0.38076705  0.22608036  0.81553154  1
  H+  H12  1  0.78977421  0.94451153  0.08747557  1
  H+  H13  1  0.88906758  0.11186632  0.51521703  1
  H+  H14  1  0.36021086  0.88178219  0.34104514  1
  H+  H15  1  0.88722799  0.09480745  0.67444132  1
  H+  H16  1  0.62701031  0.96968453  0.48334925  1
  H+  H17  1  0.36270522  0.80628552  1.00038521  1
  H+  H18  1  0.40895932  0.52624205  0.83762888  1
  H+  H19  1  0.85163346  0.12713425  0.34367086  1
  H+  H20  1  0.37461760  0.72551065  0.82446202  1
  H+  H21  1  0.39001161  0.77430515  0.32292691  1
  H+  H22  1  0.82877132  0.65770988  0.09798182  1
  H+  H23  1  0.65079086  0.89699664  0.48897340  1
  H+  H24  1  0.63705699  1.02023650  0.83832220  1
  H+  H25  1  0.54325352  0.64180385  0.99886577  1
  H+  H26  1  0.14365838  0.11184887  0.65732526  1
  H+  H27  1  0.40540970  0.28572171  0.33051367  1
  H+  H28  1  0.38666415  0.72409125  -0.00272894  1
  H+  H29  1  0.85648797  0.62283485  0.15647068  1
  H+  H30  1  0.63897224  0.36557815  0.98901155  1
  H+  H31  1  0.86034418  0.96095030  0.67915436  1
  H+  H32  1  0.36136928  0.64047286  0.33841481  1
  H+  H33  1  0.86312500  0.48786745  0.48956241  1
  H+  H34  1  0.66213070  0.02692817  0.56644402  1
  H+  H35  1  0.12010290  0.22701163  0.82721770  1
  H+  H36  1  0.88799549  0.51703987  0.16328514  1
  H+  H37  1  0.87925694  0.53171648  0.84054257  1
  H+  H38  1  0.73726649  0.34880004  0.50740398  1
  H+  H39  1  0.86365652  0.63391049  1.00650162  1
  H+  H40  1  0.37352686  0.50954013  0.50253971  1
  H+  H41  1  0.00364905  0.38240083  0.66920518  1
  H+  H42  1  0.27785967  0.64546263  0.49368716  1
  H+  H43  1  0.12136689  0.73255025  0.68058112  1
  H+  H44  1  0.36664474  0.52185773  0.18835689  1
  H+  H45  1  0.17095251  0.35177085  0.69626839  1
  H+  H46  1  0.00542441  0.39421879  0.16581418  1
  H+  H47  1  0.42159122  0.08200619  0.60034945  1
  H+  H48  1  0.82827411  0.15484100  1.06137979  1
  H+  H49  1  0.11432855  0.18969528  0.17548852  1
  H+  H50  1  0.85602777  0.90180869  0.77537784  1
  H+  H51  1  0.62945465  0.48256812  0.15431020  1
  H+  H52  1  0.60679636  0.12137551  0.33796880  1
  H+  H53  1  0.90756709  0.01794248  0.84990921  1
  H+  H54  1  0.63569623  0.35266255  0.17577796  1
  H+  H55  1  0.88161321  0.26596517  0.83643989  1
  H+  H56  1  0.25739415  0.90440903  0.48541885  1
  H+  H57  1  0.82307795  0.15210024  0.43916450  1
  H+  H58  1  0.71789714  0.10448622  0.32160911  1
  H+  H59  1  0.02254449  0.63674701  0.83368876  1
  H+  H60  1  0.51547165  0.65094035  0.34793439  1
  H+  H61  1  0.03807960  0.40404349  0.49404542  1
  H+  H62  1  0.70307243  0.62913612  0.31353090  1
  H+  H63  1  0.10787088  0.64272612  0.33630203  1
  H+  H64  1  0.63479654  0.64056646  0.51886158  1
  H+  H65  1  0.37620706  0.15641519  0.33753230  1
  H+  H66  1  0.37462728  0.13507737  0.66577983  1
  H+  H67  1  0.38235185  0.38151230  0.67703186  1
  H+  H68  1  0.11901273  0.51308139  0.83811257  1
  H+  H69  1  0.09793107  0.36817897  0.32763775  1
  H+  H70  1  0.11844467  0.14278375  0.01334448  1
  H+  H71  1  0.63091903  0.01560381  0.31580170  1
  H+  H72  1  0.24482860  0.12025646  0.83510989  1
  H+  H73  1  0.87992487  0.37304293  0.66882184  1
  H+  H74  1  0.28870517  0.13598708  0.02172098  1
  H+  H75  1  0.15713791  0.12398393  0.83732405  1
  H+  H76  1  0.39628488  0.26751176  0.99622875  1
  H+  H77  1  0.47946144  0.12558911  0.31864099  1
  H+  H78  1  0.88903046  0.86902635  0.51704523  1
  H+  H79  1  0.16324841  0.52664603  0.98727246  1
  H+  H80  1  0.15150140  0.05232748  0.48545379  1
  H+  H81  1  0.58264023  0.69103341  0.44521654  1
  H+  H82  1  0.85839378  0.87902302  0.16938192  1
  H+  H83  1  0.14542737  0.62368950  0.66657748  1
  H+  H84  1  0.74725954  0.86848483  0.53348252  1
  H+  H85  1  0.33810639  0.92465457  0.73368782  1
  H+  H86  1  0.52766897  0.13894185  0.67196624  1
  H+  H87  1  0.87803975  0.58550427  0.30100390  1
  H+  H88  1  0.36480666  0.39427907  0.17409109  1
  H+  H89  1  0.22925776  0.86475718  0.99407739  1
  H+  H90  1  0.23236349  0.86785558  0.17296879  1
  H+  H91  1  0.64491570  0.77599810  0.83561126  1
  H+  H92  1  0.39222211  0.39760336  0.33951525  1
  H+  H93  1  0.53273297  0.69123942  0.50443089  1
  H+  H94  1  0.87467061  1.01776531  0.33496934  1
  H+  H95  1  0.12402509  -0.02668193  1.00616735  1
  H+  H96  1  0.88748308  0.52040457  -0.01095230  1
  H+  H97  1  0.60308091  0.11408202  0.49540613  1
  H+  H98  1  0.27010398  0.37407951  0.18498731  1
  H+  H99  1  0.62265783  0.38844866  0.51710984  1
  H+  H100  1  0.37190323  1.03263173  0.49943543  1
  H+  H101  1  0.88752067  0.77441528  1.00420673  1
  H+  H102  1  0.25454468  0.61192097  0.98098355  1
  H+  H103  1  0.62616604  0.38066883  0.65702832  1
  H+  H104  1  0.58655304  0.92142513  0.08971207  1
  H+  H105  1  0.96797716  0.89458832  0.82463773  1
  H+  H106  1  0.86934305  0.87365313  0.13734145  1
  H+  H107  1  0.13243887  0.86454454  0.32664097  1
  H+  H108  1  0.26343974  0.37331441  0.49054568  1
  H+  H109  1  0.40102074  0.78492666  0.16545638  1
  H+  H110  1  1.07157724  0.65735938  0.43108019  1
  H+  H111  1  0.76542812  0.64673473  0.50708075  1
  H+  H112  1  0.13066076  0.27120382  0.00009213  1
  H+  H113  1  0.14470344  0.03430495  0.33081896  1
  H+  H114  1  0.61691137  0.89038093  0.82842329  1
  H+  H115  1  0.73848642  0.61831394  0.66472601  1
  H+  H116  1  0.98752984  0.62501676  0.66776247  1
  H+  H117  1  0.52626301  0.38775101  -0.00538504  1
  H+  H118  1  0.66049898  0.25030458  0.51257663  1
  H+  H119  1  -0.01947271  0.11708962  0.51463538  1
  H+  H120  1  0.63513402  0.65179571  0.99214928  1
  H+  H121  1  0.38340145  0.64173928  0.82452257  1
  H+  H122  1  0.84654404  0.21175163  0.49871960  1
  H+  H123  1  0.62870098  0.16395976  0.67406811  1
  H+  H124  1  0.77314094  0.38262059  -0.00233126  1
  H+  H125  1  0.64435755  0.34434329  0.32191659  1
  H+  H126  1  0.88763841  0.32343910  0.57004787  1
  H+  H127  1  0.24349796  0.13284249  0.49889126  1
  H+  H128  1  0.17342138  0.08909651  0.59490643  1
  H+  H129  1  0.36525708  0.37914964  0.99479737  1
  H+  H130  1  0.29315521  0.37872783  0.67568347  1
  H+  H131  1  0.53090334  0.38962605  0.66301760  1
  H+  H132  1  0.61694456  0.13576706  0.82775621  1
  H+  H133  1  0.36550504  0.88225414  0.82756634  1
  H+  H134  1  0.12079721  0.72389808  0.83655442  1
  H+  H135  1  0.28050008  0.89738798  0.67413592  1
  H+  H136  1  0.59773350  0.88128346  0.00192959  1
  H+  H137  1  0.11102637  0.73482028  0.16200904  1
  H+  H138  1  0.83266588  0.91963579  0.44751110  1
  H+  H139  1  0.89719269  0.79131438  0.33300621  1
  H+  H140  1  0.39218573  0.02484719  0.66264601  1
  H+  H141  1  0.88104409  0.49267296  0.68429659  1
  H+  H142  1  0.36751517  0.90412962  -0.00327570  1
  H+  H143  1  0.63938354  0.77644239  -0.00858869  1
  H+  H144  1  0.14594696  0.63704021  0.17371092  1
  H+  H145  1  0.02685357  0.13425453  0.01901823  1
  H+  H146  1  0.82895424  0.64289637  0.35933456  1
  H+  H147  1  0.14864622  0.54087066  0.51360320  1
  H+  H148  1  0.51759415  0.82308078  0.50013172  1
  H+  H149  1  0.16212968  1.10834773  0.17623249  1
  H+  H150  1  0.88556722  0.21576938  0.69729416  1
  H+  H151  1  0.65271265  0.78532391  0.52758108  1
  H+  H152  1  0.14053286  0.12095075  0.32615694  1
  H+  H153  1  0.76902690  0.88923920  -0.00002512  1
  H+  H154  1  0.62384186  0.48280861  0.66426663  1
  H+  H155  1  0.59815094  0.64248101  0.34830220  1
  H+  H156  1  0.35056292  0.61758577  0.48919711  1
  H+  H157  1  0.11679533  0.61109218  0.84123352  1
  H+  H158  1  0.87379316  0.48194977  0.32400120  1
  H+  H159  1  0.85564666  0.37857135  0.15361262  1
  H+  H160  1  0.36722490  0.84994585  0.50173019  1
  H+  H161  1  0.63590371  0.02951038  0.16140720  1
  H+  H162  1  0.72096549  0.61094853  0.16853564  1
  H+  H163  1  -0.03489480  0.10478761  0.33193542  1
  H+  H164  1  0.12899927  0.75804526  0.50646057  1
  H+  H165  1  0.47588535  0.86269289  0.84398275  1
  H+  H166  1  0.16799715  0.57782485  0.89883921  1
  H+  H167  1  0.84569826  0.38448665  0.83327602  1
  H+  H168  1  0.12618340  0.88721509  0.15327178  1
  H+  H169  1  0.14166147  0.36304634  0.83757802  1
  H+  H170  1  0.40876108  0.36045197  0.83847986  1
  H+  H171  1  0.84606923  0.21309483  0.34327098  1
  H+  H172  1  0.26212249  0.11279914  0.18294217  1
  H+  H173  1  0.85810813  0.13768564  0.15995384  1
  H+  H174  1  0.11862638  -0.02297211  0.66728559  1
  H+  H175  1  -0.04478473  0.34355738  0.31912117  1
  H+  H176  1  0.85829627  0.89289359  0.35055383  1
  H+  H177  1  0.10241814  0.41567948  0.17074554  1
  H+  H178  1  0.86027136  0.73838589  0.82226413  1
  H+  H179  1  0.02838422  0.88883724  0.67299503  1
  H+  H180  1  0.65873690  0.43054160  0.52824394  1
  H+  H181  1  0.18058281  0.36358282  0.33576650  1
  H+  H182  1  0.58461750  0.51584817  0.49015709  1
  H+  H183  1  0.16816713  0.84124299  0.23142290  1
  H+  H184  1  0.38063039  0.14318748  1.00688800  1
  H+  H185  1  0.66796809  0.31693287  0.23110103  1
  H+  H186  1  0.62220812  0.01188887  -0.00788234  1
  H+  H187  1  0.62812439  0.71836701  0.72948567  1
  H+  H188  1  0.64117357  0.86520395  0.32434807  1
  H+  H189  1  0.03451637  0.13461633  0.83236415  1
  H+  H190  1  0.47175815  0.10892997  0.50442618  1
  H+  H191  1  0.12196003  0.77053729  0.32381599  1
  H+  H192  1  0.76715053  0.64793167  0.82653499  1
  H+  H193  1  0.62566239  0.27485146  0.66401408  1
  H+  H194  1  0.28486780  0.65527189  0.15418661  1
  H+  H195  1  0.97069840  0.61375947  0.50899980  1
  H+  H196  1  0.41144047  0.76030269  0.65737172  1
  H+  H197  1  0.40235361  0.27165645  0.65810241  1
  H+  H198  1  0.89209096  0.01802540  0.99817509  1
  H+  H199  1  0.37074035  0.14459904  0.49548574  1
  H+  H200  1  0.49742737  0.37330485  0.33184300  1
  H+  H201  1  0.88033427  0.26860310  0.16742537  1
  H+  H202  1  0.63973702  0.27571575  0.99110042  1
  H+  H203  1  0.88909282  0.77051886  0.66948812  1
  H+  H204  1  1.02754496  0.90365760  0.34336313  1
  H+  H205  1  0.76921687  0.13850992  0.15559726  1
  H+  H206  1  0.29003806  0.38149025  0.83149698  1
  H+  H207  1  0.65238621  0.57909061  0.22347208  1
  H+  H208  1  0.66768318  0.94278070  0.12983249  1
  H+  H209  1  0.39628719  0.53575135  0.33010083  1
  H+  H210  1  0.59193905  0.12719543  0.15448742  1
  H+  H211  1  0.63624720  0.65364502  0.81924478  1
  H+  H212  1  0.45702735  0.12508715  0.15754974  1
  H+  H213  1  0.02204280  0.64514969  0.00626013  1
  H+  H214  1  0.35929897  0.97890397  0.15555363  1
  H+  H215  1  0.10657734  0.63288977  0.49197008  1
  H+  H216  1  0.11144709  -0.01289154  0.82382258  1
  H+  H217  1  0.16878874  0.33567248  0.57275093  1
  H+  H218  1  0.11052450  0.94491169  0.52162707  1
  H+  H219  1  0.40439678  0.52035383  0.65572843  1
  H+  H220  1  0.77231251  0.12243307  0.83704256  1
  H+  H221  1  0.49129641  0.13691518  0.98307973  1
  H+  H222  1  0.88312649  0.77622960  0.51978178  1
  H+  H223  1  0.87363367  0.35719817  0.32380420  1
  H+  H224  1  0.36255015  0.96982357  0.82897556  1
  H+  H225  1  0.48935350  0.87331730  0.16899315  1
  H+  H226  1  0.50388786  0.87741365  1.00350605  1
  H+  H227  1  0.13449600  0.77490017  -0.00359757  1
  H+  H228  1  0.07716788  0.03568131  0.95512391  1
  H+  H229  1  0.13382710  0.36079111  -0.00517313  1
  H+  H230  1  1.01442012  0.88261544  0.50271101  1
  H+  H231  1  0.16760799  0.08041233  0.92660059  1
  H+  H232  1  0.28565861  0.13738580  0.66411636  1
  H+  H233  1  0.40502600  0.60824773  -0.01036886  1
  H+  H234  1  0.61639899  0.13636131  0.00288882  1
  H+  H235  1  0.14091044  0.37089856  0.51513053  1
  H+  H236  1  0.86497567  0.40050934  0.48482875  1
  H+  H237  1  0.86407538  0.12396942  0.84059564  1
  H+  H238  1  0.01538336  0.38016863  0.82401204  1
  H+  H239  1  0.55947887  0.35557681  0.83954675  1
  H+  H240  1  0.23368251  0.62711438  0.32691675  1
  H+  H241  1  0.75633100  0.14992285  0.66865352  1
  H+  H242  1  1.03015400  0.87172669  0.14967668  1
  H+  H243  1  0.61069667  0.83889283  0.17889432  1
  H+  H244  1  0.33097493  0.66905452  0.39795145  1
  H+  H245  1  0.13653791  0.53193692  0.65971077  1
  H+  H246  1  0.73021958  0.09485745  0.51710226  1
  H+  H247  1  0.75787607  0.38737238  0.83087401  1
  H+  H248  1  0.40510379  0.57023007  0.56147964  1
  H+  H249  1  0.37150909  0.89621854  0.15896646  1
  H+  H250  1  0.87320839  0.34662454  0.98711531  1
  H+  H251  1  0.36656279  0.64455077  0.16142442  1
  H+  H252  1  0.13944829  0.86224963  0.66136265  1
  H+  H253  1  -0.02387808  0.86130693  0.00315629  1
  H+  H254  1  0.88549069  0.62389083  0.83954207  1
  H+  H255  1  0.13626361  0.25906558  0.66923505  1
  H+  H256  1  0.02421738  0.12291501  0.67877064  1
  H+  H257  1  0.62342872  0.26951726  0.83916171  1
  H+  H258  1  0.37794798  0.35669278  0.51051755  1
  H+  H259  1  0.61985236  0.87346495  0.68879358  1
  H+  H260  1  0.87041360  0.64373886  0.68106662  1
  H+  H261  1  0.31028297  0.39801714  0.31911295  1
  H+  H262  1  0.54325417  0.64885522  0.81461747  1
  H+  H263  1  0.71235075  0.14663345  0.60514107  1
  H+  H264  1  0.83998380  0.15051317  0.75172300  1
  H+  H265  1  0.67353830  0.44384231  0.11428779  1
  H+  H266  1  0.65117977  0.55313914  0.83165781  1
  H+  H267  1  0.38383110  0.87754365  0.52965740  1
  H+  H268  1  0.23170562  0.84847808  0.83942229  1
  H+  H269  1  0.58145826  0.61539278  0.15230470  1
  H+  H270  1  0.12102394  0.50810114  0.33884500  1
  H+  H271  1  0.28853747  0.63353919  0.67536991  1
  H+  H272  1  0.81598750  0.99801551  0.14873521  1
  H+  H273  1  0.96588908  0.09195281  0.17868010  1
  H+  H274  1  0.09174408  0.22028366  0.34075442  1
  H+  H275  1  0.52370411  0.88228517  0.33137738  1
  H+  H276  1  0.42539921  0.73880699  0.50408595  1
  H+  H277  1  0.74026481  0.35930535  0.32333636  1
  H+  H278  1  0.34327614  0.16617951  0.75645836  1
  H+  H279  1  0.87143911  -0.01738382  0.50563175  1
  H+  H280  1  0.27952678  0.38379018  0.99480958  1
  H+  H281  1  1.02399278  0.64086294  0.16047764  1
  H+  H282  1  0.39460240  0.27793363  0.50770173  1
  H+  H283  1  0.64837834  0.53418248  0.97398522  1
  H+  H284  1  0.65538885  0.62630265  0.66603013  1
  H+  H285  1  0.73585899  0.85922756  0.84498083  1
  H+  H286  1  0.57981024  0.70137972  0.16283366  1
  H+  H287  1  0.40087457  0.51762526  -0.01347617  1
  H+  H288  1  0.96003720  0.34468590  0.98974051  1
  H+  H289  1  0.66279159  0.07670265  0.89932699  1
  H+  H290  1  0.68052854  0.81854951  0.61807949  1
  H+  H291  1  0.84112082  0.42927012  0.74204466  1
  H+  H292  1  0.83513428  0.67272315  0.73985368  1
  H+  H293  1  0.58649947  0.42627687  0.05192758  1
  H+  H294  1  0.71654582  0.09579595  0.99262969  1
  H+  H295  1  0.09020516  0.67059083  0.73983190  1
  H+  H296  1  0.47855774  0.10815151  0.83599918  1
  H+  H297  1  0.03942931  0.47202957  0.02122522  1
  H+  H298  1  0.34619515  0.17868794  0.43449479  1
  H+  H299  1  0.43923295  0.58554974  0.89594087  1
  H+  H300  1  0.61926105  0.21421349  0.34263383  1
  H+  H301  1  0.09506453  0.91190240  0.07811918  1
  H+  H302  1  0.42511390  0.31699317  0.93179502  1
  H+  H303  1  0.26980248  0.87674314  0.33549448  1
  H+  H304  1  0.92625861  0.68314047  0.37073648  1
  H+  H305  1  0.34854883  0.40798108  0.77210842  1
  H+  H306  1  0.08980804  0.38283267  0.65803440  1
  H+  H307  1  0.80340143  0.29444207  0.53371675  1
  H+  H308  1  0.65961836  0.08435708  0.22293546  1
  H+  H309  1  0.07547205  0.41408982  0.76536781  1
  H+  H310  1  0.92036694  0.56930926  0.22610610  1
  H+  H311  1  0.41390627  0.59213233  0.26915873  1
  H+  H312  1  0.08744949  0.15712199  0.73639398  1
  H+  H313  1  0.91947151  0.84187409  0.27091732  1
  H+  H314  1  0.46174638  0.80089602  0.59675926  1
  H+  H315  1  0.83706895  0.67912699  0.45406503  1
  H+  H316  1  0.59164283  0.91406523  0.38714727  1
  H+  H317  1  0.33347169  0.91770772  0.06008191  1
  H+  H318  1  0.90970333  0.32539346  0.89379009  1
  H+  H319  1  0.13555381  0.31008220  0.23855975  1
  H+  H320  1  0.65251610  0.33015468  0.89749480  1
  H+  H321  1  0.83060085  0.40789692  0.05770390  1
  H+  H322  1  0.41271500  0.82956036  0.90215785  1
  H+  H323  1  0.42262998  0.83566524  0.26372750  1
  H+  H324  1  0.17535112  0.60053787  0.26555782  1
  H+  H325  1  0.90771106  0.07783231  0.23713742  1
  H+  H326  1  0.91463992  0.07039127  0.61140277  1
  H+  H327  1  0.91702342  0.83214939  0.60943783  1
  H+  H328  1  0.10052301  0.43862994  0.43803440  1
  H+  H329  1  0.06542775  0.42994106  0.07249046  1
  H+  H330  1  0.11879493  0.14936945  0.49251301  1
  H+  H331  1  0.19449983  0.09367424  0.24546122  1
  H+  H332  1  0.16636981  0.33136220  0.89763129  1
  H+  H333  1  0.08644131  0.92547341  0.40223821  1
  H+  H334  1  0.88271521  0.61598042  0.51821113  1
  H+  H335  1  0.43394041  0.34382875  0.23242651  1
  H+  H336  1  0.59833295  0.21764587  0.15594845  1
  H+  H337  1  0.63815211  0.77635254  0.33510571  1
  H+  H338  1  0.42596749  0.33434842  0.59984624  1
  H+  H339  1  0.02806477  0.45171186  0.36670555  1
  H+  H340  1  0.09264973  0.14344275  0.11131309  1
  H+  H341  1  0.57219139  0.45604870  0.41045172  1
  H+  H342  1  0.64294684  0.43611135  0.37953919  1
  H+  H343  1  0.17158572  0.82360464  0.89865547  1
  H+  H344  1  0.97435871  0.77554790  0.21728827  1
  H+  H345  1  0.68397688  0.60133392  0.91692669  1
  H+  H346  1  0.58613233  0.16703736  0.76906759  1
  H+  H347  1  0.91515953  0.58510989  0.93246485  1
  H+  H348  1  0.13054989  0.88092608  0.00388332  1
  H+  H349  1  0.28685882  0.15562988  0.34310309  1
  H+  H350  1  0.89927731  0.32295021  0.22932810  1
  H+  H351  1  0.35732801  0.14718375  0.10819806  1
  H+  H352  1  0.45925200  0.60523876  0.17897065  1
  H+  H353  1  0.16547081  0.82562326  0.60366193  1
  H+  H354  1  0.17371220  0.60226742  0.57117541  1
  H+  H355  1  0.92423963  0.59110678  0.60974431  1
  H+  H356  1  0.83496766  0.27532787  0.64912762  1
  H+  H357  1  0.12234457  0.84155276  0.50804334  1
  H+  H358  1  0.42089246  0.10994150  0.25920420  1
  H+  H359  1  0.31257046  0.93735444  0.42442669  1
  H+  H360  1  0.58452246  0.15193739  0.43494592  1
  H+  H361  1  1.01172786  0.62677764  0.33117778  1
  H+  H362  1  0.07755620  0.16634737  0.40090113  1
  H+  H363  1  0.77675545  0.63746162  0.00045407  1
  H+  H364  1  0.64699129  0.81429224  0.23681597  1
  H+  H365  1  0.35253340  0.67002783  0.05903588  1
  H+  H366  1  0.89426540  0.10757728  0.99688066  1
  H+  H367  1  0.83976434  0.42515157  0.38866517  1
  H+  H368  1  0.86834857  0.87285620  0.67758612  1
  H+  H369  1  0.39035229  0.10872648  0.83084238  1
  H+  H370  1  0.58494246  0.91567181  0.76840673  1
  H+  H371  1  0.67289613  0.32803522  0.60260001  1
  H+  H372  1  0.53427146  0.87348759  0.67348033  1
  H+  H373  1  0.75373979  0.85311572  0.68109019  1
  H+  H374  1  0.42544307  0.10355112  0.92560123  1
  H+  H375  1  0.34970934  0.66120549  0.73407777  1
  H+  H376  1  0.32597371  0.40218633  0.43136475  1
  H+  H377  1  0.76695786  0.37717613  0.15403905  1
  H+  H378  1  0.93155398  0.07816644  0.90845467  1
  H+  H379  1  0.39990150  0.60547863  0.65616906  1
  H+  H380  1  0.08120756  0.67669955  0.06561349  1
  H+  H381  1  0.07922187  0.92768050  0.76493508  1
  H+  H382  1  0.58206052  0.16616309  0.06046957  1
  H+  H383  1  0.66449258  0.83771951  0.93347369  1
  O2-  O384  1  0.09419734  0.13279070  0.15596921  1
  O2-  O385  1  0.08097164  0.17247826  0.47942448  1
  O2-  O386  1  0.09287265  0.16602379  0.81321293  1
  O2-  O387  1  0.06638980  0.43436611  0.15064531  1
  O2-  O388  1  0.09875900  0.43146615  0.48306714  1
  O2-  O389  1  0.07711151  0.41362428  0.81039448  1
  O2-  O390  1  0.08529277  0.67479156  0.14676822  1
  O2-  O391  1  0.07044427  0.65699028  0.47652121  1
  O2-  O392  1  0.08360309  0.65951978  0.82075549  1
  O2-  O393  1  0.08955680  0.90968902  0.13354783  1
  O2-  O394  1  0.07588105  0.91180400  0.48699199  1
  O2-  O395  1  0.06523962  0.93162240  0.80806603  1
  O2-  O396  1  0.35683892  0.14559013  0.15467283  1
  O2-  O397  1  0.34194013  0.17710802  0.48007067  1
  O2-  O398  1  0.34340251  0.16577617  0.80213484  1
  O2-  O399  1  0.32623425  0.41904099  0.17087481  1
  O2-  O400  1  0.32378196  0.39949631  0.47634171  1
  O2-  O401  1  0.35019683  0.40690541  0.81757608  1
  O2-  O402  1  0.34514735  0.68012331  0.14035964  1
  O2-  O403  1  0.33207056  0.65902124  0.47273431  1
  O2-  O404  1  0.35026195  0.66696881  0.80692132  1
  O2-  O405  1  0.33329689  0.91788755  0.14400973  1
  O2-  O406  1  0.29699107  0.95660345  0.46277136  1
  O2-  O407  1  0.33252320  0.91028031  0.81246016  1
  O2-  O408  1  0.56219644  0.15828708  0.13960442  1
  O2-  O409  1  0.58438664  0.15371261  0.48073626  1
  O2-  O410  1  0.58495092  0.16513352  0.81441189  1
  O2-  O411  1  0.61879628  0.42685622  0.13412530  1
  O2-  O412  1  0.53983473  0.47209114  0.46284499  1
  O2-  O413  1  0.52555320  0.38355089  0.82688402  1
  O2-  O414  1  0.54513173  0.64126782  0.14733664  1
  O2-  O415  1  0.58775067  0.69720114  0.49040165  1
  O2-  O416  1  0.60392271  0.68397285  0.80054470  1
  O2-  O417  1  0.60660021  0.93089190  0.13388339  1
  O2-  O418  1  0.61557121  0.91477773  0.46552989  1
  O2-  O419  1  0.58566415  0.91973733  0.81448849  1
  O2-  O420  1  0.83080463  0.16900964  0.14199044  1
  O2-  O421  1  0.82518562  0.15132360  0.48484646  1
  O2-  O422  1  0.83440246  0.15310166  0.82296730  1
  O2-  O423  1  0.82641742  0.40911464  0.13710032  1
  O2-  O424  1  0.83701246  0.43122643  0.46769638  1
  O2-  O425  1  0.82027150  0.41960755  0.82030739  1
  O2-  O426  1  0.82834206  0.65655431  0.14423283  1
  O2-  O427  1  0.82895157  0.67351942  0.49840831  1
  O2-  O428  1  0.83384558  0.67719399  0.81111970  1
  O2-  O429  1  0.76799995  0.96586673  0.12056368  1
  O2-  O430  1  0.83944899  0.92075512  0.49283648  1
  O2-  O431  1  0.86216096  0.90758905  0.82037963  1
  O2-  O432  1  0.20043525  0.08923109  0.19887203  1
  O2-  O433  1  0.17994383  0.10328908  0.51117015  1
  O2-  O434  1  0.18590997  0.09292383  0.85353171  1
  O2-  O435  1  0.15113830  0.29304698  0.19968819  1
  O2-  O436  1  0.16424976  0.33358128  0.52800853  1
  O2-  O437  1  0.17131805  0.33260191  0.85247112  1
  O2-  O438  1  0.17650599  0.60620540  0.18850436  1
  O2-  O439  1  0.17212586  0.60151018  0.52529410  1
  O2-  O440  1  0.14757818  0.57371357  0.85412592  1
  O2-  O441  1  0.17061001  0.84186685  0.18573547  1
  O2-  O442  1  0.15706226  0.81738878  0.52376906  1
  O2-  O443  1  0.17122204  0.81242814  0.85461824  1
  O2-  O444  1  0.39567517  0.09339217  0.17335617  1
  O2-  O445  1  0.41362529  0.08820670  0.52142137  1
  O2-  O446  1  0.41766432  0.07842359  0.85053697  1
  O2-  O447  1  0.41989762  0.34062272  0.18860695  1
  O2-  O448  1  0.41828051  0.33719601  0.52497679  1
  O2-  O449  1  0.43830301  0.32711733  0.85081939  1
  O2-  O450  1  0.39999310  0.58460631  0.19893146  1
  O2-  O451  1  0.39651514  0.56934814  0.51604468  1
  O2-  O452  1  0.43940693  0.58704470  0.85013053  1
  O2-  O453  1  0.42918292  0.84466662  0.18276108  1
  O2-  O454  1  0.48232963  0.77137909  0.52450343  1
  O2-  O455  1  0.41437220  0.83081028  0.85583020  1
  O2-  O456  1  0.66078232  0.08967315  0.17768300  1
  O2-  O457  1  0.67006619  0.06837737  0.53481187  1
  O2-  O458  1  0.66968575  0.08136668  0.85397444  1
  O2-  O459  1  0.66347376  0.31831148  0.18587342  1
  O2-  O460  1  0.70754389  0.29944536  0.53557057  1
  O2-  O461  1  0.64501515  0.33015377  0.85236870  1
  O2-  O462  1  0.65861065  0.57565502  0.17897890  1
  O2-  O463  1  0.66245600  0.60531194  0.52740858  1
  O2-  O464  1  0.68205417  0.61198682  0.84643403  1
  O2-  O465  1  0.62616505  0.79750283  0.19472896  1
  O2-  O466  1  0.68823804  0.83946368  0.55184372  1
  O2-  O467  1  0.67453100  0.83612730  0.85328828  1
  O2-  O468  1  0.90989863  0.08317768  0.19190029  1
  O2-  O469  1  0.92130921  0.08469308  0.53213308  1
  O2-  O470  1  0.93146913  0.07848137  0.86266201  1
  O2-  O471  1  0.90759105  0.32904466  0.18430059  1
  O2-  O472  1  0.86440896  0.30900445  0.52752083  1
  O2-  O473  1  0.91040104  0.32763986  0.84835830  1
  O2-  O474  1  0.91797749  0.57639237  0.18015208  1
  O2-  O475  1  0.91200837  0.58289535  0.52774632  1
  O2-  O476  1  0.91494373  0.59224836  0.85431583  1
  O2-  O477  1  0.94574226  0.80197343  0.19622469  1
  O2-  O478  1  0.91900332  0.83801830  0.53235947  1
  O2-  O479  1  0.90398827  0.85785663  0.83676207  1
  O2-  O480  1  0.17511896  0.09402864  0.31366006  1
  O2-  O481  1  0.17446266  0.08365550  0.63964661  1
  O2-  O482  1  0.13733549  0.06438575  0.96772729  1
  O2-  O483  1  0.12487328  0.33371483  0.31551347  1
  O2-  O484  1  0.16820917  0.32243160  0.65829600  1
  O2-  O485  1  0.15791092  0.32719122  0.97798278  1
  O2-  O486  1  0.17211064  0.59688182  0.31124416  1
  O2-  O487  1  0.17272262  0.59239218  0.64752152  1
  O2-  O488  1  0.19490690  0.57967601  0.96382409  1
  O2-  O489  1  0.15515855  0.83022049  0.30736038  1
  O2-  O490  1  0.16870967  0.82986251  0.64887589  1
  O2-  O491  1  0.16666783  0.83681114  0.98044469  1
  O2-  O492  1  0.42345558  0.11591121  0.30365993  1
  O2-  O493  1  0.42649251  0.08646211  0.64558480  1
  O2-  O494  1  0.43262231  0.12101912  0.96925179  1
  O2-  O495  1  0.43883456  0.34629178  0.31445019  1
  O2-  O496  1  0.43214851  0.33374700  0.64541067  1
  O2-  O497  1  0.42318768  0.32476732  0.97624670  1
  O2-  O498  1  0.41869158  0.59535033  0.31591482  1
  O2-  O499  1  0.42667362  0.57577200  0.63477989  1
  O2-  O500  1  0.43492551  0.57896342  0.97262514  1
  O2-  O501  1  0.42335978  0.83534788  0.30903150  1
  O2-  O502  1  0.44852416  0.81640292  0.63702506  1
  O2-  O503  1  0.41493301  0.82883611  0.97638526  1
  O2-  O504  1  0.65975113  0.07739341  0.30281574  1
  O2-  O505  1  0.72658549  0.17479190  0.64515047  1
  O2-  O506  1  0.65701156  0.07331699  0.97736682  1
  O2-  O507  1  0.67863995  0.31900294  0.30908328  1
  O2-  O508  1  0.65675193  0.33414061  0.64489513  1
  O2-  O509  1  0.67022785  0.33578789  0.97457595  1
  O2-  O510  1  0.64330216  0.58815349  0.30457584  1
  O2-  O511  1  0.67718689  0.59008107  0.64927447  1
  O2-  O512  1  0.68521369  0.59538462  0.96361287  1
  O2-  O513  1  0.67420773  0.83468934  0.31682741  1
  O2-  O514  1  0.68182146  0.81516395  0.66687388  1
  O2-  O515  1  0.66432763  0.83933898  0.97862964  1
  O2-  O516  1  0.90493106  0.07698206  0.31679193  1
  O2-  O517  1  0.91415830  0.06261646  0.65643561  1
  O2-  O518  1  0.92980398  0.08093854  0.98584466  1
  O2-  O519  1  0.89473987  0.31695839  0.30803480  1
  O2-  O520  1  0.89236705  0.32776904  0.64839752  1
  O2-  O521  1  0.90186531  0.31404191  0.97205700  1
  O2-  O522  1  0.91946958  0.56589314  0.29992451  1
  O2-  O523  1  0.92578796  0.59549876  0.65479661  1
  O2-  O524  1  0.91620689  0.58220210  0.97794005  1
  O2-  O525  1  0.91913618  0.84919057  0.31554955  1
  O2-  O526  1  0.91850270  0.83272261  0.65497686  1
  O2-  O527  1  0.91478312  0.83665545  0.99481394  1
  O2-  O528  1  0.08795274  0.16806194  0.03474678  1
  O2-  O529  1  0.07498345  0.16218390  0.35527638  1
  O2-  O530  1  0.08601549  0.15718971  0.69059035  1
  O2-  O531  1  0.06081390  0.43218995  0.02722686  1
  O2-  O532  1  0.08022699  0.44894511  0.35953831  1
  O2-  O533  1  0.06542097  0.41258153  0.68051788  1
  O2-  O534  1  0.08228824  0.68006885  0.02062279  1
  O2-  O535  1  0.07018354  0.66468429  0.35127287  1
  O2-  O536  1  0.09073549  0.67088069  0.69454287  1
  O2-  O537  1  0.09889071  0.91446307  0.02371261  1
  O2-  O538  1  0.08824477  0.93020762  0.35741604  1
  O2-  O539  1  0.08994693  0.91833644  0.68524387  1
  O2-  O540  1  0.34841186  0.16581456  0.03482928  1
  O2-  O541  1  0.34677857  0.18610459  0.35782815  1
  O2-  O542  1  0.34554752  0.16826065  0.67967390  1
  O2-  O543  1  0.33994208  0.41447554  0.00741566  1
  O2-  O544  1  0.35398637  0.42239035  0.35067516  1
  O2-  O545  1  0.35069336  0.40987331  0.69382123  1
  O2-  O546  1  0.35395915  0.66383791  0.01407980  1
  O2-  O547  1  0.33075407  0.67147722  0.35205477  1
  O2-  O548  1  0.34869791  0.65669566  0.68788271  1
  O2-  O549  1  0.32616750  0.91820856  0.01551816  1
  O2-  O550  1  0.32618573  0.90757289  0.35550736  1
  O2-  O551  1  0.33999952  0.93331038  0.68884173  1
  O2-  O552  1  0.59148041  0.17283426  0.01570642  1
  O2-  O553  1  0.58193703  0.15473109  0.35739268  1
  O2-  O554  1  0.58580160  0.17797464  0.69056755  1
  O2-  O555  1  0.58816985  0.42223253  0.00734492  1
  O2-  O556  1  0.59625304  0.44563351  0.36764126  1
  O2-  O557  1  0.59429150  0.42007010  0.67463936  1
  O2-  O558  1  0.60455348  0.68006197  0.00935816  1
  O2-  O559  1  0.57489738  0.67722574  0.36603340  1
  O2-  O560  1  0.64391563  0.72378115  0.68362623  1
  O2-  O561  1  0.56793907  0.91158150  0.01791570  1
  O2-  O562  1  0.58685440  0.91491058  0.34233950  1
  O2-  O563  1  0.59250125  0.90817910  0.69461699  1
  O2-  O564  1  0.82766636  0.14903392  0.01629644  1
  O2-  O565  1  0.81869469  0.15409376  0.36041823  1
  O2-  O566  1  0.84700303  0.15466551  0.70541355  1
  O2-  O567  1  0.83424478  0.40867798  0.01235280  1
  O2-  O568  1  0.83887203  0.41759102  0.34364584  1
  O2-  O569  1  0.85593292  0.43228070  0.69827283  1
  O2-  O570  1  0.83308678  0.66282501  0.02342102  1
  O2-  O571  1  0.87867017  0.69468779  0.37481523  1
  O2-  O572  1  0.83713481  0.67246339  0.69298880  1
  O2-  O573  1  0.82814393  0.92106521  0.01858418  1
  O2-  O574  1  0.82698364  0.91957534  0.36900209  1
  O2-  O575  1  0.83304965  0.89978894  0.69492469  1
