# generated using pymatgen
data_H2O
_symmetry_space_group_name_H-M   'P 1'
_cell_length_a   17.97508168
_cell_length_b   17.97806325
_cell_length_c   21.98810235
_cell_angle_alpha   90.05422594
_cell_angle_beta   89.94739002
_cell_angle_gamma   119.97627709
_symmetry_Int_Tables_number   1
_chemical_formula_structural   H2O
_chemical_formula_sum   'H384 O192'
_cell_volume   6155.10794663
_cell_formula_units_Z   192
loop_
 _symmetry_equiv_pos_site_id
 _symmetry_equiv_pos_as_xyz
  1  'x, y, z'
loop_
 _atom_type_symbol
 _atom_type_oxidation_number
  H+  1.0
  O2-  -2.0
loop_
 _atom_site_type_symbol
 _atom_site_label
 _atom_site_symmetry_multiplicity
 _atom_site_fract_x
 _atom_site_fract_y
 _atom_site_fract_z
 _atom_site_occupancy
  H+  H0  1  0.99982794  0.13685030  0.66624917  1
  H+  H1  1  0.10437339  0.60517269  0.01309740  1
  H+  H2  1  0.11411900  0.14292553  0.35067820  1
  H+  H3  1  0.97230188  0.11361071  0.17211299  1
  H+  H4  1  0.47831372  0.11460937  0.49271422  1
  H+  H5  1  0.90037837  0.61590531  0.21940616  1
  H+  H6  1  0.87863449  0.85576565  0.65708485  1
  H+  H7  1  0.22722066  0.36683844  0.33128850  1
  H+  H8  1  -0.02524182  0.12179339  -0.01444333  1
  H+  H9  1  0.63378551  0.15104715  0.82358767  1
  H+  H10  1  0.48057256  0.87263121  0.17203370  1
  H+  H11  1  0.10194993  0.73230658  0.48193026  1
  H+  H12  1  0.90032755  0.28702834  0.82170164  1
  H+  H13  1  0.86286758  0.46756052  -0.00307577  1
  H+  H14  1  0.37680046  0.11578490  0.70742424  1
  H+  H15  1  0.87578867  0.01105692  0.83385079  1
  H+  H16  1  0.52206603  0.64118076  0.33186403  1
  H+  H17  1  0.38557075  0.14690215  0.47740992  1
  H+  H18  1  0.38306319  0.76710740  0.85109649  1
  H+  H19  1  0.20259047  0.34777123  0.51217654  1
  H+  H20  1  0.13229029  0.86190973  0.50295164  1
  H+  H21  1  0.63118844  0.11045458  -0.00027293  1
  H+  H22  1  0.39581805  0.61398781  0.99615548  1
  H+  H23  1  -0.00047949  0.66141124  0.14743442  1
  H+  H24  1  0.38727184  1.03057679  0.49997201  1
  H+  H25  1  0.64977094  0.28287056  0.29243774  1
  H+  H26  1  0.52432226  0.89692612  0.49360131  1
  H+  H27  1  0.87142473  0.84762118  -0.02585545  1
  H+  H28  1  0.35966201  0.21805178  0.01311817  1
  H+  H29  1  0.38693468  0.23774934  0.47707037  1
  H+  H30  1  0.62953848  0.09460234  0.17668127  1
  H+  H31  1  0.51097453  0.89590716  0.65559429  1
  H+  H32  1  0.87273214  0.74035710  0.49066179  1
  H+  H33  1  0.14429874  0.52435424  0.99814319  1
  H+  H34  1  0.51130321  0.14368816  0.69978225  1
  H+  H35  1  0.49837941  0.61337026  0.17646418  1
  H+  H36  1  0.28092168  0.40362288  0.16095338  1
  H+  H37  1  0.69577400  0.53128372  0.18975462  1
  H+  H38  1  0.38252401  0.62060465  0.51215108  1
  H+  H39  1  0.18525594  1.10186152  0.52331442  1
  H+  H40  1  0.61568917  0.63912028  0.67431149  1
  H+  H41  1  0.60502440  0.88331524  0.86006357  1
  H+  H42  1  0.89174447  0.61945629  0.67523656  1
  H+  H43  1  0.35695076  0.22654489  0.67677915  1
  H+  H44  1  0.10487543  0.64636653  0.47487730  1
  H+  H45  1  0.39403076  0.78541748  0.17320228  1
  H+  H46  1  0.13034077  -0.01854804  0.84636267  1
  H+  H47  1  0.59866093  0.38445266  0.30056566  1
  H+  H48  1  0.83464907  0.39968456  0.47815558  1
  H+  H49  1  0.26699165  0.12711743  0.16639162  1
  H+  H50  1  0.62463505  0.77285099  0.49950253  1
  H+  H51  1  0.11607920  0.40201141  0.82074603  1
  H+  H52  1  0.88068808  0.53628627  0.30705685  1
  H+  H53  1  0.72137826  0.10147312  0.16769597  1
  H+  H54  1  0.84759210  0.96754039  0.67794793  1
  H+  H55  1  0.40813095  0.32472524  -0.06594211  1
  H+  H56  1  0.39402955  0.79237783  0.51288082  1
  H+  H57  1  1.01105186  0.12082519  0.49452644  1
  H+  H58  1  0.50466412  0.10604215  0.00953264  1
  H+  H59  1  0.13568076  0.27797590  0.32769296  1
  H+  H60  1  0.10797159  0.88402432  0.67298251  1
  H+  H61  1  0.89081031  1.02912285  0.32842589  1
  H+  H62  1  0.37853899  0.77205162  0.00263963  1
  H+  H63  1  0.77897328  0.88830632  1.00607903  1
  H+  H64  1  0.34966011  0.68700318  0.44040491  1
  H+  H65  1  0.22196127  0.01693306  0.87460463  1
  H+  H66  1  0.57384786  0.91195235  -0.05198224  1
  H+  H67  1  0.48525305  0.86589328  0.32893445  1
  H+  H68  1  0.13365142  0.26582598  0.67217407  1
  H+  H69  1  0.40936750  0.58142625  0.56763052  1
  H+  H70  1  0.71327176  0.38108277  0.50234047  1
  H+  H71  1  0.13957942  0.87427328  0.17377044  1
  H+  H72  1  0.61034954  0.13849885  0.46096530  1
  H+  H73  1  0.14742412  0.58660007  0.17340665  1
  H+  H74  1  0.12105863  0.84912741  0.83165595  1
  H+  H75  1  0.14578716  0.53762422  0.84096566  1
  H+  H76  1  0.44528630  0.20013484  0.83247503  1
  H+  H77  1  0.86766128  0.72641596  0.66989985  1
  H+  H78  1  0.53150160  0.22166412  0.33751376  1
  H+  H79  1  0.61270584  -0.01891608  0.99771124  1
  H+  H80  1  0.35823554  0.38278431  0.16042243  1
  H+  H81  1  0.09757258  0.63164405  0.33174946  1
  H+  H82  1  0.87236398  0.35107702  -0.01651078  1
  H+  H83  1  0.12712379  0.97776856  0.48078083  1
  H+  H84  1  0.39309341  0.36500887  0.66524950  1
  H+  H85  1  0.30906886  -0.08896386  1.07083284  1
  H+  H86  1  0.13797228  0.13308869  0.62458307  1
  H+  H87  1  0.38990470  0.35913140  -0.00335852  1
  H+  H88  1  0.61090528  0.72542068  0.82882768  1
  H+  H89  1  0.64019422  0.24683621  0.82444637  1
  H+  H90  1  0.27020851  0.88789316  0.49583112  1
  H+  H91  1  0.39592401  0.82654043  0.90987427  1
  H+  H92  1  0.89184747  0.15429444  0.79576701  1
  H+  H93  1  0.98393906  0.87307104  0.50367684  1
  H+  H94  1  0.30528430  0.64072847  0.16438081  1
  H+  H95  1  0.60702847  0.64983691  0.48342861  1
  H+  H96  1  0.87926654  0.62029496  0.49740125  1
  H+  H97  1  0.73066501  0.10446690  0.33093865  1
  H+  H98  1  0.89123257  0.86807244  0.50230803  1
  H+  H99  1  0.67603031  0.07203258  0.26940187  1
  H+  H100  1  0.37697687  0.09995068  0.99165958  1
  H+  H101  1  0.21310060  0.45331790  0.20941271  1
  H+  H102  1  0.77802028  0.89375273  0.33770165  1
  H+  H103  1  0.87938644  0.78750916  0.88751578  1
  H+  H104  1  0.89021090  0.52159391  0.67149009  1
  H+  H105  1  0.08760147  0.38615629  0.16514345  1
  H+  H106  1  0.35868467  0.13561066  0.31103667  1
  H+  H107  1  0.61151470  0.46925745  0.68917758  1
  H+  H108  1  0.47140121  0.36376665  0.84544089  1
  H+  H109  1  0.37211756  0.01583763  0.18937572  1
  H+  H110  1  0.64052321  0.86323760  0.99357376  1
  H+  H111  1  0.61390908  0.72821694  0.67155611  1
  H+  H112  1  0.33437912  0.87272232  1.01474550  1
  H+  H113  1  0.72477508  0.60201143  0.66326185  1
  H+  H114  1  0.63821429  0.63701445  0.16419910  1
  H+  H115  1  0.62225174  0.29561926  0.50401406  1
  H+  H116  1  0.25796462  0.11914315  0.47526067  1
  H+  H117  1  0.36489069  0.97819724  0.69296165  1
  H+  H118  1  0.64728047  0.01166528  0.51844884  1
  H+  H119  1  0.84926477  0.49568038  0.48246130  1
  H+  H120  1  -0.01258431  0.61661542  0.67453183  1
  H+  H121  1  0.62211686  0.52223777  0.30609870  1
  H+  H122  1  0.19073548  0.84823666  -0.00579614  1
  H+  H123  1  0.76199511  0.87732299  0.66947384  1
  H+  H124  1  -0.00065630  0.85602300  0.81958712  1
  H+  H125  1  0.37294860  0.26293021  0.17266988  1
  H+  H126  1  0.88856140  0.10262512  0.51533883  1
  H+  H127  1  0.60694666  0.41303558  0.15045307  1
  H+  H128  1  0.13081836  0.76718037  0.32021042  1
  H+  H129  1  0.63277947  0.61597327  0.31792628  1
  H+  H130  1  0.68350765  0.39527285  0.22112665  1
  H+  H131  1  0.84245857  0.86245333  0.81954965  1
  H+  H132  1  0.61790193  0.48294217  0.83475008  1
  H+  H133  1  0.12865266  0.40017387  0.01256891  1
  H+  H134  1  0.63203396  0.72305165  0.16536362  1
  H+  H135  1  0.37083047  0.27194756  0.32062747  1
  H+  H136  1  0.26810438  0.87408337  0.34265212  1
  H+  H137  1  0.38938407  0.87881294  0.51150068  1
  H+  H138  1  0.87046891  0.40422061  0.82645442  1
  H+  H139  1  0.13101097  0.51807075  0.32191817  1
  H+  H140  1  -0.02100909  0.37712307  0.83606637  1
  H+  H141  1  0.98329628  0.87417006  0.32792140  1
  H+  H142  1  0.51058983  0.63460023  0.48793426  1
  H+  H143  1  0.06042620  0.45725240  0.16214311  1
  H+  H144  1  0.64217111  0.77838702  0.32283249  1
  H+  H145  1  0.50749295  0.38159597  0.30675926  1
  H+  H146  1  0.24449141  0.37492096  0.00456507  1
  H+  H147  1  0.28112199  0.66062252  0.49427937  1
  H+  H148  1  0.12225073  -0.02786937  0.34596848  1
  H+  H149  1  0.90184677  0.78172572  0.17813819  1
  H+  H150  1  0.88549004  0.02409458  0.17227901  1
  H+  H151  1  0.30993299  0.67449034  0.68878021  1
  H+  H152  1  0.68123393  0.59708195  0.89878084  1
  H+  H153  1  0.78109503  0.88716128  0.15777591  1
  H+  H154  1  0.28284728  0.38914194  0.67955805  1
  H+  H155  1  0.17022536  0.08761595  0.40306917  1
  H+  H156  1  0.79678327  0.27914504  0.50971847  1
  H+  H157  1  0.64310872  0.77512660  0.00061400  1
  H+  H158  1  0.35119195  0.38709228  0.34704675  1
  H+  H159  1  0.64316515  0.87558228  0.64997285  1
  H+  H160  1  0.24226829  0.13832177  0.83169223  1
  H+  H161  1  0.27831288  0.63611222  1.01034048  1
  H+  H162  1  0.13354344  0.02133436  0.17700291  1
  H+  H163  1  0.85251369  0.39082703  0.15554944  1
  H+  H164  1  0.73605297  0.42348300  0.15904851  1
  H+  H165  1  0.31470680  0.23798682  0.82745084  1
  H+  H166  1  0.64262025  0.86732291  0.32476488  1
  H+  H167  1  0.11623017  0.87981458  0.33496647  1
  H+  H168  1  0.37071832  0.11157195  0.18654417  1
  H+  H169  1  0.64730346  0.62270415  0.83857692  1
  H+  H170  1  0.87105374  0.65482735  0.33649274  1
  H+  H171  1  0.84175582  0.91842244  0.09852183  1
  H+  H172  1  0.39449972  0.64513955  0.16059846  1
  H+  H173  1  0.37177458  0.63869982  0.83569113  1
  H+  H174  1  0.18125991  0.44486494  0.47537476  1
  H+  H175  1  0.06845636  0.63489124  0.16386127  1
  H+  H176  1  0.35875924  0.87839049  0.34533688  1
  H+  H177  1  0.36872818  0.48238950  0.67638753  1
  H+  H178  1  0.78676192  0.27061405  0.54315716  1
  H+  H179  1  0.60217163  0.20609176  0.16680544  1
  H+  H180  1  0.11890212  0.23765719  0.00822457  1
  H+  H181  1  0.21292216  0.84952247  0.83392657  1
  H+  H182  1  0.22998751  0.86536387  0.65558276  1
  H+  H183  1  0.85906290  0.13488021  0.15745249  1
  H+  H184  1  0.96295338  0.35316639  0.69611251  1
  H+  H185  1  0.72122853  0.36410703  0.99117046  1
  H+  H186  1  -0.01698983  0.62858178  0.83590602  1
  H+  H187  1  0.51360225  0.88252652  0.86195951  1
  H+  H188  1  0.74535676  0.65280114  0.49379498  1
  H+  H189  1  0.86924842  0.14107787  0.34942674  1
  H+  H190  1  0.26933170  0.13245505  0.01441180  1
  H+  H191  1  0.89933349  0.63944725  0.84235842  1
  H+  H192  1  0.64199899  0.37344681  0.84108661  1
  H+  H193  1  0.38788448  0.61626648  0.32537832  1
  H+  H194  1  0.92372323  0.84807296  0.26883575  1
  H+  H195  1  0.79654781  0.63687852  0.17368815  1
  H+  H196  1  0.85324678  0.26381660  0.17094584  1
  H+  H197  1  0.87219290  0.49505670  0.82850383  1
  H+  H198  1  0.27308547  0.89538120  0.17143272  1
  H+  H199  1  0.11198642  0.13436872  0.16038698  1
  H+  H200  1  0.34311010  0.85891664  0.82772954  1
  H+  H201  1  0.14698425  0.54502730  0.49766502  1
  H+  H202  1  0.62607889  0.43300242  0.54205562  1
  H+  H203  1  0.61848994  0.97439757  0.33809662  1
  H+  H204  1  0.86715756  0.20255569  0.51850532  1
  H+  H205  1  0.35607163  0.47832736  0.34281698  1
  H+  H206  1  0.14203040  0.77693016  0.65908301  1
  H+  H207  1  0.17522704  0.36420525  0.24111916  1
  H+  H208  1  0.12549155  0.39919058  0.33613969  1
  H+  H209  1  0.66837032  0.82620826  0.90346088  1
  H+  H210  1  0.11638053  0.25819456  0.86441434  1
  H+  H211  1  0.89390026  0.66278374  1.00928968  1
  H+  H212  1  0.87224907  0.27652003  0.33403040  1
  H+  H213  1  0.63202755  0.52336116  0.52808937  1
  H+  H214  1  0.61214587  0.36514881  0.99464746  1
  H+  H215  1  0.10993301  0.20921984  0.49700960  1
  H+  H216  1  0.40472579  0.52813838  0.17174175  1
  H+  H217  1  0.57063566  0.47382079  0.13183310  1
  H+  H218  1  0.60434547  0.22928292  0.67613709  1
  H+  H219  1  0.35400623  0.17060689  0.37961538  1
  H+  H220  1  0.97128608  0.62243364  0.30894401  1
  H+  H221  1  0.85824660  0.96780560  0.49405537  1
  H+  H222  1  0.06224700  0.63758255  0.07324135  1
  H+  H223  1  0.61549262  0.96922301  0.15623996  1
  H+  H224  1  0.41012202  0.08330062  0.76357468  1
  H+  H225  1  0.48268013  0.61462454  0.84213026  1
  H+  H226  1  0.06471120  0.40910441  0.64909740  1
  H+  H227  1  0.94467920  0.34673082  0.52966985  1
  H+  H228  1  0.37952497  0.48162221  1.00748223  1
  H+  H229  1  0.17059173  0.54079720  0.66863201  1
  H+  H230  1  0.51266350  0.12444763  0.17885136  1
  H+  H231  1  0.85683029  0.39665517  0.33272713  1
  H+  H232  1  0.13404204  0.78312580  0.16650508  1
  H+  H233  1  0.50838677  0.36071738  -0.00475367  1
  H+  H234  1  0.38011714  0.74135294  0.34109331  1
  H+  H235  1  -0.05683911  0.34786325  0.17196994  1
  H+  H236  1  0.71761263  0.85722311  0.83969759  1
  H+  H237  1  0.03064092  0.89639712  0.16764477  1
  H+  H238  1  0.01686014  0.87893407  0.67146071  1
  H+  H239  1  0.47689576  0.35698603  0.66761057  1
  H+  H240  1  0.86585426  0.38673874  0.67753461  1
  H+  H241  1  0.87160539  0.48871949  0.14847559  1
  H+  H242  1  0.86517792  0.75680374  0.98354335  1
  H+  H243  1  0.02575872  0.63524459  0.00175433  1
  H+  H244  1  0.77674492  0.11194251  0.52070419  1
  H+  H245  1  0.36581337  0.90023526  0.16994095  1
  H+  H246  1  0.40016157  0.62521073  0.66490260  1
  H+  H247  1  0.11199906  0.22222130  0.15827483  1
  H+  H248  1  0.64174384  0.85566415  0.16968834  1
  H+  H249  1  0.27502141  0.38697996  0.82784356  1
  H+  H250  1  0.48404966  0.38212304  0.51873504  1
  H+  H251  1  0.73399238  0.37473304  0.30871747  1
  H+  H252  1  0.86792310  -0.02436359  0.00194479  1
  H+  H253  1  0.65004722  0.62045108  0.99056333  1
  H+  H254  1  0.87452323  0.74519536  0.34106256  1
  H+  H255  1  -0.03138724  0.09143940  0.83313590  1
  H+  H256  1  0.08149204  0.40393454  0.49802740  1
  H+  H257  1  0.36743672  -0.01215925  0.83502701  1
  H+  H258  1  0.48148436  0.61441500  0.65978246  1
  H+  H259  1  0.86645807  0.24827477  0.98524208  1
  H+  H260  1  0.84283743  0.68346086  0.42818928  1
  H+  H261  1  0.91332323  0.08484766  0.92695802  1
  H+  H262  1  0.09687626  0.89315977  0.01342666  1
  H+  H263  1  0.28954157  0.65859839  0.35736449  1
  H+  H264  1  0.73399738  0.61279712  0.99027598  1
  H+  H265  1  1.03981018  0.73816771  0.96627640  1
  H+  H266  1  0.08164429  0.90632349  0.43011661  1
  H+  H267  1  0.62869019  0.02059090  0.85512142  1
  H+  H268  1  0.14161080  0.15951488  0.80187537  1
  H+  H269  1  0.11696098  0.64015225  0.82945292  1
  H+  H270  1  0.53365349  0.63968871  0.01165217  1
  H+  H271  1  0.07257006  0.06413809  0.79694413  1
  H+  H272  1  0.31991216  0.48487208  0.49561711  1
  H+  H273  1  0.60736236  0.88543511  0.49193836  1
  H+  H274  1  0.86858915  0.12009487  0.68455255  1
  H+  H275  1  0.96423520  0.61453634  0.49132852  1
  H+  H276  1  0.22891385  0.14213817  0.62810905  1
  H+  H277  1  0.13755520  0.39073834  0.67092877  1
  H+  H278  1  0.89324323  0.86683461  0.17181339  1
  H+  H279  1  0.13555661  0.12006895  0.99124632  1
  H+  H280  1  0.72552559  0.35998856  0.66099502  1
  H+  H281  1  0.46777600  0.24129932  0.81472206  1
  H+  H282  1  0.10724026  0.98541201  0.01934993  1
  H+  H283  1  0.46062768  0.86627600  -0.00199991  1
  H+  H284  1  0.38890637  0.37499694  0.84395481  1
  H+  H285  1  0.11907456  0.63998018  0.67849853  1
  H+  H286  1  0.11158522  0.72711703  0.82708191  1
  H+  H287  1  0.76891899  0.13873354  0.00038549  1
  H+  H288  1  0.91844438  0.08902087  0.26910156  1
  H+  H289  1  0.07999514  0.16812665  0.06076843  1
  H+  H290  1  0.07181385  0.16296349  0.42683651  1
  H+  H291  1  0.06433869  0.89666839  0.76171282  1
  H+  H292  1  0.78189033  0.66467320  0.83355376  1
  H+  H293  1  0.34446935  0.66639566  0.06669269  1
  H+  H294  1  0.82210481  0.43601299  0.38418814  1
  H+  H295  1  0.16209170  0.08420079  0.23519486  1
  H+  H296  1  0.83106183  0.16391337  0.09668791  1
  H+  H297  1  0.10603497  0.43966130  0.39464997  1
  H+  H298  1  0.29344421  0.17320071  0.72993501  1
  H+  H299  1  0.91364485  0.83189529  0.59705747  1
  H+  H300  1  0.83338271  0.15924102  0.41059280  1
  H+  H301  1  0.55790102  0.13101624  0.07177417  1
  H+  H302  1  0.31805899  0.88874667  0.76429756  1
  H+  H303  1  0.69136279  0.59512593  0.23907517  1
  H+  H304  1  0.17716246  0.31730792  0.61336981  1
  H+  H305  1  0.59571057  0.66618674  0.07007302  1
  H+  H306  1  0.41729722  0.58317022  0.26627593  1
  H+  H307  1  0.08813985  0.92798875  0.10647119  1
  H+  H308  1  0.23647421  0.62343032  0.84413822  1
  H+  H309  1  0.21827092  0.61483090  0.62053454  1
  H+  H310  1  0.83732117  0.41720500  0.05959813  1
  H+  H311  1  0.16392313  0.07226260  0.94095693  1
  H+  H312  1  0.82992806  0.91528485  0.43161030  1
  H+  H313  1  0.06580857  0.66666499  0.38798690  1
  H+  H314  1  0.61272934  0.38140651  0.68385388  1
  H+  H315  1  0.58468305  0.91503935  0.39804330  1
  H+  H316  1  0.58262877  0.41704782  0.77888403  1
  H+  H317  1  0.57035082  0.16539177  0.40741593  1
  H+  H318  1  0.84287192  0.67985067  0.73450556  1
  H+  H319  1  0.41496523  0.32505461  0.56489704  1
  H+  H320  1  0.83686741  0.42341621  0.73371629  1
  H+  H321  1  0.81759063  0.90121360  0.76356803  1
  H+  H322  1  0.95106757  0.31812428  0.59541427  1
  H+  H323  1  0.29082986  0.42715840  0.43488939  1
  H+  H324  1  0.54327831  0.37159142  0.41830439  1
  H+  H325  1  0.56993859  0.39882536  0.05608800  1
  H+  H326  1  0.67552523  0.83530329  0.23116545  1
  H+  H327  1  0.88239578  0.25549323  0.69058897  1
  H+  H328  1  0.20046999  0.25698291  0.87721091  1
  H+  H329  1  0.64793647  0.53968506  0.61691061  1
  H+  H330  1  0.39086799  0.33360405  0.26441572  1
  H+  H331  1  0.43747358  0.85540259  0.60556781  1
  H+  H332  1  0.35531370  0.68090188  0.77643825  1
  H+  H333  1  0.14997696  0.83770772  0.92817576  1
  H+  H334  1  0.58165659  0.90750191  0.09794980  1
  H+  H335  1  0.69668004  0.66195130  0.55154690  1
  H+  H336  1  0.10107767  0.56032672  0.23578873  1
  H+  H337  1  0.57812736  0.67214294  0.39145474  1
  H+  H338  1  0.88749023  0.32361184  0.27039399  1
  H+  H339  1  0.59853765  0.18261009  0.74901449  1
  H+  H340  1  0.23016492  0.11795642  0.34554143  1
  H+  H341  1  0.66990193  0.09532262  0.93683850  1
  H+  H342  1  0.68468300  0.05543211  0.69908658  1
  H+  H343  1  0.40194531  0.75891060  0.68244469  1
  H+  H344  1  0.42359688  0.83743732  0.26974299  1
  H+  H345  1  0.32879767  0.91263453  0.43640763  1
  H+  H346  1  0.16725355  0.83200438  0.26350470  1
  H+  H347  1  0.57757167  0.41807643  0.42000931  1
  H+  H348  1  0.08771978  0.66871522  0.73763250  1
  H+  H349  1  0.34780231  0.42323407  0.06791395  1
  H+  H350  1  0.09401963  0.43204670  0.76004583  1
  H+  H351  1  0.71839029  0.85756619  0.50130967  1
  H+  H352  1  0.37939774  0.89968982  0.67418142  1
  H+  H353  1  0.33649204  0.42368136  0.76907930  1
  H+  H354  1  0.92732428  0.07419695  0.57056471  1
  H+  H355  1  0.66272963  0.82867759  0.59660406  1
  H+  H356  1  0.39112206  0.52759148  0.84440828  1
  H+  H357  1  0.20873326  0.60510185  0.28804677  1
  H+  H358  1  0.10626594  0.30946352  0.53671759  1
  H+  H359  1  0.49566043  0.13503987  0.30377636  1
  H+  H360  1  0.66880442  0.33966629  0.92811428  1
  H+  H361  1  0.71888286  0.09726725  0.83519670  1
  H+  H362  1  0.17147686  0.58997785  0.93997239  1
  H+  H363  1  0.66809834  0.02575725  0.58809680  1
  H+  H364  1  0.07995598  0.42074984  0.06490909  1
  H+  H365  1  0.40632618  0.06302398  0.88408315  1
  H+  H366  1  0.90177775  0.32117346  0.91984083  1
  H+  H367  1  0.42867258  0.58621359  0.93768429  1
  H+  H368  1  0.73587307  0.38153826  0.83862917  1
  H+  H369  1  0.86969647  0.89827264  0.34013406  1
  H+  H370  1  0.82457104  0.05835595  0.62948330  1
  H+  H371  1  0.96960364  0.65451788  0.92615929  1
  H+  H372  1  0.45953836  0.35340487  0.16771384  1
  H+  H373  1  0.32930068  0.15303480  0.10713846  1
  H+  H374  1  0.66352305  0.33528471  0.60308124  1
  H+  H375  1  0.13741807  0.60044144  0.54998822  1
  H+  H376  1  0.18356107  0.34142651  0.94695666  1
  H+  H377  1  0.86174991  0.13961651  -0.00472716  1
  H+  H378  1  0.15948868  0.82730199  0.56144420  1
  H+  H379  1  0.58410044  0.66757375  0.76816678  1
  H+  H380  1  1.02236677  0.14041699  0.33983302  1
  H+  H381  1  0.84989027  0.66669024  0.07103091  1
  H+  H382  1  0.05984886  0.14016332  0.71995426  1
  H+  H383  1  0.36387174  0.00655177  0.99093492  1
  O2-  O384  1  0.08114100  0.16333209  0.14319672  1
  O2-  O385  1  0.07146546  0.15375496  0.47412735  1
  O2-  O386  1  0.07876456  0.12132346  0.79718981  1
  O2-  O387  1  0.04682212  0.40035489  0.14527453  1
  O2-  O388  1  0.12759927  0.45004056  0.47404034  1
  O2-  O389  1  0.08806185  0.43259033  0.80503141  1
  O2-  O390  1  0.06004246  0.67533669  0.13760214  1
  O2-  O391  1  0.07076407  0.67324599  0.46271815  1
  O2-  O392  1  0.08395268  0.66583404  0.81100798  1
  O2-  O393  1  0.09193581  0.92865576  0.15340530  1
  O2-  O394  1  0.08522924  0.91477052  0.47533757  1
  O2-  O395  1  0.06078983  0.89207673  0.80852312  1
  O2-  O396  1  0.32865521  0.15386596  0.15318403  1
  O2-  O397  1  0.36061618  0.18056133  0.45650983  1
  O2-  O398  1  0.25787815  0.19350503  0.81130558  1
  O2-  O399  1  0.33959567  0.42389886  0.14515838  1
  O2-  O400  1  0.26917192  0.43534907  0.47492260  1
  O2-  O401  1  0.33495826  0.42373466  0.81511695  1
  O2-  O402  1  0.36184372  0.67440490  0.14606674  1
  O2-  O403  1  0.34298652  0.68499731  0.48556608  1
  O2-  O404  1  0.34147700  0.66950634  0.82075586  1
  O2-  O405  1  0.33534100  0.93240256  0.15924164  1
  O2-  O406  1  0.33123258  0.91882248  0.48234886  1
  O2-  O407  1  0.30837622  0.88281371  0.80943051  1
  O2-  O408  1  0.56865336  0.14478612  0.15827007  1
  O2-  O409  1  0.58164009  0.17106234  0.45196885  1
  O2-  O410  1  0.61329205  0.18838107  0.80521568  1
  O2-  O411  1  0.55747247  0.41430442  0.12808863  1
  O2-  O412  1  0.60428397  0.47148793  0.55449871  1
  O2-  O413  1  0.58422738  0.42052387  0.82453221  1
  O2-  O414  1  0.60234034  0.66172213  0.15107381  1
  O2-  O415  1  0.56816089  0.67127458  0.46934547  1
  O2-  O416  1  0.58339656  0.66471332  0.81356057  1
  O2-  O417  1  0.58219969  0.90694852  0.14241504  1
  O2-  O418  1  0.58336537  0.92112308  0.47587041  1
  O2-  O419  1  0.57636937  0.91670506  0.87233551  1
  O2-  O420  1  0.82511608  0.16109619  0.14142320  1
  O2-  O421  1  0.83597935  0.14538566  0.49977854  1
  O2-  O422  1  0.90509127  0.20924964  0.77623066  1
  O2-  O423  1  0.83597521  0.42990840  0.13324690  1
  O2-  O424  1  0.80878091  0.43359419  0.46548627  1
  O2-  O425  1  0.84154582  0.43571662  0.81144090  1
  O2-  O426  1  0.86012159  0.66987368  0.15576972  1
  O2-  O427  1  0.83631456  0.68039167  0.47502468  1
  O2-  O428  1  0.84522127  0.69726016  0.81851471  1
  O2-  O429  1  0.84240253  0.91988668  0.14411534  1
  O2-  O430  1  0.82694743  0.90890071  0.47724840  1
  O2-  O431  1  0.82018616  0.90142283  0.80934465  1
  O2-  O432  1  0.16416624  0.08499723  0.19082011  1
  O2-  O433  1  0.19383588  0.08473721  0.48200304  1
  O2-  O434  1  0.17865247  0.03347047  0.86698166  1
  O2-  O435  1  0.18492834  0.39225093  0.19953698  1
  O2-  O436  1  0.15378249  0.29767727  0.53463310  1
  O2-  O437  1  0.17760578  0.29598509  0.87214018  1
  O2-  O438  1  0.08946162  0.55792670  0.19035587  1
  O2-  O439  1  0.16625596  0.60549549  0.51136874  1
  O2-  O440  1  0.17559013  0.59573333  0.85934893  1
  O2-  O441  1  0.16855358  0.84049034  0.18554621  1
  O2-  O442  1  0.15888267  0.82673780  0.51607023  1
  O2-  O443  1  0.15296211  0.82331915  0.85177300  1
  O2-  O444  1  0.40373981  0.08176470  0.20444142  1
  O2-  O445  1  0.42049640  0.09278101  0.51026257  1
  O2-  O446  1  0.39992077  0.05111570  0.84012758  1
  O2-  O447  1  0.40003778  0.32465537  0.18435423  1
  O2-  O448  1  0.42469277  0.33421384  0.52059211  1
  O2-  O449  1  0.41006076  0.33626109  0.85864393  1
  O2-  O450  1  0.43614238  0.58833095  0.18773590  1
  O2-  O451  1  0.40252937  0.57926190  0.52235744  1
  O2-  O452  1  0.42340282  0.58740627  0.86047009  1
  O2-  O453  1  0.42045377  0.84512802  0.18826039  1
  O2-  O454  1  0.42449064  0.85293958  0.52697091  1
  O2-  O455  1  0.40508757  0.82790362  0.86489971  1
  O2-  O456  1  0.66281322  0.06537727  0.18557922  1
  O2-  O457  1  0.68499307  0.05697302  0.54833095  1
  O2-  O458  1  0.66592894  0.08535209  0.85571108  1
  O2-  O459  1  0.69018689  0.42662406  0.18183821  1
  O2-  O460  1  0.65798602  0.34963373  0.52592578  1
  O2-  O461  1  0.67582709  0.34478597  0.85346034  1
  O2-  O462  1  0.70587760  0.59075035  0.19281326  1
  O2-  O463  1  0.68498903  0.63346553  0.51211303  1
  O2-  O464  1  0.68392239  0.59847313  0.85224559  1
  O2-  O465  1  0.67567060  0.82997538  0.18552168  1
  O2-  O466  1  0.65879418  0.83151919  0.51769770  1
  O2-  O467  1  0.65912103  0.82686194  0.85862782  1
  O2-  O468  1  0.91243118  0.08471967  0.18766114  1
  O2-  O469  1  0.92578930  0.07523934  0.52587150  1
  O2-  O470  1  0.90953365  0.07286461  0.84617643  1
  O2-  O471  1  0.88237968  0.32448419  0.18542231  1
  O2-  O472  1  0.97217626  0.32022058  0.55226247  1
  O2-  O473  1  0.91727051  0.34012540  0.84648703  1
  O2-  O474  1  0.89785671  0.61593739  0.17286362  1
  O2-  O475  1  0.90495068  0.58364976  0.50803832  1
  O2-  O476  1  0.92651883  0.60648219  0.85754101  1
  O2-  O477  1  0.92742670  0.84259703  0.19065113  1
  O2-  O478  1  0.92354990  0.84113610  0.51964714  1
  O2-  O479  1  0.88312818  0.78779715  0.83931086  1
  O2-  O480  1  0.16751601  0.08883613  0.35773004  1
  O2-  O481  1  0.18633524  0.14099760  0.59925402  1
  O2-  O482  1  0.16649804  0.08748824  0.98448014  1
  O2-  O483  1  0.16761085  0.33820849  0.31256182  1
  O2-  O484  1  0.17425109  0.32593915  0.65778291  1
  O2-  O485  1  0.18239150  0.34619567  0.99164598  1
  O2-  O486  1  0.14880620  0.57834246  0.30067825  1
  O2-  O487  1  0.19469347  0.60369065  0.66163470  1
  O2-  O488  1  0.17088368  0.58797778  0.98548068  1
  O2-  O489  1  0.16531069  0.82937641  0.30885436  1
  O2-  O490  1  0.16929643  0.83508089  0.64108766  1
  O2-  O491  1  0.13616016  0.83236161  0.97267116  1
  O2-  O492  1  0.39888563  0.08098319  0.27220535  1
  O2-  O493  1  0.41210326  0.08863276  0.71829120  1
  O2-  O494  1  0.40134816  0.06546494  0.97478486  1
  O2-  O495  1  0.39334807  0.33369981  0.30960824  1
  O2-  O496  1  0.41738620  0.32901376  0.65112610  1
  O2-  O497  1  0.41195166  0.32182299  0.97974016  1
  O2-  O498  1  0.41215198  0.58006194  0.31152911  1
  O2-  O499  1  0.41952967  0.58661917  0.64722436  1
  O2-  O500  1  0.42805373  0.58472415  0.98337534  1
  O2-  O501  1  0.42314308  0.83268135  0.31482826  1
  O2-  O502  1  0.44614531  0.85909924  0.65068542  1
  O2-  O503  1  0.39814904  0.83225015  0.98891121  1
  O2-  O504  1  0.67181075  0.07033117  0.31422810  1
  O2-  O505  1  0.65433093  -0.00522014  0.71043864  1
  O2-  O506  1  0.67179339  0.09126706  0.98192104  1
  O2-  O507  1  0.67781403  0.34511851  0.28561317  1
  O2-  O508  1  0.66428717  0.33047698  0.64850703  1
  O2-  O509  1  0.66266799  0.33610983  0.97380683  1
  O2-  O510  1  0.66201847  0.58550369  0.30225514  1
  O2-  O511  1  0.66192777  0.57152975  0.65657803  1
  O2-  O512  1  0.67729715  0.59031700  0.97097700  1
  O2-  O513  1  0.67517759  0.83950654  0.30846023  1
  O2-  O514  1  0.66304267  0.83185343  0.64200770  1
  O2-  O515  1  0.67382259  0.83456836  0.98276412  1
  O2-  O516  1  0.92338004  0.09073643  0.31439402  1
  O2-  O517  1  0.87607582  0.07866825  0.65458290  1
  O2-  O518  1  0.91355086  0.09025652  0.97223042  1
  O2-  O519  1  0.89406025  0.33336302  0.31478429  1
  O2-  O520  1  0.91605586  0.32157625  0.66736939  1
  O2-  O521  1  0.89653539  0.31552595  0.96587085  1
  O2-  O522  1  0.91178534  0.59677089  0.29175592  1
  O2-  O523  1  0.92312897  0.58647272  0.66241406  1
  O2-  O524  1  0.99014079  0.67763516  0.96834467  1
  O2-  O525  1  0.92249009  0.85015754  0.31416782  1
  O2-  O526  1  0.90914753  0.82552409  0.64247814  1
  O2-  O527  1  0.88216706  0.80444288  0.95411308  1
  O2-  O528  1  0.08300852  0.17434628  0.01578039  1
  O2-  O529  1  0.08123164  0.17375118  0.35959454  1
  O2-  O530  1  0.06020606  0.15926657  0.67757311  1
  O2-  O531  1  0.09668415  0.43088169  0.02151543  1
  O2-  O532  1  0.10319476  0.43749290  0.34976059  1
  O2-  O533  1  0.11177333  0.42925753  0.67853103  1
  O2-  O534  1  0.05193795  0.60757568  0.03172872  1
  O2-  O535  1  0.06832482  0.66423002  0.34216730  1
  O2-  O536  1  0.08419744  0.66604151  0.69140479  1
  O2-  O537  1  0.07716546  0.92691104  0.03715738  1
  O2-  O538  1  0.08583067  0.90947495  0.35252401  1
  O2-  O539  1  0.07383379  0.90738300  0.69182774  1
  O2-  O540  1  0.32940417  0.15878173  0.03027841  1
  O2-  O541  1  0.33601915  0.16739015  0.33582838  1
  O2-  O542  1  0.31715098  0.16633480  0.69128526  1
  O2-  O543  1  0.34858893  0.42044120  0.02244067  1
  O2-  O544  1  0.32227629  0.41971352  0.36118077  1
  O2-  O545  1  0.34309446  0.42325046  0.69415746  1
  O2-  O546  1  0.34051617  0.66652338  0.02157551  1
  O2-  O547  1  0.35110730  0.68079240  0.36070180  1
  O2-  O548  1  0.37096601  0.69837735  0.69915383  1
  O2-  O549  1  0.30042679  0.90070907  0.02666655  1
  O2-  O550  1  0.32489320  0.90249240  0.36301493  1
  O2-  O551  1  0.33579697  0.91449429  0.68936120  1
  O2-  O552  1  0.56335901  0.13175166  0.02726228  1
  O2-  O553  1  0.54839622  0.17935027  0.32729623  1
  O2-  O554  1  0.57697178  0.17283613  0.69837713  1
  O2-  O555  1  0.57081313  0.39099233  0.01061143  1
  O2-  O556  1  0.56795574  0.41600864  0.29319771  1
  O2-  O557  1  0.58087804  0.40796715  0.70243494  1
  O2-  O558  1  0.59489163  0.67184999  0.02507672  1
  O2-  O559  1  0.58264442  0.67380529  0.34611259  1
  O2-  O560  1  0.58385021  0.66809732  0.68799137  1
  O2-  O561  1  0.57760386  0.91706439  -0.00598565  1
  O2-  O562  1  0.58485030  0.91205827  0.35250603  1
  O2-  O563  1  0.61992772  0.95165770  0.65100626  1
  O2-  O564  1  0.83332280  0.17268780  0.01089522  1
  O2-  O565  1  0.83533583  0.16647914  0.36607147  1
  O2-  O566  1  0.84958302  0.18146820  0.72109305  1
  O2-  O567  1  0.83405618  0.40957996  0.01370946  1
  O2-  O568  1  0.82913779  0.43340508  0.33948459  1
  O2-  O569  1  0.83870724  0.42221106  0.68806373  1
  O2-  O570  1  0.84393378  0.66469429  0.02619308  1
  O2-  O571  1  0.85002404  0.68750313  0.35993848  1
  O2-  O572  1  0.84286444  0.66811138  0.69030113  1
  O2-  O573  1  0.84089754  0.91653515  0.01834140  1
  O2-  O574  1  0.83742557  0.92711011  0.35526285  1
  O2-  O575  1  0.82215457  0.90560843  0.68714413  1
