# generated using pymatgen
data_H2O
_symmetry_space_group_name_H-M   'P 1'
_cell_length_a   17.99552514
_cell_length_b   17.99789286
_cell_length_c   22.01402292
_cell_angle_alpha   90.00943476
_cell_angle_beta   90.00389762
_cell_angle_gamma   119.97955329
_symmetry_Int_Tables_number   1
_chemical_formula_structural   H2O
_chemical_formula_sum   'H384 O192'
_cell_volume   6175.97690187
_cell_formula_units_Z   192
loop_
 _symmetry_equiv_pos_site_id
 _symmetry_equiv_pos_as_xyz
  1  'x, y, z'
loop_
 _atom_type_symbol
 _atom_type_oxidation_number
  H+  1.0
  O2-  -2.0
loop_
 _atom_site_type_symbol
 _atom_site_label
 _atom_site_symmetry_multiplicity
 _atom_site_fract_x
 _atom_site_fract_y
 _atom_site_fract_z
 _atom_site_occupancy
  H+  H0  1  0.76530109  0.86601465  0.49103173  1
  H+  H1  1  0.03677164  0.38712374  0.81185021  1
  H+  H2  1  0.32686980  0.78864444  1.01508524  1
  H+  H3  1  1.00204330  0.37525889  0.34562893  1
  H+  H4  1  0.39875987  0.58080415  0.23169235  1
  H+  H5  1  0.45679779  0.61552657  0.17201476  1
  H+  H6  1  -0.01935912  0.60774575  0.50623872  1
  H+  H7  1  0.26580164  0.12089023  0.84135651  1
  H+  H8  1  0.86620729  0.13775609  0.82987713  1
  H+  H9  1  0.23529163  0.08888705  0.65189667  1
  H+  H10  1  0.23251619  0.86907519  0.50485319  1
  H+  H11  1  1.00065833  0.62687010  0.16372899  1
  H+  H12  1  0.98204135  0.37614495  0.51008175  1
  H+  H13  1  0.37531414  0.25451017  0.16258395  1
  H+  H14  1  0.82979363  0.64608522  0.39157799  1
  H+  H15  1  0.63233283  1.02514390  0.17339707  1
  H+  H16  1  0.88813350  0.60043972  0.99100144  1
  H+  H17  1  0.36108996  0.11116535  0.65734799  1
  H+  H18  1  0.10917223  0.63791515  0.15556818  1
  H+  H19  1  0.34599629  0.63085290  0.16038492  1
  H+  H20  1  0.02941411  0.63750845  0.00016867  1
  H+  H21  1  0.84538386  0.16710058  0.43009987  1
  H+  H22  1  0.66258318  0.08338383  0.26906170  1
  H+  H23  1  0.39150867  0.11696289  0.49780117  1
  H+  H24  1  0.85263252  0.87481228  0.15519398  1
  H+  H25  1  0.91367074  0.82792802  0.89567178  1
  H+  H26  1  0.21483103  0.61770089  0.16994823  1
  H+  H27  1  0.86009791  0.71911911  0.83284771  1
  H+  H28  1  0.49294558  0.62555071  0.50131762  1
  H+  H29  1  0.44770286  0.59698318  0.33090141  1
  H+  H30  1  0.89043909  0.85159751  0.50680728  1
  H+  H31  1  0.16405204  0.10410968  0.94391285  1
  H+  H32  1  0.91397787  0.48277854  0.71490069  1
  H+  H33  1  0.77725767  0.88745542  0.99749175  1
  H+  H34  1  0.11504293  0.85928958  0.99849035  1
  H+  H35  1  0.88645943  0.36853984  0.82622433  1
  H+  H36  1  0.27066496  0.89681677  0.00184800  1
  H+  H37  1  0.36623778  0.89137825  0.48830666  1
  H+  H38  1  0.41321241  0.83838978  0.56400175  1
  H+  H39  1  0.84625267  0.46529086  0.83320287  1
  H+  H40  1  0.39306400  0.78544355  0.65868511  1
  H+  H41  1  0.57570610  0.68745304  0.34662009  1
  H+  H42  1  0.97881690  0.83925566  0.32086965  1
  H+  H43  1  -0.01365291  0.87681023  0.16919301  1
  H+  H44  1  0.11643798  0.35594770  0.31667178  1
  H+  H45  1  0.35155310  0.46183015  0.16386788  1
  H+  H46  1  0.89433783  0.11598697  0.50873766  1
  H+  H47  1  0.25630312  0.36363356  0.49134605  1
  H+  H48  1  0.62358390  0.43515760  0.01125329  1
  H+  H49  1  0.81041751  0.41179493  0.77296772  1
  H+  H50  1  0.63599634  0.78915995  0.98988958  1
  H+  H51  1  1.02656962  0.37884357  1.01797723  1
  H+  H52  1  0.99187910  0.83070792  0.67558312  1
  H+  H53  1  0.65094910  0.29717967  0.92933197  1
  H+  H54  1  0.15668705  0.37401441  0.83708693  1
  H+  H55  1  0.77216385  0.11873892  0.17612406  1
  H+  H56  1  0.62279522  0.73756795  0.67417448  1
  H+  H57  1  0.63169956  0.04392584  0.69598608  1
  H+  H58  1  0.58468106  0.43431495  0.14882267  1
  H+  H59  1  0.68389539  0.82965508  0.36675448  1
  H+  H60  1  0.72649463  0.70207826  0.95057415  1
  H+  H61  1  0.10839498  0.47155416  0.00824440  1
  H+  H62  1  0.60009531  0.66847714  0.15490734  1
  H+  H63  1  0.10657950  0.09564580  0.66534569  1
  H+  H64  1  0.36100970  0.98537582  0.00751899  1
  H+  H65  1  0.36501804  0.22466750  0.01045150  1
  H+  H66  1  0.83779584  0.14021865  0.08662653  1
  H+  H67  1  0.31064946  0.41269181  0.38924731  1
  H+  H68  1  0.89392331  0.80400069  0.68586661  1
  H+  H69  1  0.21399726  0.59693101  0.98950337  1
  H+  H70  1  0.23140779  0.13945656  0.99746373  1
  H+  H71  1  0.87172674  0.01108956  0.84433674  1
  H+  H72  1  0.71947425  0.35791923  0.33404052  1
  H+  H73  1  0.11318238  0.40485584  0.65269657  1
  H+  H74  1  0.10958016  0.86508177  0.85636765  1
  H+  H75  1  0.40622990  0.53793279  0.50228363  1
  H+  H76  1  0.87492570  0.35647767  0.32611846  1
  H+  H77  1  0.35169161  0.72315860  0.15338913  1
  H+  H78  1  0.33339352  0.15427935  0.09849915  1
  H+  H79  1  0.34023524  0.69963007  0.00790899  1
  H+  H80  1  0.22367958  0.85402997  0.88442371  1
  H+  H81  1  0.14866458  1.03801672  0.50180117  1
  H+  H82  1  0.38658759  0.35459479  0.51371329  1
  H+  H83  1  0.85299906  0.60218977  0.48264452  1
  H+  H84  1  0.89076944  0.70412759  0.64072443  1
  H+  H85  1  0.67224520  0.83585180  0.89655544  1
  H+  H86  1  0.12722989  0.89988906  0.49734619  1
  H+  H87  1  0.74292257  0.12906373  0.00513610  1
  H+  H88  1  0.88853271  0.89765995  0.33354889  1
  H+  H89  1  0.62793738  0.62892165  0.49824937  1
  H+  H90  1  0.10050694  0.22063075  0.11681331  1
  H+  H91  1  0.07198359  0.41329241  0.43782188  1
  H+  H92  1  0.61722338  0.22635586  0.17179380  1
  H+  H93  1  0.63894206  0.36036444  0.50406900  1
  H+  H94  1  0.46973854  0.10291820  0.83596957  1
  H+  H95  1  0.62966614  0.50940020  0.51532610  1
  H+  H96  1  0.65254246  0.88542834  0.98862744  1
  H+  H97  1  -0.02638787  0.11747213  0.65969445  1
  H+  H98  1  0.38253159  0.10855919  0.84205685  1
  H+  H99  1  0.86452437  0.45064015  0.16724643  1
  H+  H100  1  0.47121415  0.86302674  0.50389977  1
  H+  H101  1  0.08601513  0.46690732  0.34395516  1
  H+  H102  1  0.40139284  0.53943326  0.83970013  1
  H+  H103  1  0.50804031  0.13528421  0.48782361  1
  H+  H104  1  0.11874530  0.64282653  0.49313138  1
  H+  H105  1  0.77210756  0.62941499  0.33359580  1
  H+  H106  1  0.78914991  0.64775670  0.00163678  1
  H+  H107  1  0.47987685  0.10740780  0.31660753  1
  H+  H108  1  0.11177954  0.14598759  0.33776747  1
  H+  H109  1  0.77762135  0.38478426  0.49200778  1
  H+  H110  1  0.18854930  0.30713606  0.85346773  1
  H+  H111  1  0.12055862  0.08226794  0.84339750  1
  H+  H112  1  0.80451133  0.66180970  0.14950120  1
  H+  H113  1  0.36814274  0.47386693  1.00765548  1
  H+  H114  1  0.22898695  0.37062655  0.66566147  1
  H+  H115  1  0.72159551  0.11228729  0.32951985  1
  H+  H116  1  0.80995002  0.91265902  0.33537564  1
  H+  H117  1  0.62225640  0.59391225  0.33658421  1
  H+  H118  1  0.13309469  0.86797109  0.33023584  1
  H+  H119  1  0.35871689  0.88644874  0.82656267  1
  H+  H120  1  0.23194611  0.61399892  0.50303086  1
  H+  H121  1  0.03351674  0.94256670  0.36334832  1
  H+  H122  1  0.88282555  0.60240502  0.84419353  1
  H+  H123  1  0.60638399  0.22157846  0.33953967  1
  H+  H124  1  0.72626065  0.87907397  0.66353021  1
  H+  H125  1  0.86346850  0.91294555  0.66063112  1
  H+  H126  1  0.61116093  0.65563094  0.00404078  1
  H+  H127  1  0.60932683  0.13283091  0.33935608  1
  H+  H128  1  0.62078614  0.88368241  0.82398782  1
  H+  H129  1  0.12683085  0.52655469  0.17228425  1
  H+  H130  1  0.39312289  1.02594652  0.49212897  1
  H+  H131  1  0.35019532  0.21227188  0.83817927  1
  H+  H132  1  1.00569198  0.61271823  0.82746577  1
  H+  H133  1  0.61055103  0.89676187  0.33556524  1
  H+  H134  1  0.63531613  1.00160294  0.00493021  1
  H+  H135  1  0.73058534  0.85751767  0.83627709  1
  H+  H136  1  0.36181235  -0.02869206  0.67621405  1
  H+  H137  1  0.36505187  0.50798737  0.67094814  1
  H+  H138  1  0.86820836  0.88715514  0.99766539  1
  H+  H139  1  0.27167904  0.89109551  0.33403649  1
  H+  H140  1  0.47486021  0.61998742  0.98973844  1
  H+  H141  1  0.20732686  0.36080872  0.31616484  1
  H+  H142  1  0.64844948  0.57557236  0.17753564  1
  H+  H143  1  0.38056453  0.10391093  0.17259645  1
  H+  H144  1  0.38199311  1.01373393  0.16928581  1
  H+  H145  1  0.33790686  0.47490745  0.33176239  1
  H+  H146  1  0.64587471  0.17832964  0.99377110  1
  H+  H147  1  0.36272783  0.73267343  0.49519343  1
  H+  H148  1  0.62557026  0.78027349  0.52065342  1
  H+  H149  1  0.62288938  0.32520015  0.99923110  1
  H+  H150  1  0.88645614  0.51010835  -0.00621589  1
  H+  H151  1  0.48971498  0.63275921  0.65868785  1
  H+  H152  1  0.39050061  0.36833811  0.84361783  1
  H+  H153  1  0.27310992  0.65858657  0.34133658  1
  H+  H154  1  0.19761312  0.54484183  0.30529749  1
  H+  H155  1  0.48689020  0.12949666  0.98713819  1
  H+  H156  1  0.29766377  0.42160350  0.82964977  1
  H+  H157  1  0.15462909  0.28707991  0.22148841  1
  H+  H158  1  0.10654593  0.23205994  0.33466747  1
  H+  H159  1  0.68614862  0.80589796  0.29874804  1
  H+  H160  1  0.87227509  0.23037043  0.82880169  1
  H+  H161  1  0.13228789  0.60951497  -0.01094369  1
  H+  H162  1  0.63630115  0.87714174  0.66356662  1
  H+  H163  1  0.53189561  0.13807560  0.16294859  1
  H+  H164  1  0.28682352  0.14456257  0.49475841  1
  H+  H165  1  0.86101934  0.50357031  0.67080421  1
  H+  H166  1  0.62877980  0.50886258  0.84683740  1
  H+  H167  1  0.85607198  0.13350883  0.33449816  1
  H+  H168  1  0.14263060  0.78113601  0.50571119  1
  H+  H169  1  0.12933676  0.00065072  0.85648902  1
  H+  H170  1  0.14719857  0.36625119  1.00804643  1
  H+  H171  1  0.35245204  0.97065256  0.83179644  1
  H+  H172  1  0.97883413  0.13137080  0.31621861  1
  H+  H173  1  0.64216894  0.10239476  0.85230726  1
  H+  H174  1  0.38820121  0.87055989  0.66189419  1
  H+  H175  1  0.39074422  0.36284666  -0.00098447  1
  H+  H176  1  0.38804068  0.78538335  0.32139516  1
  H+  H177  1  0.11983138  0.14808447  0.48724092  1
  H+  H178  1  0.27076227  0.89064039  0.15917050  1
  H+  H179  1  0.38404468  0.32001265  0.67209775  1
  H+  H180  1  0.52372080  0.37831293  0.50503276  1
  H+  H181  1  0.86597642  0.88161492  0.82162645  1
  H+  H182  1  0.48822568  0.34643457  0.15002630  1
  H+  H183  1  0.60558053  0.89940677  0.14720407  1
  H+  H184  1  0.66612826  0.61957872  0.66733278  1
  H+  H185  1  0.86008110  0.47589983  0.33669973  1
  H+  H186  1  0.83231480  0.65599076  0.77633100  1
  H+  H187  1  0.97450465  0.84713465  0.83958911  1
  H+  H188  1  0.62059151  0.72566604  0.83050506  1
  H+  H189  1  0.49685692  0.63035615  0.84332481  1
  H+  H190  1  0.85094118  0.21909219  0.33998536  1
  H+  H191  1  0.97911288  0.11253384  0.51382133  1
  H+  H192  1  0.13484472  0.87385314  0.17316137  1
  H+  H193  1  0.36079603  0.88936202  0.33019559  1
  H+  H194  1  0.89854075  0.33806442  0.17473183  1
  H+  H195  1  0.51345735  0.89312917  0.14845187  1
  H+  H196  1  0.82814395  0.89074621  0.43389455  1
  H+  H197  1  0.90040385  0.03900557  0.31639463  1
  H+  H198  1  0.88150798  0.34320057  1.00883464  1
  H+  H199  1  0.47589808  0.87403504  0.31863025  1
  H+  H200  1  0.88066904  0.00927082  0.99458419  1
  H+  H201  1  0.71847870  0.59720728  0.84024471  1
  H+  H202  1  0.86397367  0.15397363  0.67168900  1
  H+  H203  1  0.89370624  0.74628045  0.15587087  1
  H+  H204  1  0.90253190  0.62458289  0.17032102  1
  H+  H205  1  0.73425065  0.36833524  0.65376355  1
  H+  H206  1  0.37746270  0.86096199  0.16194597  1
  H+  H207  1  0.70508917  0.53745171  0.19784239  1
  H+  H208  1  0.89489230  0.77501428  -0.01238134  1
  H+  H209  1  0.09980854  0.72089440  0.67800472  1
  H+  H210  1  -0.02065762  0.61650329  0.32198203  1
  H+  H211  1  0.36740008  0.82262988  0.99904555  1
  H+  H212  1  0.77049084  0.36307662  0.01014432  1
  H+  H213  1  0.53568409  0.38821924  0.68032641  1
  H+  H214  1  0.71932331  0.13388228  0.69645676  1
  H+  H215  1  0.03965962  0.38776911  0.17073686  1
  H+  H216  1  0.82748692  0.90452731  0.09387327  1
  H+  H217  1  0.81728817  0.17912692  0.49532065  1
  H+  H218  1  0.13316558  0.30955148  0.68812632  1
  H+  H219  1  0.36379191  0.20045111  0.66111934  1
  H+  H220  1  0.50991751  0.91002118  0.97120730  1
  H+  H221  1  0.36569061  0.13662943  1.00543035  1
  H+  H222  1  0.61859154  1.01963366  0.52482577  1
  H+  H223  1  0.61187559  0.63074324  0.82920916  1
  H+  H224  1  0.88820610  0.61453190  0.31788598  1
  H+  H225  1  0.37198404  0.24242459  0.35007056  1
  H+  H226  1  -0.00102588  0.64792382  0.67617697  1
  H+  H227  1  0.39192522  0.26849931  0.51220424  1
  H+  H228  1  0.23117860  0.85589483  0.66389427  1
  H+  H229  1  0.71312874  0.34775318  0.84996857  1
  H+  H230  1  0.14307924  0.53715474  0.65307490  1
  H+  H231  1  0.61879065  0.20838554  0.82304211  1
  H+  H232  1  0.61194742  0.34654453  0.17547854  1
  H+  H233  1  0.64157101  0.28410139  0.65378600  1
  H+  H234  1  0.26862416  0.13170043  0.15413234  1
  H+  H235  1  0.47386523  0.37149626  0.34026152  1
  H+  H236  1  0.88805661  0.37712251  0.66147232  1
  H+  H237  1  0.11128803  0.95006750  0.69299981  1
  H+  H238  1  0.60689508  0.89037110  0.49436185  1
  H+  H239  1  0.38195226  0.34944623  0.16209572  1
  H+  H240  1  0.11746876  0.99334919  0.15291821  1
  H+  H241  1  0.11209396  0.72919717  0.33866597  1
  H+  H242  1  0.11172186  0.13154127  1.03512256  1
  H+  H243  1  0.37161971  0.61864367  0.32735539  1
  H+  H244  1  0.88519110  0.37778770  0.50673741  1
  H+  H245  1  0.61470065  0.47099728  0.35549042  1
  H+  H246  1  0.88676718  0.28592350  0.66359651  1
  H+  H247  1  0.62039727  0.34120869  0.85168188  1
  H+  H248  1  0.36164485  0.64450178  0.82622599  1
  H+  H249  1  0.24188706  0.62717299  0.65520201  1
  H+  H250  1  0.12218166  0.86778847  0.68396253  1
  H+  H251  1  0.64422458  0.11864108  0.17779734  1
  H+  H252  1  0.28578917  0.15222441  0.34957673  1
  H+  H253  1  0.52779777  0.90326784  0.67336669  1
  H+  H254  1  0.66803168  0.57464541  0.57203383  1
  H+  H255  1  0.12935291  0.78231054  0.17145757  1
  H+  H256  1  0.60819858  0.15342796  0.68202446  1
  H+  H257  1  0.28887574  0.31701613  0.44851838  1
  H+  H258  1  0.70793510  0.39804954  0.19518912  1
  H+  H259  1  0.14985599  0.03931829  0.33055424  1
  H+  H260  1  0.62534853  0.97403250  0.83190071  1
  H+  H261  1  0.65275205  0.52471692  0.67212573  1
  H+  H262  1  0.87278828  0.21031256  1.03370098  1
  H+  H263  1  0.73616865  0.11451511  0.84644505  1
  H+  H264  1  0.13211336  0.11103638  0.12964301  1
  H+  H265  1  0.60647183  0.37813907  0.35386948  1
  H+  H266  1  0.88442039  0.75977893  0.32277505  1
  H+  H267  1  0.09276172  0.88858488  0.78861930  1
  H+  H268  1  0.27747543  0.38595270  0.01142149  1
  H+  H269  1  0.37419409  0.42728922  0.67087706  1
  H+  H270  1  0.72591563  0.87214529  0.15927087  1
  H+  H271  1  0.91642220  0.09418556  0.59920031  1
  H+  H272  1  0.08919789  0.18724637  0.81348447  1
  H+  H273  1  1.10273383  0.61848410  0.82124309  1
  H+  H274  1  0.14088614  0.52263873  0.83452363  1
  H+  H275  1  0.10481381  0.38427539  0.49693075  1
  H+  H276  1  0.22692658  0.31984267  0.17110165  1
  H+  H277  1  0.41086000  0.83447283  0.22063387  1
  H+  H278  1  0.63437499  0.11151488  0.51929556  1
  H+  H279  1  0.60989526  0.23342274  0.48819766  1
  H+  H280  1  0.47611213  0.35431904  0.99480424  1
  H+  H281  1  0.88191803  0.10445784  0.00466919  1
  H+  H282  1  -0.03832459  0.09385136  0.84232319  1
  H+  H283  1  0.48402333  0.86750244  0.82411897  1
  H+  H284  1  0.47750750  0.10817289  0.64727791  1
  H+  H285  1  0.51528374  0.37185839  0.83544414  1
  H+  H286  1  0.58148577  0.40296419  0.77904045  1
  H+  H287  1  0.38481702  0.36967706  0.32967622  1
  H+  H288  1  0.02511289  0.40428965  0.66414979  1
  H+  H289  1  0.65402947  0.32932834  0.27812873  1
  H+  H290  1  0.15773941  0.32782032  0.56626657  1
  H+  H291  1  0.91374486  0.56842901  0.90137136  1
  H+  H292  1  0.32494712  0.92335794  0.09633705  1
  H+  H293  1  0.12657344  0.27122381  0.50524598  1
  H+  H294  1  0.98234728  0.86085466  0.98759867  1
  H+  H295  1  0.61781903  0.13913115  0.77472858  1
  H+  H296  1  0.57757611  0.91967795  0.43415304  1
  H+  H297  1  0.11378486  0.64122425  0.33899958  1
  H+  H298  1  0.57672223  0.16860662  0.42450271  1
  H+  H299  1  0.34670229  0.17838737  0.43436835  1
  H+  H300  1  0.83024301  0.39942317  0.06858401  1
  H+  H301  1  0.43136065  0.60492684  0.59842707  1
  H+  H302  1  0.42248538  0.08855808  0.93171572  1
  H+  H303  1  0.67031094  0.72050042  0.46791578  1
  H+  H304  1  0.67232118  0.32927677  0.55959588  1
  H+  H305  1  0.42300739  0.32593587  0.60491986  1
  H+  H306  1  0.78378618  0.35684507  0.16622814  1
  H+  H307  1  0.13995798  0.52431068  0.50623519  1
  H+  H308  1  0.33243609  0.41067547  0.10155888  1
  H+  H309  1  0.64815968  0.55655744  0.27979444  1
  H+  H310  1  0.16784590  0.00626706  0.61293460  1
  H+  H311  1  0.36868446  0.64648666  0.48995175  1
  H+  H312  1  0.79442224  0.61079425  0.64298392  1
  H+  H313  1  0.16081392  0.58432189  0.25912687  1
  H+  H314  1  0.59104025  0.67340985  0.73049610  1
  H+  H315  1  0.66539532  0.84718585  0.57384207  1
  H+  H316  1  0.93141496  0.83883859  0.56732728  1
  H+  H317  1  0.17217958  0.16942634  0.18415959  1
  H+  H318  1  0.39230709  0.78036625  0.82733347  1
  H+  H319  1  0.17709510  0.09566014  0.27067445  1
  H+  H320  1  0.66946677  0.87274088  0.21576926  1
  H+  H321  1  0.09226455  0.92632041  0.09761064  1
  H+  H322  1  0.07897340  0.66841226  0.09355755  1
  H+  H323  1  0.56775899  0.63885019  0.40710782  1
  H+  H324  1  0.03862859  0.90237133  0.49930272  1
  H+  H325  1  0.36861908  0.64912842  0.66969717  1
  H+  H326  1  0.61001932  0.98463868  0.33789239  1
  H+  H327  1  0.91683800  0.57963977  0.56498673  1
  H+  H328  1  0.17970082  0.59405581  0.58859329  1
  H+  H329  1  0.41787328  0.07379966  0.24602086  1
  H+  H330  1  0.42670669  0.59615109  0.90790507  1
  H+  H331  1  0.32984625  0.67023599  0.72934397  1
  H+  H332  1  0.33265344  0.68160810  0.40050363  1
  H+  H333  1  0.91862155  0.34947223  0.57338336  1
  H+  H334  1  0.06192585  0.65296981  0.75931759  1
  H+  H335  1  0.85369179  0.67340708  0.05853823  1
  H+  H336  1  0.90126278  0.29099409  0.95958971  1
  H+  H337  1  0.33593249  0.91971799  0.42770431  1
  H+  H338  1  0.17589210  0.09957530  0.55870495  1
  H+  H339  1  0.62580040  0.39347112  0.67835269  1
  H+  H340  1  0.44751835  0.88071472  0.91464708  1
  H+  H341  1  0.59739176  0.75319813  0.15371511  1
  H+  H342  1  0.35218991  0.45150174  0.76771753  1
  H+  H343  1  0.41023376  0.33084852  0.90369505  1
  H+  H344  1  0.04289430  0.81149274  0.04634098  1
  H+  H345  1  0.12689030  0.19062880  0.66654535  1
  H+  H346  1  0.06553230  0.12475363  0.75866016  1
  H+  H347  1  0.11985759  0.72855532  -0.00531199  1
  H+  H348  1  0.86339075  0.99934214  0.67099606  1
  H+  H349  1  0.94492122  0.37063417  0.87912289  1
  H+  H350  1  0.93138508  0.59322587  0.23341911  1
  H+  H351  1  0.83486882  0.41982400  0.39770504  1
  H+  H352  1  0.32861200  0.91505185  0.73868693  1
  H+  H353  1  0.17257553  0.83095612  0.60327301  1
  H+  H354  1  0.09236325  0.42405070  0.10943693  1
  H+  H355  1  0.41901100  0.06881318  0.58858410  1
  H+  H356  1  0.90427710  0.07617277  0.93437759  1
  H+  H357  1  0.86860530  0.47645601  0.49472347  1
  H+  H358  1  0.15973764  0.57986305  0.89513024  1
  H+  H359  1  0.89999286  0.25154861  0.18577477  1
  H+  H360  1  0.91172947  0.32234815  0.27167111  1
  H+  H361  1  0.57425545  0.37330040  0.06857928  1
  H+  H362  1  0.08153760  0.17459033  0.43040032  1
  H+  H363  1  0.59274788  0.93437068  0.05849936  1
  H+  H364  1  0.17581606  0.33911043  0.94865187  1
  H+  H365  1  0.88359280  0.10001752  0.22444277  1
  H+  H366  1  0.31680009  0.64454411  0.06729418  1
  H+  H367  1  0.27063766  0.64030183  0.82520367  1
  H+  H368  1  0.55810007  0.18868219  0.71954477  1
  H+  H369  1  0.58531486  0.92295555  0.73389413  1
  H+  H370  1  0.57218932  0.68266387  0.06064691  1
  H+  H371  1  0.69023130  0.10372112  0.94146597  1
  H+  H372  1  0.10132348  0.42378157  0.75677125  1
  H+  H373  1  0.83784469  0.91959441  0.76489887  1
  H+  H374  1  0.38618339  1.01581380  0.31726203  1
  H+  H375  1  0.58194100  0.41085363  0.44457693  1
  H+  H376  1  0.09324860  0.93323252  0.41054055  1
  H+  H377  1  0.84429322  0.18317753  0.73492537  1
  H+  H378  1  0.37827412  0.60580753  0.98903961  1
  H+  H379  1  0.76475103  0.60355488  0.48501945  1
  H+  H380  1  0.15767343  0.83828124  0.26869789  1
  H+  H381  1  0.08547685  0.67036267  0.43493993  1
  H+  H382  1  0.67650104  0.60707655  0.92943386  1
  H+  H383  1  0.92525575  0.83393422  0.22792374  1
  O2-  O384  1  0.06164657  0.19058495  0.08191742  1
  O2-  O385  1  0.08659093  0.17665299  0.47593600  1
  O2-  O386  1  0.05792677  0.12639709  0.80358197  1
  O2-  O387  1  0.09525938  0.43254292  0.15427164  1
  O2-  O388  1  0.07597183  0.41718133  0.48358040  1
  O2-  O389  1  0.09881551  0.41668844  0.80155250  1
  O2-  O390  1  0.07497584  0.66592909  0.13989325  1
  O2-  O391  1  0.08713866  0.67215623  0.48017128  1
  O2-  O392  1  0.06488101  0.64283108  0.80740094  1
  O2-  O393  1  0.08957259  0.93184764  0.14252539  1
  O2-  O394  1  0.09963793  0.93338364  0.48305274  1
  O2-  O395  1  0.08150374  0.89160298  0.83237482  1
  O2-  O396  1  0.33003978  0.15148412  0.14456169  1
  O2-  O397  1  0.34821848  0.17371519  0.48195078  1
  O2-  O398  1  0.32515621  0.15214518  0.82521465  1
  O2-  O399  1  0.32897465  0.40358643  0.14684083  1
  O2-  O400  1  0.30879911  0.37211750  0.46890237  1
  O2-  O401  1  0.35772372  0.45169134  0.81282348  1
  O2-  O402  1  0.31731013  0.66088249  0.14153757  1
  O2-  O403  1  0.33332429  0.67209802  0.47794753  1
  O2-  O404  1  0.32919452  0.66860637  0.80666839  1
  O2-  O405  1  0.33017236  0.91903243  0.14323117  1
  O2-  O406  1  0.33781526  0.92370174  0.47297608  1
  O2-  O407  1  0.32065134  0.91030916  0.81652236  1
  O2-  O408  1  0.59397459  0.16892999  0.15429775  1
  O2-  O409  1  0.57416477  0.17185576  0.47127551  1
  O2-  O410  1  0.58808546  0.14777903  0.80976257  1
  O2-  O411  1  0.55791571  0.37456219  0.13466358  1
  O2-  O412  1  0.58454802  0.40906833  0.49055169  1
  O2-  O413  1  0.57810547  0.39934576  0.82432562  1
  O2-  O414  1  0.56522438  0.69161379  0.13910263  1
  O2-  O415  1  0.61323582  0.67096690  0.47687627  1
  O2-  O416  1  0.58370126  0.66409045  0.81616822  1
  O2-  O417  1  0.57449344  0.92987912  0.13522788  1
  O2-  O418  1  0.57185743  0.91514646  0.47903737  1
  O2-  O419  1  0.59422967  0.91796441  0.81040580  1
  O2-  O420  1  0.83493005  0.14509888  0.16380589  1
  O2-  O421  1  0.86454931  0.17978330  0.47327202  1
  O2-  O422  1  0.83905590  0.17060115  0.81394014  1
  O2-  O423  1  0.83979373  0.39427889  0.14740693  1
  O2-  O424  1  0.83908476  0.41466489  0.47853049  1
  O2-  O425  1  0.81392738  0.40463977  0.81726909  1
  O2-  O426  1  0.86485885  0.68370987  0.13984192  1
  O2-  O427  1  0.81311463  0.61357360  0.45865544  1
  O2-  O428  1  0.82952056  0.65593633  0.82061882  1
  O2-  O429  1  0.81344384  0.89237903  0.13751472  1
  O2-  O430  1  0.80055436  0.84859573  0.46697701  1
  O2-  O431  1  0.83513283  0.91286409  0.80993894  1
  O2-  O432  1  0.16570941  0.11466296  0.16775822  1
  O2-  O433  1  0.17842273  0.10040966  0.51393790  1
  O2-  O434  1  0.15439091  0.06256458  0.86637436  1
  O2-  O435  1  0.17223608  0.26901909  0.18447272  1
  O2-  O436  1  0.15730284  0.33246156  0.52174009  1
  O2-  O437  1  0.20046906  0.36575710  0.85954422  1
  O2-  O438  1  0.15430972  0.59020866  0.18561538  1
  O2-  O439  1  0.17244779  0.58508195  0.52121381  1
  O2-  O440  1  0.16245110  0.58232783  0.84913355  1
  O2-  O441  1  0.15981278  0.83964108  0.19040088  1
  O2-  O442  1  0.17332154  0.84081138  0.52224564  1
  O2-  O443  1  0.16343833  0.82247811  0.89876414  1
  O2-  O444  1  0.41322768  0.07473995  0.18721956  1
  O2-  O445  1  0.42509444  0.08674496  0.50868191  1
  O2-  O446  1  0.41329401  0.07693198  0.85570980  1
  O2-  O447  1  0.41238886  0.31723334  0.17232883  1
  O2-  O448  1  0.41925576  0.32848090  0.53064053  1
  O2-  O449  1  0.41269313  0.33138594  0.85804592  1
  O2-  O450  1  0.39724733  0.57864736  0.18636638  1
  O2-  O451  1  0.43316828  0.59755884  0.51594429  1
  O2-  O452  1  0.43276869  0.60105005  0.85856179  1
  O2-  O453  1  0.40786366  0.82963609  0.17553956  1
  O2-  O454  1  0.40978525  0.83298640  0.51861416  1
  O2-  O455  1  0.42323692  0.84206821  0.83734112  1
  O2-  O456  1  0.66907695  0.08254546  0.19293087  1
  O2-  O457  1  0.64122588  0.07380191  0.54760255  1
  O2-  O458  1  0.67924223  0.07949811  0.86653460  1
  O2-  O459  1  0.65811694  0.34068600  0.19915653  1
  O2-  O460  1  0.66939224  0.32718861  0.51413960  1
  O2-  O461  1  0.65309915  0.31174145  0.86569317  1
  O2-  O462  1  0.64751615  0.52948906  0.20143971  1
  O2-  O463  1  0.66154420  0.57191235  0.52720661  1
  O2-  O464  1  0.65897699  0.57175224  0.85644479  1
  O2-  O465  1  0.66409152  0.85378754  0.17377215  1
  O2-  O466  1  0.66117899  0.84197616  0.52809631  1
  O2-  O467  1  0.66998082  0.82665152  0.85137145  1
  O2-  O468  1  0.85714970  0.08044166  0.18345765  1
  O2-  O469  1  0.92040389  0.08560380  0.53060383  1
  O2-  O470  1  0.90335104  0.07165296  0.86005339  1
  O2-  O471  1  0.92855568  0.31358048  0.19731568  1
  O2-  O472  1  0.92091880  0.35159324  0.52705406  1
  O2-  O473  1  0.92807247  0.34897009  0.83783665  1
  O2-  O474  1  0.93230365  0.59307517  0.18579757  1
  O2-  O475  1  0.91999627  0.57089191  0.51962521  1
  O2-  O476  1  0.91062045  0.56802243  0.85538051  1
  O2-  O477  1  0.92592179  0.83658273  0.18256358  1
  O2-  O478  1  0.94061727  0.84966898  0.52371885  1
  O2-  O479  1  0.91186166  0.82182638  0.85024428  1
  O2-  O480  1  0.17626575  0.09899384  0.31504344  1
  O2-  O481  1  0.17038121  0.05111025  0.63935243  1
  O2-  O482  1  0.17852936  0.13715430  0.98211903  1
  O2-  O483  1  0.14690245  0.32686136  0.30108402  1
  O2-  O484  1  0.16874971  0.33186643  0.65175392  1
  O2-  O485  1  0.18087048  0.34000792  0.99283520  1
  O2-  O486  1  0.16757206  0.57757277  0.30455749  1
  O2-  O487  1  0.18030312  0.59729375  0.63623912  1
  O2-  O488  1  0.15543632  0.57345053  0.97185190  1
  O2-  O489  1  0.16008827  0.83601377  0.31419276  1
  O2-  O490  1  0.17013013  0.82469375  0.64841849  1
  O2-  O491  1  0.17106954  0.82452761  0.96660755  1
  O2-  O492  1  0.42095180  0.07479053  0.29765136  1
  O2-  O493  1  0.41801201  0.06696988  0.63370517  1
  O2-  O494  1  0.42560168  0.09589310  0.97704395  1
  O2-  O495  1  0.41590021  0.33841381  0.32244235  1
  O2-  O496  1  0.43183660  0.32187832  0.65003532  1
  O2-  O497  1  0.41652830  0.32965363  0.98049493  1
  O2-  O498  1  0.39237720  0.58039056  0.31071322  1
  O2-  O499  1  0.42875396  0.60596594  0.64349920  1
  O2-  O500  1  0.41617817  0.58507015  0.97059929  1
  O2-  O501  1  0.41565015  0.84358475  0.30275497  1
  O2-  O502  1  0.42142643  0.84500604  0.64322252  1
  O2-  O503  1  0.46088995  0.91208639  0.95339395  1
  O2-  O504  1  0.66008064  0.08436860  0.31483131  1
  O2-  O505  1  0.65775315  0.10592319  0.70754590  1
  O2-  O506  1  0.68740302  0.11481456  0.98585385  1
  O2-  O507  1  0.65710990  0.32561102  0.32313536  1
  O2-  O508  1  0.67591664  0.34473536  0.63802487  1
  O2-  O509  1  0.65655557  0.29481654  0.97930311  1
  O2-  O510  1  0.65983701  0.57101673  0.32338116  1
  O2-  O511  1  0.68998195  0.58315197  0.65390506  1
  O2-  O512  1  0.69638222  0.64388640  0.96709388  1
  O2-  O513  1  0.69006794  0.85136939  0.32522786  1
  O2-  O514  1  0.66566765  0.84487393  0.64958938  1
  O2-  O515  1  0.67554082  0.84727575  0.97345795  1
  O2-  O516  1  0.91813127  0.09760694  0.30169148  1
  O2-  O517  1  0.91406557  0.09653933  0.64649089  1
  O2-  O518  1  0.90743846  0.07302300  0.98044861  1
  O2-  O519  1  0.90524920  0.32418576  0.31693597  1
  O2-  O520  1  0.91792726  0.34693955  0.64634325  1
  O2-  O521  1  0.91368669  0.31159905  1.00134861  1
  O2-  O522  1  0.92152139  0.58677944  0.30183357  1
  O2-  O523  1  0.90180080  0.59468936  0.63686793  1
  O2-  O524  1  0.91712201  0.56878727  0.97626839  1
  O2-  O525  1  0.92033656  0.82042273  0.30672862  1
  O2-  O526  1  0.93153602  0.79666345  0.65765943  1
  O2-  O527  1  0.92175807  0.83542813  0.97286294  1
  O2-  O528  1  0.07417988  0.11645372  0.07289245  1
  O2-  O529  1  0.07805574  0.17242468  0.35244128  1
  O2-  O530  1  0.08499392  0.13320125  0.68102437  1
  O2-  O531  1  0.08750468  0.41569805  0.02943054  1
  O2-  O532  1  0.06349957  0.40879994  0.36058519  1
  O2-  O533  1  0.08842518  0.43602121  0.67365462  1
  O2-  O534  1  0.08824812  0.67001985  0.01720619  1
  O2-  O535  1  0.08108843  0.66822570  0.35321892  1
  O2-  O536  1  0.05531447  0.66604284  0.69674806  1
  O2-  O537  1  0.07229315  0.86720964  0.02615588  1
  O2-  O538  1  0.08347355  0.93463304  0.36474156  1
  O2-  O539  1  0.08600394  0.88930207  0.70499861  1
  O2-  O540  1  0.33509082  0.16423432  0.02502356  1
  O2-  O541  1  0.34407346  0.18199834  0.36694340  1
  O2-  O542  1  0.32698137  0.13896546  0.66945600  1
  O2-  O543  1  0.34081992  0.41540469  0.02448774  1
  O2-  O544  1  0.31015292  0.41350422  0.34444884  1
  O2-  O545  1  0.33669612  0.44721642  0.68732095  1
  O2-  O546  1  0.31719149  0.64008509  0.02123299  1
  O2-  O547  1  0.33327671  0.68348580  0.35483210  1
  O2-  O548  1  0.33065284  0.67173753  0.68365957  1
  O2-  O549  1  0.31711090  0.93528154  0.03012785  1
  O2-  O550  1  0.33296956  0.92171394  0.34716660  1
  O2-  O551  1  0.33027874  0.91197141  0.69280487  1
  O2-  O552  1  0.60707463  0.20457567  0.00029264  1
  O2-  O553  1  0.57434594  0.15987904  0.35350927  1
  O2-  O554  1  0.57475193  0.18515256  0.67769511  1
  O2-  O555  1  0.58586299  0.37485236  0.02151432  1
  O2-  O556  1  0.58043049  0.41116907  0.37111878  1
  O2-  O557  1  0.59461312  0.42013363  0.69775277  1
  O2-  O558  1  0.57371485  0.67940227  0.01534150  1
  O2-  O559  1  0.55185523  0.62945245  0.36271231  1
  O2-  O560  1  0.59428069  0.67531750  0.68554813  1
  O2-  O561  1  0.60981099  0.93979084  0.01476746  1
  O2-  O562  1  0.57732418  0.92232550  0.35116192  1
  O2-  O563  1  0.58797632  0.93271846  0.68892464  1
  O2-  O564  1  0.83969041  0.14730497  0.04109497  1
  O2-  O565  1  0.82184582  0.15777283  0.35321125  1
  O2-  O566  1  0.83915901  0.18772583  0.69006327  1
  O2-  O567  1  0.83066327  0.39876011  0.02332635  1
  O2-  O568  1  0.82829696  0.41640219  0.35262356  1
  O2-  O569  1  0.85768491  0.45319744  0.69516075  1
  O2-  O570  1  0.84977628  0.66831140  0.01353265  1
  O2-  O571  1  0.83356108  0.65844347  0.34580580  1
  O2-  O572  1  0.85419538  0.64131824  0.62400541  1
  O2-  O573  1  0.83804521  0.91747256  0.01318554  1
  O2-  O574  1  0.86879740  0.93580509  0.35084632  1
  O2-  O575  1  0.83576057  0.93701195  0.68546456  1
