# generated using pymatgen
data_H2O
_symmetry_space_group_name_H-M   'P 1'
_cell_length_a   17.99982463
_cell_length_b   18.00506677
_cell_length_c   21.99809938
_cell_angle_alpha   90.01884844
_cell_angle_beta   90.00822936
_cell_angle_gamma   119.99565220
_symmetry_Int_Tables_number   1
_chemical_formula_structural   H2O
_chemical_formula_sum   'H384 O192'
_cell_volume   6174.44285758
_cell_formula_units_Z   192
loop_
 _symmetry_equiv_pos_site_id
 _symmetry_equiv_pos_as_xyz
  1  'x, y, z'
loop_
 _atom_type_symbol
 _atom_type_oxidation_number
  H+  1.0
  O2-  -2.0
loop_
 _atom_site_type_symbol
 _atom_site_label
 _atom_site_symmetry_multiplicity
 _atom_site_fract_x
 _atom_site_fract_y
 _atom_site_fract_z
 _atom_site_occupancy
  H+  H0  1  0.61514377  0.98670366  0.66584621  1
  H+  H1  1  0.21611109  0.35598249  0.62901766  1
  H+  H2  1  0.50462966  0.14346038  0.49594813  1
  H+  H3  1  0.41740200  0.84866398  0.56018611  1
  H+  H4  1  0.22779991  0.35984448  0.49182692  1
  H+  H5  1  0.10295883  0.48126025  0.34277135  1
  H+  H6  1  0.88855177  0.78445233  0.86099759  1
  H+  H7  1  0.34444899  0.38344586  0.87767632  1
  H+  H8  1  0.41366318  0.64406922  0.85123252  1
  H+  H9  1  0.47016363  0.59442833  0.16514675  1
  H+  H10  1  0.65109262  0.37530919  0.64693656  1
  H+  H11  1  0.89231967  0.87462719  0.85923853  1
  H+  H12  1  0.37399241  0.47355451  0.48713573  1
  H+  H13  1  0.54119265  0.39197968  0.82645486  1
  H+  H14  1  0.14753067  1.00856094  0.65206640  1
  H+  H15  1  0.77501673  0.64017711  0.49299195  1
  H+  H16  1  1.02437110  0.13226722  0.33830491  1
  H+  H17  1  0.86614890  0.72773905  0.67639403  1
  H+  H18  1  0.48120719  0.10237143  0.67232136  1
  H+  H19  1  0.39778022  0.53692574  1.00753187  1
  H+  H20  1  0.41016392  0.07698639  0.56693367  1
  H+  H21  1  0.77592303  0.41359847  0.00853709  1
  H+  H22  1  0.47383235  0.60225553  0.31691451  1
  H+  H23  1  0.28819325  0.18494387  0.80592149  1
  H+  H24  1  0.38254594  0.76304344  0.32296720  1
  H+  H25  1  0.86085614  0.73399404  1.01826822  1
  H+  H26  1  0.65076395  0.87242994  0.99808932  1
  H+  H27  1  0.43207173  0.60436023  0.91181755  1
  H+  H28  1  0.84262922  0.31466981  1.06776374  1
  H+  H29  1  0.63873817  0.13028297  0.83481016  1
  H+  H30  1  0.90537643  0.31948699  0.88039466  1
  H+  H31  1  0.77287675  0.11460038  0.00968418  1
  H+  H32  1  0.15856674  0.36230755  0.14156831  1
  H+  H33  1  0.11469432  0.11807562  0.03881231  1
  H+  H34  1  0.71687354  0.33218223  0.17554351  1
  H+  H35  1  0.40838216  0.81990619  0.26315817  1
  H+  H36  1  0.77042535  0.14150266  0.81528055  1
  H+  H37  1  0.59325948  0.66848939  0.73413760  1
  H+  H38  1  0.92006258  0.33091315  0.23887573  1
  H+  H39  1  0.21635303  0.85211489  0.64510167  1
  H+  H40  1  0.89177811  0.01773221  0.17633491  1
  H+  H41  1  0.63564418  0.00057974  0.81926655  1
  H+  H42  1  0.29875429  0.89186767  0.22130329  1
  H+  H43  1  0.10991752  0.22134004  0.35260692  1
  H+  H44  1  0.84555815  0.92834840  0.74349857  1
  H+  H45  1  0.39555016  0.35279132  0.63938412  1
  H+  H46  1  0.52283367  0.88142783  0.48633329  1
  H+  H47  1  0.07548874  0.89844110  0.11456731  1
  H+  H48  1  0.22165705  0.36266363  0.35517873  1
  H+  H49  1  0.38611556  0.37593733  1.00884804  1
  H+  H50  1  0.97401171  0.87249580  1.03502554  1
  H+  H51  1  0.64380939  0.77897084  0.83906032  1
  H+  H52  1  0.12560722  0.75825170  0.49072596  1
  H+  H53  1  0.40004407  0.78554034  0.65390273  1
  H+  H54  1  0.87863384  0.35804797  0.65515698  1
  H+  H55  1  0.52160132  0.88208180  0.33576732  1
  H+  H56  1  0.36536700  0.46595289  0.33510839  1
  H+  H57  1  0.72302954  0.60879473  0.32370935  1
  H+  H58  1  0.38628038  0.60562526  0.52035466  1
  H+  H59  1  0.35356076  0.87100420  0.17710612  1
  H+  H60  1  0.59847011  0.86902623  0.17373980  1
  H+  H61  1  0.60750156  0.37136540  0.16931952  1
  H+  H62  1  0.72303543  0.09538098  0.49823285  1
  H+  H63  1  0.57735342  0.15637629  0.76298718  1
  H+  H64  1  0.73293818  0.37176703  0.83846518  1
  H+  H65  1  0.84195201  0.67933181  0.77307055  1
  H+  H66  1  0.88879111  0.85795942  0.31450843  1
  H+  H67  1  0.38725941  0.12476858  0.84307709  1
  H+  H68  1  0.19983697  0.58509752  1.00006479  1
  H+  H69  1  0.86570635  0.48241720  0.82598095  1
  H+  H70  1  0.89885258  0.62045669  0.65635559  1
  H+  H71  1  0.87410249  0.48510759  0.66819215  1
  H+  H72  1  0.35317643  0.47064997  0.12545422  1
  H+  H73  1  0.09022586  0.91984540  0.38696917  1
  H+  H74  1  0.19834014  0.54390354  0.86061083  1
  H+  H75  1  0.92123690  0.59254403  0.89810933  1
  H+  H76  1  0.38570989  0.02401889  0.65695908  1
  H+  H77  1  0.07165034  0.91928027  -0.02111296  1
  H+  H78  1  0.11084746  0.21197727  0.48906788  1
  H+  H79  1  0.38122973  0.59480393  0.16813732  1
  H+  H80  1  0.53122414  0.63581158  0.48491308  1
  H+  H81  1  0.62108631  0.09863290  0.18114330  1
  H+  H82  1  0.84584506  0.71299703  0.16113814  1
  H+  H83  1  0.62229094  0.24187884  1.01393742  1
  H+  H84  1  0.64198413  0.13326704  0.99781454  1
  H+  H85  1  0.46092098  0.79149166  0.03312420  1
  H+  H86  1  0.52911583  0.15715885  0.01527570  1
  H+  H87  1  0.62734767  0.10688706  0.65947040  1
  H+  H88  1  0.63905947  0.36261655  0.99849597  1
  H+  H89  1  0.88630807  0.27400437  0.32829769  1
  H+  H90  1  0.10870735  0.51514765  0.51384014  1
  H+  H91  1  0.90253096  0.10429984  0.01825696  1
  H+  H92  1  0.34437627  0.40961500  0.43037230  1
  H+  H93  1  0.89232914  1.00947029  0.02247350  1
  H+  H94  1  0.11581571  0.62803569  0.82533564  1
  H+  H95  1  0.86613303  0.88997620  0.48778908  1
  H+  H96  1  0.61275855  0.13533515  0.34468353  1
  H+  H97  1  0.38013405  0.77288262  0.51352230  1
  H+  H98  1  0.61519021  0.64318996  1.00470730  1
  H+  H99  1  0.87597428  0.87140823  0.66801639  1
  H+  H100  1  0.87016065  -0.01469097  0.83473687  1
  H+  H101  1  0.37246676  0.09338355  0.50694873  1
  H+  H102  1  0.10849977  0.33685759  0.83971347  1
  H+  H103  1  0.48617179  0.62709659  1.00430315  1
  H+  H104  1  0.83179316  0.91201551  0.25731667  1
  H+  H105  1  0.77312160  0.13458251  0.33663346  1
  H+  H106  1  0.77030762  0.88121374  0.31308782  1
  H+  H107  1  0.27354463  0.13246993  0.48425878  1
  H+  H108  1  0.33197473  0.66613734  0.57982846  1
  H+  H109  1  0.11649141  0.71862442  0.66769118  1
  H+  H110  1  0.60546920  0.62372982  0.16093164  1
  H+  H111  1  0.27513712  0.13287915  0.33305147  1
  H+  H112  1  0.61634218  0.73286726  1.01025865  1
  H+  H113  1  0.19796832  0.87490347  0.15383822  1
  H+  H114  1  0.09835232  0.74208241  0.84395096  1
  H+  H115  1  0.31838267  0.64204359  0.10703303  1
  H+  H116  1  0.64342676  0.52741080  0.50071509  1
  H+  H117  1  0.64176827  0.78525639  0.67224091  1
  H+  H118  1  0.99160952  0.36123932  0.18759799  1
  H+  H119  1  0.97104932  0.61481198  0.31501247  1
  H+  H120  1  0.88403078  0.36372295  0.32688663  1
  H+  H121  1  0.30637669  0.67754210  0.82446387  1
  H+  H122  1  0.60956971  0.63013509  0.33226244  1
  H+  H123  1  0.74147192  0.37906961  0.65160249  1
  H+  H124  1  0.14533916  0.76444935  0.99753262  1
  H+  H125  1  0.63030738  0.39790467  0.82295097  1
  H+  H126  1  -0.03904415  0.60090033  0.49230305  1
  H+  H127  1  0.61920035  1.00956314  0.18582092  1
  H+  H128  1  0.86126553  0.72185675  0.33736538  1
  H+  H129  1  0.25282700  0.85927414  0.48056521  1
  H+  H130  1  0.64170178  0.61536966  0.50121564  1
  H+  H131  1  0.13565017  0.10088026  0.50224149  1
  H+  H132  1  0.13773680  0.57328021  0.16674299  1
  H+  H133  1  0.47332106  0.35503164  0.31589965  1
  H+  H134  1  0.64431974  0.28272621  0.83625003  1
  H+  H135  1  0.75355694  0.87571228  0.17360323  1
  H+  H136  1  0.35291184  0.86864125  0.48229332  1
  H+  H137  1  -0.02354156  0.61141098  0.83710763  1
  H+  H138  1  0.83812223  0.34791211  0.50431819  1
  H+  H139  1  -0.01008563  0.86716001  0.49198301  1
  H+  H140  1  0.40061081  0.75715370  0.82249570  1
  H+  H141  1  0.86161484  0.39075601  0.81970763  1
  H+  H142  1  -0.02811129  0.10799927  0.50745305  1
  H+  H143  1  0.86400056  0.13718324  0.33219012  1
  H+  H144  1  0.64941704  0.61790905  0.65830546  1
  H+  H145  1  0.53618608  0.63972787  0.67444524  1
  H+  H146  1  0.37324471  0.22040615  0.66678095  1
  H+  H147  1  0.00148671  0.10008339  0.03862909  1
  H+  H148  1  0.63699087  1.02282173  0.33280184  1
  H+  H149  1  0.98152344  0.63134039  0.99256432  1
  H+  H150  1  0.48346900  0.10906315  0.17482274  1
  H+  H151  1  0.10387876  0.62836236  0.01465226  1
  H+  H152  1  0.41249312  0.26466217  0.84569120  1
  H+  H153  1  0.11767151  0.88423581  0.47998003  1
  H+  H154  1  0.53951278  0.38665831  0.48413423  1
  H+  H155  1  0.34062865  0.94871539  -0.07238820  1
  H+  H156  1  0.01466903  0.38942358  0.34251778  1
  H+  H157  1  0.15500948  0.33116061  0.44528112  1
  H+  H158  1  0.26299309  0.62809723  0.52834969  1
  H+  H159  1  0.26742197  0.61388763  0.17003939  1
  H+  H160  1  0.91530777  0.11640816  0.17008702  1
  H+  H161  1  0.91104678  0.81476190  0.22938381  1
  H+  H162  1  0.61450820  0.89600117  0.67556953  1
  H+  H163  1  0.48543122  0.87787869  0.65582942  1
  H+  H164  1  0.35551391  0.46200834  0.62874720  1
  H+  H165  1  0.72756460  0.87527788  0.67851059  1
  H+  H166  1  0.36760634  0.24398171  1.02606951  1
  H+  H167  1  0.26422362  0.87735671  0.32497587  1
  H+  H168  1  0.60213774  0.93888372  0.75833024  1
  H+  H169  1  0.51515134  0.36390854  0.16275718  1
  H+  H170  1  0.85500955  0.22694202  0.66386406  1
  H+  H171  1  0.64501400  0.53088921  0.83535963  1
  H+  H172  1  0.23723096  0.09603396  0.65130366  1
  H+  H173  1  0.73253786  0.62185992  0.83859009  1
  H+  H174  1  0.87118794  0.84382984  0.17706731  1
  H+  H175  1  0.83236716  0.40572150  0.11305842  1
  H+  H176  1  0.96816079  0.11370216  0.66220210  1
  H+  H177  1  0.65298091  0.99272395  0.03383135  1
  H+  H178  1  0.63531398  0.26896513  0.32952763  1
  H+  H179  1  0.66112628  1.07003942  0.55553768  1
  H+  H180  1  0.43907490  0.97420628  0.79290859  1
  H+  H181  1  0.77420724  0.88719501  0.01704886  1
  H+  H182  1  0.72058242  0.11528997  0.65260747  1
  H+  H183  1  0.24021454  0.13588010  0.01774121  1
  H+  H184  1  0.23543307  0.85299973  -0.02190011  1
  H+  H185  1  0.11913075  0.38224914  0.66743339  1
  H+  H186  1  0.52430125  0.13554022  0.34013776  1
  H+  H187  1  0.85392982  0.20087800  0.02687369  1
  H+  H188  1  0.86251684  0.47208694  0.33088812  1
  H+  H189  1  0.40780247  0.54078990  0.70509893  1
  H+  H190  1  0.72526689  0.85315601  0.49445591  1
  H+  H191  1  0.61868495  0.47963297  0.66806009  1
  H+  H192  1  0.63484749  0.84964118  0.49330596  1
  H+  H193  1  0.38208317  0.11066250  0.32392889  1
  H+  H194  1  0.89039729  0.22574292  0.16975879  1
  H+  H195  1  0.22045028  0.61060809  0.32513434  1
  H+  H196  1  0.33101296  0.69690274  1.01481957  1
  H+  H197  1  0.60195862  0.21796424  0.17075610  1
  H+  H198  1  0.99580651  0.36331766  1.02560554  1
  H+  H199  1  0.22612607  0.08571981  0.85722103  1
  H+  H200  1  0.88111233  0.61476074  0.50205823  1
  H+  H201  1  0.31571704  0.89079692  0.41479712  1
  H+  H202  1  0.58135858  0.39526162  0.07492572  1
  H+  H203  1  0.13711030  0.87217735  0.31252360  1
  H+  H204  1  0.09978845  0.66852892  0.17411333  1
  H+  H205  1  0.88920865  0.32068399  0.59301626  1
  H+  H206  1  0.86121279  0.88427628  0.02873917  1
  H+  H207  1  0.63654164  0.40567334  0.48058486  1
  H+  H208  1  0.27600741  0.40917720  1.01952429  1
  H+  H209  1  0.38229769  0.02034669  0.32453306  1
  H+  H210  1  0.23377410  0.43584938  0.85189714  1
  H+  H211  1  0.35900553  0.88187106  0.66235775  1
  H+  H212  1  0.71308181  0.59824243  0.17057433  1
  H+  H213  1  0.60951036  0.47082463  0.32991283  1
  H+  H214  1  0.07197629  0.38718677  0.49304215  1
  H+  H215  1  0.78470158  0.89193735  0.83495161  1
  H+  H216  1  0.16446378  0.11549736  0.16610755  1
  H+  H217  1  0.60213834  0.04227610  0.97076985  1
  H+  H218  1  0.36367448  0.62224669  0.32618624  1
  H+  H219  1  0.40768746  0.04953505  0.85439842  1
  H+  H220  1  0.01233787  0.87575419  0.66999414  1
  H+  H221  1  0.72422273  0.62608154  -0.00784145  1
  H+  H222  1  0.62212560  0.64226917  0.82673778  1
  H+  H223  1  0.38871100  0.42122111  0.87379250  1
  H+  H224  1  0.46456652  0.84517090  0.17270056  1
  H+  H225  1  0.33248385  0.40144254  0.57111243  1
  H+  H226  1  0.12189940  0.97596699  0.48307689  1
  H+  H227  1  0.44428376  0.94694307  0.97529992  1
  H+  H228  1  0.40351683  0.35614651  0.49813697  1
  H+  H229  1  -0.07608974  0.58959112  0.59475866  1
  H+  H230  1  0.13905073  0.60728248  0.67025676  1
  H+  H231  1  0.37466147  0.75409888  0.17181176  1
  H+  H232  1  0.86374955  0.64904931  0.00455956  1
  H+  H233  1  0.09886641  0.62441310  0.45544590  1
  H+  H234  1  0.66099686  0.08031008  0.27343578  1
  H+  H235  1  0.53344610  0.64258110  0.83053088  1
  H+  H236  1  0.62341185  0.75719954  0.17824538  1
  H+  H237  1  0.35197347  0.87094878  0.32924877  1
  H+  H238  1  0.42997565  0.80626774  1.04205853  1
  H+  H239  1  0.12588665  0.47977510  0.67886755  1
  H+  H240  1  0.32175081  0.52432159  0.86581098  1
  H+  H241  1  0.10627836  0.50256799  1.00343912  1
  H+  H242  1  0.87010463  0.42859384  1.01399778  1
  H+  H243  1  0.48383978  0.28772275  0.89484481  1
  H+  H244  1  0.87444185  0.60869101  0.16645878  1
  H+  H245  1  0.63069135  0.76463144  0.32963193  1
  H+  H246  1  0.88997704  0.02560239  0.31363858  1
  H+  H247  1  0.11060328  0.59961641  0.54016025  1
  H+  H248  1  0.90864513  0.07942182  0.60239449  1
  H+  H249  1  1.00045814  0.64203582  0.16100884  1
  H+  H250  1  0.53465840  0.15842658  0.82997529  1
  H+  H251  1  0.09064520  0.45575686  0.82378872  1
  H+  H252  1  0.53225784  0.88487815  0.83675704  1
  H+  H253  1  0.66533644  0.32027684  0.23910635  1
  H+  H254  1  0.48737415  0.36100470  0.65319203  1
  H+  H255  1  0.08883593  0.83558457  0.85014252  1
  H+  H256  1  0.86635962  -0.01489607  0.68104796  1
  H+  H257  1  0.86697091  0.72835753  0.49085899  1
  H+  H258  1  0.38586149  0.26494046  0.31920999  1
  H+  H259  1  0.11371389  0.64654560  0.32359702  1
  H+  H260  1  0.86130104  0.35164051  0.15672272  1
  H+  H261  1  0.77562090  0.38331801  0.33571719  1
  H+  H262  1  0.93310753  0.36400361  0.49729715  1
  H+  H263  1  0.82706735  0.47284152  0.50326148  1
  H+  H264  1  0.37740799  0.13306550  0.67305454  1
  H+  H265  1  0.00197566  0.36762529  0.81313777  1
  H+  H266  1  0.11163129  0.21371189  0.82900902  1
  H+  H267  1  0.23831534  0.89733182  0.81319532  1
  H+  H268  1  0.88518688  0.11264849  0.50518979  1
  H+  H269  1  0.11090163  0.12490706  0.82876243  1
  H+  H270  1  0.11692880  0.98041795  0.32792680  1
  H+  H271  1  0.11183161  0.73578255  0.31718205  1
  H+  H272  1  0.97215628  0.11203357  0.83583275  1
  H+  H273  1  0.41649686  0.91088772  0.84606144  1
  H+  H274  1  0.97924089  0.86054541  0.32217972  1
  H+  H275  1  0.12439296  0.84530156  0.64928429  1
  H+  H276  1  0.07599911  0.39231897  0.07066039  1
  H+  H277  1  0.84723069  0.21893386  0.48688827  1
  H+  H278  1  0.22478584  0.88186521  0.78114526  1
  H+  H279  1  0.10059492  0.22077069  0.67209582  1
  H+  H280  1  0.36788341  0.21725291  0.48403521  1
  H+  H281  1  0.86910414  0.64759874  0.83142511  1
  H+  H282  1  0.35215607  0.62202856  0.01028788  1
  H+  H283  1  0.10725547  0.95817118  0.83940377  1
  H+  H284  1  0.38497378  0.60350121  0.67071411  1
  H+  H285  1  0.88497252  0.11407010  0.82977343  1
  H+  H286  1  0.13995811  0.38621721  -0.00893016  1
  H+  H287  1  0.10861390  0.78939677  0.15746679  1
  H+  H288  1  0.82986802  0.66261629  0.39662587  1
  H+  H289  1  0.81729368  0.65592599  0.10036156  1
  H+  H290  1  0.05757197  0.97474722  0.10242718  1
  H+  H291  1  0.62445205  0.50813780  0.17512473  1
  H+  H292  1  0.35238739  0.68354825  0.72739134  1
  H+  H293  1  0.59059916  0.41962911  0.72678683  1
  H+  H294  1  0.06835182  0.89706430  0.72968923  1
  H+  H295  1  0.33954445  0.64984830  0.38785270  1
  H+  H296  1  0.62032421  0.72671484  0.48255763  1
  H+  H297  1  0.65345391  0.87290624  0.83513154  1
  H+  H298  1  0.41266503  0.56488480  0.25753961  1
  H+  H299  1  0.41270896  0.34232230  0.94917942  1
  H+  H300  1  0.43743170  0.57816209  0.56354808  1
  H+  H301  1  0.39051171  0.13878808  1.01441463  1
  H+  H302  1  0.07558555  0.16174497  0.73108167  1
  H+  H303  1  0.13577665  0.32225772  0.58652811  1
  H+  H304  1  0.36248151  0.37558675  0.33386142  1
  H+  H305  1  0.02785278  0.63111775  0.66898825  1
  H+  H306  1  0.07808276  0.66947331  0.07119296  1
  H+  H307  1  0.67608089  0.58718063  0.59768567  1
  H+  H308  1  0.57577292  0.16656233  0.10707183  1
  H+  H309  1  0.09003183  0.66060295  0.76417021  1
  H+  H310  1  0.57915165  0.90899067  0.39648628  1
  H+  H311  1  0.34296001  0.17134253  0.75449080  1
  H+  H312  1  0.87996931  0.60907280  0.32158473  1
  H+  H313  1  1.01274544  0.08413725  0.14444407  1
  H+  H314  1  0.43466759  0.32330480  0.55501706  1
  H+  H315  1  0.81918147  0.90890798  0.11795165  1
  H+  H316  1  0.16138663  0.57823546  0.26647389  1
  H+  H317  1  0.13763360  0.48408672  0.19405499  1
  H+  H318  1  0.82593354  0.29381890  0.99667594  1
  H+  H319  1  0.85888832  0.97348798  0.49389886  1
  H+  H320  1  0.63126187  0.85551612  0.32975713  1
  H+  H321  1  0.32645304  0.40427351  0.74748068  1
  H+  H322  1  0.07165279  0.66982111  0.40758020  1
  H+  H323  1  0.16581371  0.04291764  0.99729225  1
  H+  H324  1  0.87204254  0.26051089  0.82016045  1
  H+  H325  1  0.14205298  0.11392498  0.32313514  1
  H+  H326  1  0.78247408  0.63651647  0.67362671  1
  H+  H327  1  0.36463227  1.00258123  -0.01274303  1
  H+  H328  1  0.42067137  0.11942249  0.94948816  1
  H+  H329  1  0.13837000  0.55621200  0.90547190  1
  H+  H330  1  0.63487641  0.35810914  0.32410239  1
  H+  H331  1  0.90797565  0.58096201  0.22468455  1
  H+  H332  1  0.01114362  0.88118401  0.84088492  1
  H+  H333  1  0.13356725  0.36737945  0.35578506  1
  H+  H334  1  0.67579355  0.34124066  0.93713320  1
  H+  H335  1  0.18105016  0.09378509  0.26255179  1
  H+  H336  1  0.58250441  0.41391588  0.38934178  1
  H+  H337  1  0.57908539  0.65739260  0.39231754  1
  H+  H338  1  0.83881801  0.42770624  0.72860440  1
  H+  H339  1  0.58235670  0.90854586  0.11433426  1
  H+  H340  1  0.41939145  0.07965091  0.24090256  1
  H+  H341  1  0.13086200  0.80134803  0.91036461  1
  H+  H342  1  0.85558428  0.13661761  0.66672563  1
  H+  H343  1  0.16470049  0.57154718  0.61268967  1
  H+  H344  1  0.66241820  0.57725198  0.26400833  1
  H+  H345  1  0.15562332  0.84652736  0.24743706  1
  H+  H346  1  0.56088566  0.92564012  0.01579094  1
  H+  H347  1  0.52239470  0.37629068  1.01672054  1
  H+  H348  1  0.05959576  0.42822297  0.43299029  1
  H+  H349  1  0.49095014  0.91683714  0.92841795  1
  H+  H350  1  0.33554114  0.16120304  0.39263581  1
  H+  H351  1  0.21666257  0.43704456  0.94436634  1
  H+  H352  1  0.53979697  0.05629428  0.71956949  1
  H+  H353  1  0.36907723  0.44196004  0.75684088  1
  H+  H354  1  0.66660325  0.59737939  0.93226145  1
  H+  H355  1  0.14714672  0.90215007  0.97461620  1
  H+  H356  1  0.15101149  0.32389391  0.89956174  1
  H+  H357  1  0.70491651  0.37129647  0.56215244  1
  H+  H358  1  0.17023372  0.08430592  0.91176869  1
  H+  H359  1  0.49201300  0.81489762  0.89108447  1
  H+  H360  1  0.40264109  0.30426623  0.22226356  1
  H+  H361  1  0.08335817  0.40559491  0.73660416  1
  H+  H362  1  0.65044403  0.81583497  0.23960794  1
  H+  H363  1  0.35243751  0.19729487  0.09103676  1
  H+  H364  1  0.31393573  0.90080481  0.71785419  1
  H+  H365  1  0.58236251  0.66202791  0.10219229  1
  H+  H366  1  0.15690494  0.81525318  0.55288588  1
  H+  H367  1  0.88813917  0.54892586  0.99293924  1
  H+  H368  1  0.67405816  0.10374461  0.89362835  1
  H+  H369  1  0.93423732  0.85332485  0.96419260  1
  H+  H370  1  0.26467282  0.15307983  0.18185955  1
  H+  H371  1  0.83354419  0.16188644  0.42789779  1
  H+  H372  1  0.82681675  0.16699348  0.75267489  1
  H+  H373  1  0.17305220  0.06936456  0.55749299  1
  H+  H374  1  0.94317605  0.84927268  0.55530629  1
  H+  H375  1  0.07715069  0.14840806  0.43318494  1
  H+  H376  1  0.27950174  0.63818891  0.67701081  1
  H+  H377  1  0.67649617  0.84148242  0.93645669  1
  H+  H378  1  0.85052604  0.80779335  0.61301885  1
  H+  H379  1  0.61483640  0.96805907  0.48769678  1
  H+  H380  1  0.84383500  0.15542627  0.11704416  1
  H+  H381  1  0.56927213  0.18500304  0.44283925  1
  H+  H382  1  0.93452995  0.09292161  0.26210227  1
  H+  H383  1  0.38930459  1.00945071  0.18344623  1
  O2-  O384  1  0.06110687  0.08001914  0.11970929  1
  O2-  O385  1  0.07857671  0.15013143  0.47899921  1
  O2-  O386  1  0.08219416  0.15468900  0.81163452  1
  O2-  O387  1  0.13378809  0.39823852  0.13121732  1
  O2-  O388  1  0.05255751  0.42655964  0.47951404  1
  O2-  O389  1  0.06557973  0.39860879  0.80313693  1
  O2-  O390  1  0.06544978  0.68174125  0.14668750  1
  O2-  O391  1  0.07118072  0.65914103  0.45326122  1
  O2-  O392  1  0.08841185  0.66025175  0.80979097  1
  O2-  O393  1  0.05654294  0.92461599  0.08336532  1
  O2-  O394  1  0.08959399  0.91597676  0.46495715  1
  O2-  O395  1  0.06998742  0.89989453  0.82246310  1
  O2-  O396  1  0.36794951  0.21318183  0.16159193  1
  O2-  O397  1  0.33290505  0.15813802  0.46750393  1
  O2-  O398  1  0.33717943  0.17605478  0.80161638  1
  O2-  O399  1  0.31043097  0.41646330  0.10403700  1
  O2-  O400  1  0.34402125  0.41160953  0.47652063  1
  O2-  O401  1  0.25792689  0.49373898  0.87006480  1
  O2-  O402  1  0.32738112  0.64851539  0.15158078  1
  O2-  O403  1  0.32587000  0.65854981  0.53566026  1
  O2-  O404  1  0.36286495  0.69802055  0.80621835  1
  O2-  O405  1  0.32417938  0.90640409  0.18077448  1
  O2-  O406  1  0.31335989  0.88718235  0.46178023  1
  O2-  O407  1  0.40039863  0.95045254  0.82759322  1
  O2-  O408  1  0.56923004  0.15797613  0.15219861  1
  O2-  O409  1  0.55496190  0.19800353  0.48301503  1
  O2-  O410  1  0.59084990  0.17991107  0.81031825  1
  O2-  O411  1  0.57769180  0.40134487  0.15342746  1
  O2-  O412  1  0.59738948  0.42709332  0.46715072  1
  O2-  O413  1  0.59821940  0.42642141  0.80701365  1
  O2-  O414  1  0.57682286  0.65675351  0.14749218  1
  O2-  O415  1  0.58972878  0.66261722  0.46838870  1
  O2-  O416  1  0.59151568  0.67328759  0.81195750  1
  O2-  O417  1  0.56871561  0.90010038  0.15834932  1
  O2-  O418  1  0.58144823  0.90653647  0.47028751  1
  O2-  O419  1  0.61119381  0.93994704  0.80421472  1
  O2-  O420  1  0.86658883  0.16418634  0.15849461  1
  O2-  O421  1  0.83154259  0.16008187  0.47340367  1
  O2-  O422  1  0.83030270  0.16973812  0.79924502  1
  O2-  O423  1  0.81442524  0.34838389  0.12931529  1
  O2-  O424  1  0.79254077  0.41087859  0.49204052  1
  O2-  O425  1  0.83325472  0.42374994  0.80760702  1
  O2-  O426  1  0.81439911  0.65166423  0.14574869  1
  O2-  O427  1  0.83536270  0.66763768  0.47677887  1
  O2-  O428  1  0.84113231  0.68085475  0.81829539  1
  O2-  O429  1  0.81671621  0.90854149  0.16344536  1
  O2-  O430  1  0.83072990  0.91504837  0.47589015  1
  O2-  O431  1  0.84594147  0.92256549  0.82224704  1
  O2-  O432  1  0.20406107  0.10796955  0.19254140  1
  O2-  O433  1  0.16972933  0.07232801  0.51168559  1
  O2-  O434  1  0.16844020  0.07425293  0.86725205  1
  O2-  O435  1  0.09865032  0.40577744  0.18981420  1
  O2-  O436  1  0.16422258  0.33277448  0.49059327  1
  O2-  O437  1  0.14848258  0.31801243  0.85461941  1
  O2-  O438  1  0.17174172  0.56253733  0.19611492  1
  O2-  O439  1  0.14598150  0.57290872  0.53535101  1
  O2-  O440  1  0.14957710  0.55573478  0.86083938  1
  O2-  O441  1  0.13879040  0.85198897  0.16800110  1
  O2-  O442  1  0.16118230  0.81758804  0.50728960  1
  O2-  O443  1  0.09338912  0.78529758  0.87134714  1
  O2-  O444  1  0.42087812  0.07301725  0.19375735  1
  O2-  O445  1  0.39760538  0.05984065  0.52379046  1
  O2-  O446  1  0.42256001  0.10791593  0.86759351  1
  O2-  O447  1  0.40587806  0.30430145  0.17672602  1
  O2-  O448  1  0.43347387  0.32473626  0.50962936  1
  O2-  O449  1  0.45348169  0.31158886  0.87292085  1
  O2-  O450  1  0.40839704  0.55925088  0.17762901  1
  O2-  O451  1  0.42074241  0.57641381  0.52109007  1
  O2-  O452  1  0.42911615  0.60189786  0.86611283  1
  O2-  O453  1  0.40280216  0.81515808  0.18641454  1
  O2-  O454  1  0.40803193  0.83620663  0.51551320  1
  O2-  O455  1  0.47621547  0.84681338  0.86294607  1
  O2-  O456  1  0.65008638  0.07001216  0.19962117  1
  O2-  O457  1  0.66222652  0.06080093  0.51126586  1
  O2-  O458  1  0.67031780  0.09921726  0.84873922  1
  O2-  O459  1  0.65972726  0.31448981  0.19283548  1
  O2-  O460  1  0.70668170  0.38219662  0.51486385  1
  O2-  O461  1  0.67289212  0.34174212  0.85479824  1
  O2-  O462  1  0.65321389  0.56977404  0.18772292  1
  O2-  O463  1  0.67244660  0.58657840  0.51882551  1
  O2-  O464  1  0.67073474  0.59114695  0.85062341  1
  O2-  O465  1  0.65088000  0.81780915  0.19371613  1
  O2-  O466  1  0.66321063  0.81684027  0.50559581  1
  O2-  O467  1  0.67421825  0.83836316  0.85654827  1
  O2-  O468  1  0.94002228  0.07756827  0.18183732  1
  O2-  O469  1  0.91239204  0.08115264  0.52365272  1
  O2-  O470  1  0.91181433  0.08423457  0.84999529  1
  O2-  O471  1  0.92733089  0.33024961  0.19331613  1
  O2-  O472  1  0.87555383  0.32266958  0.51275371  1
  O2-  O473  1  0.90434839  0.32392033  0.83632071  1
  O2-  O474  1  0.91235927  0.58529450  0.17935206  1
  O2-  O475  1  0.90818647  0.58028206  0.51661668  1
  O2-  O476  1  0.91712145  0.58653501  0.85247637  1
  O2-  O477  1  0.90127213  0.81159627  0.18469398  1
  O2-  O478  1  0.93153429  0.83740799  0.51190677  1
  O2-  O479  1  0.92123935  0.84384850  0.87734034  1
  O2-  O480  1  0.17257310  0.08402819  0.30834525  1
  O2-  O481  1  0.18057911  0.06387891  0.63119644  1
  O2-  O482  1  0.18091820  0.10419763  0.99918913  1
  O2-  O483  1  0.15997953  0.33216954  0.36706001  1
  O2-  O484  1  0.15236329  0.33156395  0.62962611  1
  O2-  O485  1  0.19012350  0.38662149  0.97175435  1
  O2-  O486  1  0.15987334  0.58599268  0.31233031  1
  O2-  O487  1  0.17161631  0.57679499  0.65788147  1
  O2-  O488  1  0.13952381  0.56156302  0.98579181  1
  O2-  O489  1  0.16548024  0.84217310  0.29177832  1
  O2-  O490  1  0.15527676  0.81722914  0.63149734  1
  O2-  O491  1  0.17238471  0.81893625  0.97235227  1
  O2-  O492  1  0.41321305  0.07958609  0.30848637  1
  O2-  O493  1  0.42315751  0.08590643  0.64995075  1
  O2-  O494  1  0.41975092  0.10928418  0.99389672  1
  O2-  O495  1  0.41217501  0.32418480  0.30170446  1
  O2-  O496  1  0.42910276  0.32365696  0.63432472  1
  O2-  O497  1  0.41316030  0.34309475  0.99381065  1
  O2-  O498  1  0.41243125  0.57017500  0.30299052  1
  O2-  O499  1  0.41127876  0.56612670  0.66501145  1
  O2-  O500  1  0.42392723  0.59517229  0.98925880  1
  O2-  O501  1  0.40779160  0.82342714  0.30880289  1
  O2-  O502  1  0.42453173  0.84493220  0.63894705  1
  O2-  O503  1  0.50006210  0.94967199  0.96633881  1
  O2-  O504  1  0.66657885  0.08374894  0.31931759  1
  O2-  O505  1  0.66000145  0.08225209  0.63784187  1
  O2-  O506  1  0.65945899  0.09387932  0.97792196  1
  O2-  O507  1  0.66648278  0.32814333  0.31115301  1
  O2-  O508  1  0.68682021  0.35398127  0.62811978  1
  O2-  O509  1  0.67911896  0.34163958  0.98240266  1
  O2-  O510  1  0.66200158  0.57834131  0.30970711  1
  O2-  O511  1  0.67883757  0.58696794  0.64327968  1
  O2-  O512  1  0.66449508  0.60168931  0.97703633  1
  O2-  O513  1  0.66126085  0.82506936  0.31386009  1
  O2-  O514  1  0.66627256  0.84755927  0.66677132  1
  O2-  O515  1  0.67755642  0.83973489  0.98184393  1
  O2-  O516  1  0.92448455  0.08876263  0.30684886  1
  O2-  O517  1  0.90643531  0.08099835  0.64787526  1
  O2-  O518  1  0.93466309  0.07266853  1.01221928  1
  O2-  O519  1  0.91823911  0.33475048  0.31377162  1
  O2-  O520  1  0.90079925  0.32219281  0.63729147  1
  O2-  O521  1  0.86822534  0.30646963  1.02866593  1
  O2-  O522  1  0.90977705  0.58017427  0.30313363  1
  O2-  O523  1  0.92996070  0.59169419  0.64012601  1
  O2-  O524  1  0.92364259  0.60694914  0.97361344  1
  O2-  O525  1  0.91811590  0.82382864  0.30937350  1
  O2-  O526  1  0.89392073  0.83275255  0.64495826  1
  O2-  O527  1  0.92146743  0.84414746  1.00826846  1
  O2-  O528  1  0.07272929  0.12957650  0.06422922  1
  O2-  O529  1  0.08332539  0.15797780  0.35641429  1
  O2-  O530  1  0.06696671  0.16150660  0.68651711  1
  O2-  O531  1  0.05863575  0.39764278  0.02818996  1
  O2-  O532  1  0.07354976  0.42336033  0.36222536  1
  O2-  O533  1  0.09504455  0.41604868  0.68981817  1
  O2-  O534  1  0.08368334  0.66927526  0.02581389  1
  O2-  O535  1  0.08132718  0.67675871  0.33487375  1
  O2-  O536  1  0.08843945  0.65949830  0.68571579  1
  O2-  O537  1  0.12870781  0.94301979  -0.03861722  1
  O2-  O538  1  0.08736254  0.91856861  0.34154974  1
  O2-  O539  1  0.07069234  0.89458138  0.68490243  1
  O2-  O540  1  0.34193759  0.18569593  0.04472824  1
  O2-  O541  1  0.33677036  0.16159599  0.34664426  1
  O2-  O542  1  0.34376050  0.16280182  0.68643602  1
  O2-  O543  1  0.33416726  0.43269676  0.03898438  1
  O2-  O544  1  0.33700515  0.40784853  0.35422620  1
  O2-  O545  1  0.32448644  0.40117121  0.61530731  1
  O2-  O546  1  0.30704198  0.63620907  0.02415062  1
  O2-  O547  1  0.33481213  0.65357764  0.34401364  1
  O2-  O548  1  0.34323408  0.67032470  0.68290831  1
  O2-  O549  1  0.34416991  0.94239475  -0.02852827  1
  O2-  O550  1  0.32202055  0.90208658  0.34493060  1
  O2-  O551  1  0.31975476  0.90441254  0.67367772  1
  O2-  O552  1  0.58955796  0.18127443  0.02964126  1
  O2-  O553  1  0.58351998  0.16829534  0.35578124  1
  O2-  O554  1  0.55826534  0.11487101  0.70707065  1
  O2-  O555  1  0.58045146  0.39045576  0.02977117  1
  O2-  O556  1  0.57846010  0.40974521  0.34390643  1
  O2-  O557  1  0.58704353  0.41845928  0.68146278  1
  O2-  O558  1  0.58389752  0.67226528  0.02412324  1
  O2-  O559  1  0.57645258  0.65823667  0.34658902  1
  O2-  O560  1  0.59602925  0.66967594  0.68848881  1
  O2-  O561  1  0.61222770  0.93110046  0.03717888  1
  O2-  O562  1  0.58165119  0.91084307  0.35041063  1
  O2-  O563  1  0.58217825  0.92765001  0.68592675  1
  O2-  O564  1  0.82946219  0.13781559  0.02928971  1
  O2-  O565  1  0.83489188  0.16685211  0.34979646  1
  O2-  O566  1  0.82423974  0.16622048  0.68134753  1
  O2-  O567  1  0.83506565  0.45374041  0.02558516  1
  O2-  O568  1  0.83722219  0.41305405  0.34724679  1
  O2-  O569  1  0.84141675  0.42516988  0.68346536  1
  O2-  O570  1  0.82795979  0.67071677  0.02369785  1
  O2-  O571  1  0.82833949  0.66075886  0.35130847  1
  O2-  O572  1  0.84248254  0.66767661  0.69022897  1
  O2-  O573  1  0.82954141  0.91507562  0.04050904  1
  O2-  O574  1  0.83280079  0.91335037  0.30185269  1
  O2-  O575  1  0.83993130  0.92505482  0.69811193  1
