# generated using pymatgen
data_H2O
_symmetry_space_group_name_H-M   'P 1'
_cell_length_a   17.99347995
_cell_length_b   17.99607246
_cell_length_c   22.00556276
_cell_angle_alpha   89.98316561
_cell_angle_beta   89.99217417
_cell_angle_gamma   119.98470789
_symmetry_Int_Tables_number   1
_chemical_formula_structural   H2O
_chemical_formula_sum   'H384 O192'
_cell_volume   6171.95666250
_cell_formula_units_Z   192
loop_
 _symmetry_equiv_pos_site_id
 _symmetry_equiv_pos_as_xyz
  1  'x, y, z'
loop_
 _atom_type_symbol
 _atom_type_oxidation_number
  H+  1.0
  O2-  -2.0
loop_
 _atom_site_type_symbol
 _atom_site_label
 _atom_site_symmetry_multiplicity
 _atom_site_fract_x
 _atom_site_fract_y
 _atom_site_fract_z
 _atom_site_occupancy
  H+  H0  1  0.12719832  0.89283816  0.15801771  1
  H+  H1  1  0.88806912  0.26934437  0.83683134  1
  H+  H2  1  0.37517743  0.26749928  0.98726490  1
  H+  H3  1  0.08589918  0.92162418  0.06421037  1
  H+  H4  1  0.79056771  0.62287385  0.50224308  1
  H+  H5  1  0.38288558  0.88759856  0.32869360  1
  H+  H6  1  0.08725249  0.67955402  0.40455768  1
  H+  H7  1  0.66085776  0.65425680  0.32283125  1
  H+  H8  1  0.60313936  0.22747600  0.14787754  1
  H+  H9  1  0.88544512  0.52309370  0.15061425  1
  H+  H10  1  0.02857373  0.89459225  0.83946199  1
  H+  H11  1  0.32290512  0.96405457  0.68637901  1
  H+  H12  1  0.12221628  0.14166684  0.00527059  1
  H+  H13  1  0.24626903  0.42191737  0.51236069  1
  H+  H14  1  0.39240978  0.58609101  0.30220419  1
  H+  H15  1  0.88709704  0.77696321  0.98949506  1
  H+  H16  1  0.53088130  0.39532354  0.15943483  1
  H+  H17  1  0.11851763  0.48681575  0.15237057  1
  H+  H18  1  0.89154265  0.60848898  0.67617271  1
  H+  H19  1  0.73032433  0.62023151  0.84075718  1
  H+  H20  1  0.67301634  0.84820556  0.25018961  1
  H+  H21  1  0.49058965  0.59806142  0.84271291  1
  H+  H22  1  0.76373745  0.87468618  0.32630580  1
  H+  H23  1  0.56780829  0.40895742  0.40300926  1
  H+  H24  1  0.63571646  1.02645259  0.83458634  1
  H+  H25  1  0.38698307  0.35873125  0.83278227  1
  H+  H26  1  0.28533417  0.90624340  1.00138065  1
  H+  H27  1  0.60566894  0.13476048  -0.00082172  1
  H+  H28  1  0.39005671  0.78055154  0.66660520  1
  H+  H29  1  0.86802863  0.73539591  0.83157722  1
  H+  H30  1  0.59594310  0.36930611  0.35050686  1
  H+  H31  1  0.39626148  0.12229155  0.32001856  1
  H+  H32  1  0.41684410  0.58525441  0.93791788  1
  H+  H33  1  0.38115388  0.59988093  0.50512782  1
  H+  H34  1  0.84747995  0.10966606  0.33906800  1
  H+  H35  1  0.18401220  0.34107436  0.17306403  1
  H+  H36  1  0.27674502  0.63653232  0.15549002  1
  H+  H37  1  0.70635070  0.34425238  0.38374193  1
  H+  H38  1  0.40538836  0.36781091  0.16585066  1
  H+  H39  1  0.23059729  0.59702137  0.66042592  1
  H+  H40  1  0.89583915  0.87569062  0.84109719  1
  H+  H41  1  0.56691091  0.14884650  0.44791523  1
  H+  H42  1  0.11318244  0.47849711  0.68071315  1
  H+  H43  1  0.11342473  0.72641658  0.16701186  1
  H+  H44  1  0.37851334  0.90464084  -0.00228995  1
  H+  H45  1  0.63488808  0.27296360  0.66089568  1
  H+  H46  1  0.11255552  0.33414747  0.32932393  1
  H+  H47  1  0.89320743  0.75662504  0.50676956  1
  H+  H48  1  0.89868079  0.77029873  0.32386310  1
  H+  H49  1  0.63287995  0.77968458  0.98942502  1
  H+  H50  1  0.62022344  0.66239130  0.15852690  1
  H+  H51  1  0.09788813  0.38214408  0.15187945  1
  H+  H52  1  0.67337642  0.85418461  0.90193262  1
  H+  H53  1  0.63446995  1.03674385  0.52637249  1
  H+  H54  1  0.62063347  0.39186238  0.67342074  1
  H+  H55  1  0.17454559  0.55911122  0.33033412  1
  H+  H56  1  0.88704892  0.61574533  0.15224555  1
  H+  H57  1  0.86019568  0.13441782  0.81781648  1
  H+  H58  1  0.90043281  0.60394907  0.52178428  1
  H+  H59  1  0.14238520  0.04482521  0.99631281  1
  H+  H60  1  0.12464667  0.40781104  0.50291696  1
  H+  H61  1  0.51737785  0.13828303  -0.00130241  1
  H+  H62  1  0.07774009  0.91687806  0.39724098  1
  H+  H63  1  0.52272188  0.88504624  0.83006890  1
  H+  H64  1  0.19279254  0.39855838  0.57426593  1
  H+  H65  1  0.10624726  0.88766704  0.49476845  1
  H+  H66  1  0.14580519  0.78734772  0.33169615  1
  H+  H67  1  0.25167293  0.12185537  0.48219685  1
  H+  H68  1  -0.01788426  0.37106335  -0.01271432  1
  H+  H69  1  0.62545654  0.75350942  0.52688844  1
  H+  H70  1  0.31951992  0.41869568  0.15269465  1
  H+  H71  1  0.64204315  0.36726255  0.83260217  1
  H+  H72  1  0.36987287  0.08795314  0.60168353  1
  H+  H73  1  0.84583659  -0.00643095  0.49496697  1
  H+  H74  1  0.72199045  0.12387329  0.52623124  1
  H+  H75  1  0.66434724  0.08905934  0.92783902  1
  H+  H76  1  0.62530458  0.89083092  0.83579948  1
  H+  H77  1  0.14646361  0.61432664  0.99856409  1
  H+  H78  1  0.27047362  0.91291077  0.49028058  1
  H+  H79  1  0.36571512  0.97828114  0.83512092  1
  H+  H80  1  0.85710587  0.97905766  0.52383167  1
  H+  H81  1  0.86790763  0.21710798  0.71670582  1
  H+  H82  1  0.09922653  0.25289719  0.16526219  1
  H+  H83  1  0.11851496  0.64169665  0.69149858  1
  H+  H84  1  0.38947868  0.74107133  0.81440293  1
  H+  H85  1  0.86238296  0.23356233  0.49713116  1
  H+  H86  1  1.01522154  0.12416232  0.15441756  1
  H+  H87  1  0.78255408  0.87412561  0.15282776  1
  H+  H88  1  0.73589723  0.88974039  0.84247094  1
  H+  H89  1  0.37938910  0.35996082  -0.01319691  1
  H+  H90  1  0.61368153  0.63583220  0.82078353  1
  H+  H91  1  0.38188727  0.11386683  0.84095557  1
  H+  H92  1  0.65100539  0.32954229  0.57408632  1
  H+  H93  1  0.26981323  0.38893645  0.00448341  1
  H+  H94  1  0.87598739  1.00412034  0.32492729  1
  H+  H95  1  0.47357522  0.11600105  0.84038904  1
  H+  H96  1  0.84156185  0.63269856  -0.00722893  1
  H+  H97  1  0.62376899  0.52564670  0.99266647  1
  H+  H98  1  0.84814502  0.48119915  0.33566698  1
  H+  H99  1  0.27361793  0.13112203  0.33141544  1
  H+  H100  1  0.13683014  0.10609717  0.32054061  1
  H+  H101  1  0.86257271  0.36016599  0.51798545  1
  H+  H102  1  0.52059788  0.62762223  0.31787382  1
  H+  H103  1  0.97354641  0.15614015  0.86269136  1
  H+  H104  1  0.15874165  0.07341631  0.55720812  1
  H+  H105  1  0.46163863  0.87277950  0.30930243  1
  H+  H106  1  0.37078565  0.22742881  0.15690717  1
  H+  H107  1  0.38258918  0.62083494  -0.00697371  1
  H+  H108  1  0.76008680  0.64345352  1.00021998  1
  H+  H109  1  0.93729609  0.59676736  0.98807538  1
  H+  H110  1  1.02264268  0.87604644  0.64416946  1
  H+  H111  1  0.86778765  -0.03530084  0.15429196  1
  H+  H112  1  0.11558935  0.52931172  0.51838465  1
  H+  H113  1  0.13655242  0.62219421  0.32539909  1
  H+  H114  1  0.87209186  0.10348578  -0.00181030  1
  H+  H115  1  0.38063481  0.35873014  0.51010183  1
  H+  H116  1  0.90015057  0.86018148  0.16848129  1
  H+  H117  1  0.60652442  0.89068081  0.30027816  1
  H+  H118  1  0.11434295  0.47961036  1.00145674  1
  H+  H119  1  0.77015073  0.12569581  0.18061374  1
  H+  H120  1  0.78391087  0.62931556  0.67892971  1
  H+  H121  1  0.63896749  0.37407658  0.15723880  1
  H+  H122  1  0.19698707  0.26063474  0.53914402  1
  H+  H123  1  0.38974461  0.03164749  0.31973029  1
  H+  H124  1  0.36693036  0.22315320  0.82754883  1
  H+  H125  1  0.90654140  0.15401813  0.52057569  1
  H+  H126  1  0.13644343  0.31083139  0.26549804  1
  H+  H127  1  0.11115664  0.68526235  0.07627005  1
  H+  H128  1  0.14044384  0.11623826  0.16740518  1
  H+  H129  1  0.26303495  0.37118874  0.33106271  1
  H+  H130  1  0.77929408  0.38953660  0.82280918  1
  H+  H131  1  0.74930209  0.38261638  0.51130359  1
  H+  H132  1  0.89919370  0.57251878  0.23863391  1
  H+  H133  1  0.48955450  0.12700495  0.16278234  1
  H+  H134  1  0.47579845  0.87128586  -0.00867020  1
  H+  H135  1  0.49640690  0.67330323  0.68242258  1
  H+  H136  1  0.03707014  0.32330911  0.49113455  1
  H+  H137  1  0.74733081  0.71081634  0.28933575  1
  H+  H138  1  0.77290604  0.38692113  0.14082646  1
  H+  H139  1  0.58823010  0.91174593  0.76457631  1
  H+  H140  1  0.06030089  0.42495191  0.34288248  1
  H+  H141  1  0.62565856  0.97236629  0.69008664  1
  H+  H142  1  0.64353002  0.76980871  0.67779174  1
  H+  H143  1  0.12583875  0.01109295  0.49810775  1
  H+  H144  1  0.61998098  0.14412962  0.68156369  1
  H+  H145  1  0.36924713  0.66894389  0.31318786  1
  H+  H146  1  0.06729036  0.67802084  0.01315772  1
  H+  H147  1  0.62148898  0.93513526  0.45202169  1
  H+  H148  1  0.89563158  0.51531953  0.52768324  1
  H+  H149  1  0.36212295  0.22260814  0.33356807  1
  H+  H150  1  0.12539995  -0.01852798  0.15746821  1
  H+  H151  1  0.55122709  0.34858298  0.04955679  1
  H+  H152  1  0.62236747  0.00557867  0.30205370  1
  H+  H153  1  0.72306586  0.11479023  0.82857370  1
  H+  H154  1  0.87855857  0.72913987  0.15067849  1
  H+  H155  1  0.46192501  0.12898564  0.51362449  1
  H+  H156  1  0.71988084  0.09445785  0.33110043  1
  H+  H157  1  0.12545353  1.00599806  0.64237721  1
  H+  H158  1  0.87574795  0.99293655  0.83071625  1
  H+  H159  1  0.35554977  0.45520331  0.32295051  1
  H+  H160  1  0.13552655  0.61227771  0.16803763  1
  H+  H161  1  0.92158314  0.33214665  -0.07854626  1
  H+  H162  1  0.42717752  0.83939253  0.50871938  1
  H+  H163  1  0.66811198  0.61887721  0.51916286  1
  H+  H164  1  0.36095865  0.64478073  0.34292362  1
  H+  H165  1  0.72173555  0.92299988  0.17578912  1
  H+  H166  1  0.86669324  0.64512396  0.83217696  1
  H+  H167  1  0.60351889  0.61297317  0.44450665  1
  H+  H168  1  0.35324996  0.13574380  0.48969232  1
  H+  H169  1  0.36966456  0.47555665  0.48751131  1
  H+  H170  1  0.13953834  0.01959301  0.32082186  1
  H+  H171  1  0.13545843  0.36365019  0.66755175  1
  H+  H172  1  0.12031169  0.22758641  0.67031379  1
  H+  H173  1  0.03280449  0.66168718  0.34552636  1
  H+  H174  1  0.13284099  0.10035908  0.65035537  1
  H+  H175  1  0.56364813  0.91138705  0.24382052  1
  H+  H176  1  0.27925232  0.13971384  0.15770430  1
  H+  H177  1  0.35516953  0.69442053  0.51556400  1
  H+  H178  1  0.15070480  0.87253376  0.60348076  1
  H+  H179  1  0.36138618  0.46463205  0.82479239  1
  H+  H180  1  0.76695062  0.37121861  0.99033083  1
  H+  H181  1  0.84906529  0.65024002  0.44132212  1
  H+  H182  1  0.62995875  0.88422313  0.69089834  1
  H+  H183  1  0.38368839  0.78492083  0.99239219  1
  H+  H184  1  0.02390149  0.63706340  0.15539786  1
  H+  H185  1  0.60985798  0.22911176  0.82353482  1
  H+  H186  1  0.56683552  0.67544797  0.37955366  1
  H+  H187  1  0.34549387  0.35201055  0.67275799  1
  H+  H188  1  -0.00783777  0.12266121  0.67088998  1
  H+  H189  1  0.37880699  1.00319424  -0.00547812  1
  H+  H190  1  -0.01840746  0.35662913  0.83965836  1
  H+  H191  1  0.83240090  0.39808985  0.71699108  1
  H+  H192  1  0.42686795  0.09364132  0.23008175  1
  H+  H193  1  0.95742624  0.56873954  0.28877768  1
  H+  H194  1  0.27470841  0.64197297  0.00143825  1
  H+  H195  1  0.41892973  0.54782770  0.15033247  1
  H+  H196  1  0.33281667  0.88143727  0.68827546  1
  H+  H197  1  0.34507569  0.77105516  0.36834275  1
  H+  H198  1  0.87430289  -0.01798275  0.67734910  1
  H+  H199  1  0.47211083  0.61136426  0.52001066  1
  H+  H200  1  0.88536606  0.36716996  -0.01779811  1
  H+  H201  1  0.52973375  0.61111720  0.66302567  1
  H+  H202  1  0.35938220  0.91719653  0.49377026  1
  H+  H203  1  0.25916641  0.09884179  0.65285326  1
  H+  H204  1  0.09962621  0.20608782  0.33513784  1
  H+  H205  1  0.74984406  0.83494050  0.48113578  1
  H+  H206  1  0.14269626  0.79040397  0.51137804  1
  H+  H207  1  1.01228050  0.87924164  0.49027419  1
  H+  H208  1  0.99461882  0.13689019  0.51936642  1
  H+  H209  1  0.65469441  0.61150631  0.66524456  1
  H+  H210  1  0.32799345  0.79323657  0.52261925  1
  H+  H211  1  0.62270240  0.83854700  0.52927861  1
  H+  H212  1  0.59564671  0.13563044  0.51387497  1
  H+  H213  1  0.72598242  0.36134311  0.65389531  1
  H+  H214  1  0.09738913  0.10780118  0.48934648  1
  H+  H215  1  0.50586487  0.37024084  -0.00220267  1
  H+  H216  1  0.86570702  0.82376347  0.49011082  1
  H+  H217  1  0.16244075  0.58301106  0.61042276  1
  H+  H218  1  0.72424130  0.86627553  0.99297538  1
  H+  H219  1  0.11981151  0.89933230  0.00493081  1
  H+  H220  1  0.26116818  0.14001203  1.00095973  1
  H+  H221  1  0.21213954  0.60099821  0.51500207  1
  H+  H222  1  0.02576985  0.38573712  0.68121231  1
  H+  H223  1  0.60229818  0.38407425  0.49831272  1
  H+  H224  1  0.13030392  0.13719268  0.83287548  1
  H+  H225  1  0.62835948  0.78124475  0.30771514  1
  H+  H226  1  0.38911391  0.12061196  0.16893221  1
  H+  H227  1  0.32484687  0.40342343  0.76521280  1
  H+  H228  1  0.25927199  0.68555772  0.36504962  1
  H+  H229  1  0.95563884  0.37016566  0.51641721  1
  H+  H230  1  0.11101643  0.38014104  0.83204483  1
  H+  H231  1  0.54733693  0.95360140  0.44396785  1
  H+  H232  1  0.60769121  0.13932177  0.82396575  1
  H+  H233  1  0.67694486  0.71268963  0.45134689  1
  H+  H234  1  0.11421594  0.72769146  0.83932528  1
  H+  H235  1  0.63219102  0.75753905  0.15067634  1
  H+  H236  1  0.83800826  0.15997840  0.44495380  1
  H+  H237  1  0.61603466  0.47762302  0.49868734  1
  H+  H238  1  0.14467098  0.03618531  0.85921622  1
  H+  H239  1  0.39306122  0.86906230  0.83703379  1
  H+  H240  1  0.63462344  0.35548446  0.98181960  1
  H+  H241  1  0.87956802  1.01828877  -0.00895527  1
  H+  H242  1  0.13833152  0.26847603  0.84098025  1
  H+  H243  1  0.16795510  0.27843399  0.53177245  1
  H+  H244  1  0.22441748  0.35835950  0.84096561  1
  H+  H245  1  0.13484589  0.87071977  0.32886844  1
  H+  H246  1  0.03772535  0.12096597  0.81445073  1
  H+  H247  1  0.11077739  0.38622965  0.00259428  1
  H+  H248  1  0.84978376  0.46505074  -0.01256955  1
  H+  H249  1  0.12854781  0.60889942  0.84919978  1
  H+  H250  1  0.87155580  0.63098193  0.33528598  1
  H+  H251  1  0.02098038  0.88784701  0.33604801  1
  H+  H252  1  0.97878703  0.86597178  0.99348082  1
  H+  H253  1  0.51834827  0.64406475  0.00608146  1
  H+  H254  1  0.86185184  0.88483864  -0.00181460  1
  H+  H255  1  0.36800988  0.64432641  0.82003881  1
  H+  H256  1  0.33413001  0.67450386  0.06054442  1
  H+  H257  1  0.87475034  0.35126822  0.15234847  1
  H+  H258  1  0.63145141  0.26497455  0.98538295  1
  H+  H259  1  0.16294413  0.57887492  0.93456875  1
  H+  H260  1  0.61120876  0.89237076  0.00298131  1
  H+  H261  1  0.51859257  0.12075345  0.34413283  1
  H+  H262  1  0.37932513  0.11770559  -0.01241346  1
  H+  H263  1  0.73365131  0.10784849  0.69057743  1
  H+  H264  1  0.76041226  0.12359322  0.00830456  1
  H+  H265  1  0.23573043  0.86805387  0.84890780  1
  H+  H266  1  0.62582538  0.53674069  0.17961997  1
  H+  H267  1  0.12764238  0.51929406  0.84795554  1
  H+  H268  1  0.61870501  0.48095385  0.82764873  1
  H+  H269  1  0.36354491  0.60095998  0.61312052  1
  H+  H270  1  0.02703925  0.63432553  0.69144081  1
  H+  H271  1  0.52925277  0.39102842  0.82580658  1
  H+  H272  1  0.62854842  0.02560950  0.98508187  1
  H+  H273  1  0.61999016  0.27033673  0.51319486  1
  H+  H274  1  0.90347891  0.87596273  0.65502455  1
  H+  H275  1  0.16992999  0.79925839  0.00356868  1
  H+  H276  1  0.37355615  1.04111617  0.50607840  1
  H+  H277  1  0.85081075  0.33712988  0.35479695  1
  H+  H278  1  0.27681830  0.13947290  0.83920411  1
  H+  H279  1  0.37962497  0.34828991  0.31999840  1
  H+  H280  1  0.87993591  0.09610951  0.17287744  1
  H+  H281  1  0.47236078  0.36769102  0.51380221  1
  H+  H282  1  0.32556834  0.91630505  0.77675998  1
  H+  H283  1  -0.02065901  0.61829072  0.84204777  1
  H+  H284  1  0.49766367  0.64281305  0.16003569  1
  H+  H285  1  0.22652246  0.83883048  0.18761573  1
  H+  H286  1  0.02456300  0.64469151  0.50116219  1
  H+  H287  1  0.36561849  0.24365433  0.65569458  1
  H+  H288  1  0.78899857  0.88981038  0.68277199  1
  H+  H289  1  0.93259064  0.32646223  0.36304824  1
  H+  H290  1  0.08191534  0.41339685  0.77356933  1
  H+  H291  1  0.79429098  0.64786842  0.34663894  1
  H+  H292  1  0.37113466  0.64759907  0.15312728  1
  H+  H293  1  0.91051140  0.06407097  0.22985747  1
  H+  H294  1  0.41753639  0.33294022  0.89321665  1
  H+  H295  1  0.02723261  0.13750715  0.00537074  1
  H+  H296  1  0.16702735  0.58204983  0.22570971  1
  H+  H297  1  0.22121211  0.35683639  0.66282469  1
  H+  H298  1  0.58723978  0.68153893  0.06088041  1
  H+  H299  1  0.57721207  0.17265732  0.73070376  1
  H+  H300  1  0.92180452  0.84221239  0.90043673  1
  H+  H301  1  0.83156981  0.41138014  0.08157479  1
  H+  H302  1  0.06866684  0.14132694  0.39213132  1
  H+  H303  1  0.83949003  0.66584140  0.73871523  1
  H+  H304  1  0.62233934  0.61435111  0.99246130  1
  H+  H305  1  0.86285248  0.46896459  0.66783744  1
  H+  H306  1  0.66773032  0.33829653  0.21187333  1
  H+  H307  1  0.83672953  0.19350219  0.35190468  1
  H+  H308  1  0.14688121  0.86963509  0.85290165  1
  H+  H309  1  0.09995141  0.93621678  0.78825683  1
  H+  H310  1  0.95530190  0.26925556  0.62852175  1
  H+  H311  1  0.46119836  0.51977727  0.88690274  1
  H+  H312  1  0.92270053  0.82704791  0.26179208  1
  H+  H313  1  0.39613643  0.84404535  0.61599644  1
  H+  H314  1  0.16149731  0.83321857  0.23609972  1
  H+  H315  1  0.64383816  0.51481014  0.66721726  1
  H+  H316  1  0.35842411  0.48029688  0.00136832  1
  H+  H317  1  0.83413117  0.91071468  0.05937560  1
  H+  H318  1  0.33206669  0.94217898  0.39782847  1
  H+  H319  1  0.81273537  0.42609700  0.45497829  1
  H+  H320  1  0.42521079  0.33251165  0.22805490  1
  H+  H321  1  0.10219570  0.16820041  0.72971284  1
  H+  H322  1  0.62775959  0.09941080  0.33337263  1
  H+  H323  1  0.36520449  0.77968486  0.14707713  1
  H+  H324  1  0.68633708  0.57801371  0.57730260  1
  H+  H325  1  0.58020206  0.92899234  0.05879983  1
  H+  H326  1  0.85262065  0.87013430  0.32923129  1
  H+  H327  1  0.39301173  0.68168941  0.72336893  1
  H+  H328  1  0.11185805  0.19969943  0.48002711  1
  H+  H329  1  0.84734158  0.93166162  0.77226330  1
  H+  H330  1  0.93074501  0.58467785  0.61855438  1
  H+  H331  1  0.83866325  0.67332735  0.09007766  1
  H+  H332  1  0.66399678  0.58809600  0.89662482  1
  H+  H333  1  0.05915611  0.38348464  0.40769517  1
  H+  H334  1  0.99158783  0.86518974  0.17128705  1
  H+  H335  1  0.07790799  0.16371004  0.09510670  1
  H+  H336  1  0.89819305  0.57617784  0.92067420  1
  H+  H337  1  0.42063260  0.83723532  0.89578976  1
  H+  H338  1  0.17247665  0.10250629  0.91765639  1
  H+  H339  1  0.60867162  0.20277909  0.35880918  1
  H+  H340  1  0.66394676  0.60305084  0.23439229  1
  H+  H341  1  0.70224723  0.33076443  0.31497042  1
  H+  H342  1  0.78998836  0.84472464  0.41419828  1
  H+  H343  1  0.02578993  0.71861739  0.46517116  1
  H+  H344  1  0.35722114  0.44709946  0.67067302  1
  H+  H345  1  0.59427244  0.42373659  0.73370422  1
  H+  H346  1  0.90122305  0.11856445  0.68351293  1
  H+  H347  1  0.35576428  0.42590449  0.08623760  1
  H+  H348  1  0.31961152  0.67952680  0.44760846  1
  H+  H349  1  0.68063136  0.08613595  0.62793214  1
  H+  H350  1  0.62411197  0.00271379  0.15156589  1
  H+  H351  1  0.27235479  0.90575503  0.33806019  1
  H+  H352  1  0.47082395  0.35223656  0.32619102  1
  H+  H353  1  0.18555459  0.84839205  0.93905837  1
  H+  H354  1  0.17112549  0.08666433  0.22661461  1
  H+  H355  1  0.80932315  0.13663607  0.07120799  1
  H+  H356  1  0.08595892  0.42469392  0.08461231  1
  H+  H357  1  0.66911337  0.33166142  0.88993693  1
  H+  H358  1  0.13295381  0.27279541  0.99716112  1
  H+  H359  1  0.86805351  0.39050083  0.82657089  1
  H+  H360  1  0.41389609  0.09005034  0.92666300  1
  H+  H361  1  0.32934114  0.41471403  0.42897302  1
  H+  H362  1  0.96512659  0.09298709  0.32342355  1
  H+  H363  1  0.08519774  0.66951930  0.77829478  1
  H+  H364  1  0.56761397  0.65549312  0.76544710  1
  H+  H365  1  0.39706845  0.31402682  0.60258352  1
  H+  H366  1  0.32012719  0.15708106  0.42026700  1
  H+  H367  1  0.85181859  0.21256958  0.16093708  1
  H+  H368  1  0.09732492  0.87995895  0.68748297  1
  H+  H369  1  0.16276951  0.33074379  0.93680443  1
  H+  H370  1  0.90256603  0.31433146  0.61837823  1
  H+  H371  1  0.56950599  0.16210092  0.09159684  1
  H+  H372  1  0.90829147  0.09067428  0.91024010  1
  H+  H373  1  0.88958133  0.52753590  0.83444490  1
  H+  H374  1  0.60760465  0.87112549  0.17447693  1
  H+  H375  1  0.91912890  0.33547374  0.20869388  1
  H+  H376  1  0.91606902  0.83929056  0.59093444  1
  H+  H377  1  0.67705967  0.82711346  0.61975197  1
  H+  H378  1  0.33154896  0.16793952  0.05711187  1
  H+  H379  1  0.94033776  0.12392630  0.58840978  1
  H+  H380  1  0.43033358  0.57074643  0.24273283  1
  H+  H381  1  0.35071658  0.83265072  0.24031875  1
  H+  H382  1  0.59049783  0.44570024  0.10253322  1
  H+  H383  1  0.90015609  0.46964978  0.38656065  1
  O2-  O384  1  0.07591297  0.16361383  0.14160832  1
  O2-  O385  1  0.06658037  0.13975635  0.47444338  1
  O2-  O386  1  0.09828345  0.16305620  0.80867048  1
  O2-  O387  1  0.08595976  0.42644476  0.13247229  1
  O2-  O388  1  0.06430617  0.38445690  0.48212637  1
  O2-  O389  1  0.07748845  0.40818103  0.81913093  1
  O2-  O390  1  0.08749233  0.66760299  0.14787933  1
  O2-  O391  1  0.06377495  0.69610613  0.47520316  1
  O2-  O392  1  0.08094231  0.66737569  0.82508267  1
  O2-  O393  1  0.09455638  0.92056472  0.14333647  1
  O2-  O394  1  0.07352330  0.91285415  0.47541449  1
  O2-  O395  1  0.09284168  0.92588259  0.83184519  1
  O2-  O396  1  0.34020937  0.16638475  0.14314206  1
  O2-  O397  1  0.31363995  0.15504967  0.46679914  1
  O2-  O398  1  0.33381900  0.16059479  0.81983049  1
  O2-  O399  1  0.37270598  0.43510718  0.13109374  1
  O2-  O400  1  0.32822813  0.41648128  0.47400210  1
  O2-  O401  1  0.32437549  0.40440489  0.81083612  1
  O2-  O402  1  0.33481385  0.67095265  0.13776066  1
  O2-  O403  1  0.32342199  0.64925941  0.48592605  1
  O2-  O404  1  0.37245581  0.68723710  0.79119230  1
  O2-  O405  1  0.31262459  0.82021198  0.20403299  1
  O2-  O406  1  0.33113983  0.94696010  0.47491182  1
  O2-  O407  1  0.33562596  0.91641143  0.82270879  1
  O2-  O408  1  0.56849293  0.16565303  0.13730738  1
  O2-  O409  1  0.56495069  0.16048743  0.49184310  1
  O2-  O410  1  0.57458713  0.16736729  0.81141803  1
  O2-  O411  1  0.59261968  0.43187470  0.14541477  1
  O2-  O412  1  0.57826507  0.41955740  0.48165076  1
  O2-  O413  1  0.59078401  0.42046677  0.81272848  1
  O2-  O414  1  0.59841272  0.69713392  0.13677278  1
  O2-  O415  1  0.61734571  0.66721308  0.46404652  1
  O2-  O416  1  0.57381750  0.65730843  0.80998849  1
  O2-  O417  1  0.55327611  0.88249106  0.17627543  1
  O2-  O418  1  0.57770946  0.94025294  0.47496677  1
  O2-  O419  1  0.58531613  0.91643136  0.81535934  1
  O2-  O420  1  0.82237213  0.14799656  0.15656276  1
  O2-  O421  1  0.84340444  0.17115137  0.48944825  1
  O2-  O422  1  0.83321693  0.16632208  0.79827266  1
  O2-  O423  1  0.83362991  0.41459862  0.12697533  1
  O2-  O424  1  0.81250256  0.41417458  0.49846401  1
  O2-  O425  1  0.84087047  0.42196583  0.80984515  1
  O2-  O426  1  0.84701280  0.66968237  0.13441138  1
  O2-  O427  1  0.85124668  0.65188690  0.48659864  1
  O2-  O428  1  0.83417283  0.67391699  0.81929845  1
  O2-  O429  1  0.84258094  0.90489524  0.13770926  1
  O2-  O430  1  0.77118021  0.80810722  0.45226088  1
  O2-  O431  1  0.84377448  0.93232999  0.81780993  1
  O2-  O432  1  0.17386188  0.08888559  0.18116891  1
  O2-  O433  1  0.15775181  0.07360653  0.51077691  1
  O2-  O434  1  0.17300288  0.09807315  0.86906475  1
  O2-  O435  1  0.12321069  0.31462311  0.18287693  1
  O2-  O436  1  0.20588655  0.43322104  0.53655161  1
  O2-  O437  1  0.16411696  0.32780219  0.85737283  1
  O2-  O438  1  0.16348373  0.57787286  0.18060847  1
  O2-  O439  1  0.15598551  0.58683582  0.53273543  1
  O2-  O440  1  0.15688720  0.57753285  0.86576765  1
  O2-  O441  1  0.16688419  0.82853199  0.19118940  1
  O2-  O442  1  0.17340773  0.85352970  0.51970991  1
  O2-  O443  1  0.17589409  0.83804209  0.86711842  1
  O2-  O444  1  0.42489603  0.09395579  0.18377589  1
  O2-  O445  1  0.39891900  0.10171805  0.52214086  1
  O2-  O446  1  0.41398245  0.08403077  0.85754025  1
  O2-  O447  1  0.43129930  0.33435379  0.18241185  1
  O2-  O448  1  0.41260299  0.33332663  0.52870239  1
  O2-  O449  1  0.42367693  0.33569371  0.84812103  1
  O2-  O450  1  0.43614655  0.60202843  0.17252081  1
  O2-  O451  1  0.41127700  0.57594614  0.52933439  1
  O2-  O452  1  0.43818463  0.55304305  0.86787283  1
  O2-  O453  1  0.36998362  0.83708005  0.15244502  1
  O2-  O454  1  0.38271615  0.84562222  0.52969376  1
  O2-  O455  1  0.42555478  0.83928915  0.85056353  1
  O2-  O456  1  0.57305815  -0.04627859  0.13404840  1
  O2-  O457  1  0.66451580  0.09455308  0.54495645  1
  O2-  O458  1  0.66569977  0.08749168  0.84775430  1
  O2-  O459  1  0.66560054  0.33764509  0.16763738  1
  O2-  O460  1  0.65021365  0.33097339  0.52708652  1
  O2-  O461  1  0.67181750  0.33476534  0.84477371  1
  O2-  O462  1  0.63016761  0.58933470  0.19678056  1
  O2-  O463  1  0.69031119  0.58097801  0.53094504  1
  O2-  O464  1  0.66763237  0.58731300  0.85157357  1
  O2-  O465  1  0.68077292  0.86253059  0.18322179  1
  O2-  O466  1  0.65831687  0.81367797  0.53988939  1
  O2-  O467  1  0.67519397  0.86203692  0.85660399  1
  O2-  O468  1  0.91174071  0.06593226  0.18436360  1
  O2-  O469  1  0.95488534  0.15000525  0.54497162  1
  O2-  O470  1  0.91800464  0.10342456  0.86362417  1
  O2-  O471  1  0.90160949  0.31738945  0.16694838  1
  O2-  O472  1  0.89600442  0.33090605  0.52901297  1
  O2-  O473  1  0.91983845  0.32679388  0.85608431  1
  O2-  O474  1  0.91495401  0.58152491  0.16914144  1
  O2-  O475  1  0.93365851  0.57693835  0.53738510  1
  O2-  O476  1  0.91589763  0.58619766  0.85321049  1
  O2-  O477  1  0.93083178  0.83182395  0.18622608  1
  O2-  O478  1  0.91099342  0.81860933  0.51240567  1
  O2-  O479  1  0.92523210  0.84396115  0.85469852  1
  O2-  O480  1  0.17108460  0.08005075  0.30531181  1
  O2-  O481  1  0.15676325  0.06803004  0.62942842  1
  O2-  O482  1  0.17282247  0.10536034  0.98344758  1
  O2-  O483  1  0.14638005  0.31070140  0.30987584  1
  O2-  O484  1  0.16147448  0.33307841  0.64621104  1
  O2-  O485  1  0.16183703  0.33437962  0.98222419  1
  O2-  O486  1  0.17633106  0.60541130  0.30624291  1
  O2-  O487  1  0.16947307  0.57918950  0.65532099  1
  O2-  O488  1  0.16764420  0.57724336  0.98165645  1
  O2-  O489  1  0.17042277  0.84542148  0.31385810  1
  O2-  O490  1  0.19243098  0.85741381  0.58493901  1
  O2-  O491  1  0.19189803  0.85702259  0.98513303  1
  O2-  O492  1  0.42698790  0.09250953  0.30441201  1
  O2-  O493  1  0.34586477  0.06520864  0.64259190  1
  O2-  O494  1  0.41335221  0.08967765  0.97379078  1
  O2-  O495  1  0.41265234  0.32088577  0.30512233  1
  O2-  O496  1  0.38483674  0.30426525  0.64737670  1
  O2-  O497  1  0.40929943  0.32927843  0.97236337  1
  O2-  O498  1  0.42444779  0.55823592  0.28819647  1
  O2-  O499  1  0.34025562  0.60485887  0.65302625  1
  O2-  O500  1  0.41185837  0.58700444  0.98297210  1
  O2-  O501  1  0.39841704  0.84514071  0.31191974  1
  O2-  O502  1  0.39258766  0.83576180  0.66009947  1
  O2-  O503  1  0.41491349  0.84515339  0.97633432  1
  O2-  O504  1  0.66119479  0.07563792  0.31105099  1
  O2-  O505  1  0.67562666  0.07769602  0.67255017  1
  O2-  O506  1  0.65934642  0.08756358  0.97300131  1
  O2-  O507  1  0.66567919  0.31372521  0.35092760  1
  O2-  O508  1  0.66301771  0.33326350  0.64333078  1
  O2-  O509  1  0.66572051  0.32557138  0.96913273  1
  O2-  O510  1  0.71350203  0.65436705  0.30799252  1
  O2-  O511  1  0.67904209  0.57827371  0.64871508  1
  O2-  O512  1  0.65364567  0.58445440  0.97707651  1
  O2-  O513  1  0.66505615  0.84289729  0.29770555  1
  O2-  O514  1  0.68112949  0.82997385  0.66474523  1
  O2-  O515  1  0.66404768  0.84160141  0.97740437  1
  O2-  O516  1  0.90409158  0.06432456  0.30919808  1
  O2-  O517  1  0.93017886  0.09723533  0.65604975  1
  O2-  O518  1  0.90778889  0.08011972  0.97883962  1
  O2-  O519  1  0.86924826  0.29625581  0.36658660  1
  O2-  O520  1  0.92657707  0.29448237  0.65086112  1
  O2-  O521  1  0.92202221  0.34003458  0.96937749  1
  O2-  O522  1  0.90303955  0.56811428  0.28541542  1
  O2-  O523  1  0.92385030  0.57776517  0.66317435  1
  O2-  O524  1  0.88281170  0.56684472  0.96677538  1
  O2-  O525  1  0.91752182  0.82851900  0.30756223  1
  O2-  O526  1  0.93088877  0.84676409  0.63467193  1
  O2-  O527  1  0.91929186  0.83812590  0.97590294  1
  O2-  O528  1  0.08615823  0.17083099  0.02182017  1
  O2-  O529  1  0.07098491  0.14406620  0.34704915  1
  O2-  O530  1  0.09301825  0.16635088  0.68468756  1
  O2-  O531  1  0.08001412  0.41750137  0.01719138  1
  O2-  O532  1  0.04552339  0.37090455  0.36276731  1
  O2-  O533  1  0.08510220  0.41783458  0.69698507  1
  O2-  O534  1  0.12272436  0.69337745  0.03074925  1
  O2-  O535  1  0.09036698  0.67676811  0.35888619  1
  O2-  O536  1  0.08673911  0.66868633  0.70775413  1
  O2-  O537  1  0.08247140  0.92177317  0.01893406  1
  O2-  O538  1  0.08127644  0.91861664  0.35181865  1
  O2-  O539  1  0.08897392  0.90099393  0.64875285  1
  O2-  O540  1  0.32839747  0.16828873  0.01230358  1
  O2-  O541  1  0.33302048  0.16148091  0.34947888  1
  O2-  O542  1  0.32027819  0.12534946  0.66632982  1
  O2-  O543  1  0.33226448  0.41909160  0.01544555  1
  O2-  O544  1  0.32357086  0.39966459  0.34489831  1
  O2-  O545  1  0.32091424  0.39089174  0.68886598  1
  O2-  O546  1  0.33572766  0.67753341  0.01500693  1
  O2-  O547  1  0.29919819  0.72678349  0.39489961  1
  O2-  O548  1  0.41080153  0.68581572  0.67801626  1
  O2-  O549  1  0.35043236  0.93945050  0.01201733  1
  O2-  O550  1  0.33354507  0.93921987  0.35242786  1
  O2-  O551  1  0.30322563  0.90942702  0.70767371  1
  O2-  O552  1  0.57727940  0.16704064  0.01528516  1
  O2-  O553  1  0.57477123  0.13969318  0.36575571  1
  O2-  O554  1  0.58841845  0.17530125  0.68628221  1
  O2-  O555  1  0.56443813  0.39133317  0.01776982  1
  O2-  O556  1  0.56496580  0.40034811  0.35800224  1
  O2-  O557  1  0.59746224  0.42864791  0.68859818  1
  O2-  O558  1  0.58115017  0.67413446  0.01557121  1
  O2-  O559  1  0.57685306  0.67214942  0.33610490  1
  O2-  O560  1  0.54758335  0.66444635  0.68495599  1
  O2-  O561  1  0.57899956  0.92275755  0.01374145  1
  O2-  O562  1  0.57399632  0.92194419  0.29024639  1
  O2-  O563  1  0.59657863  0.91155089  0.70503660  1
  O2-  O564  1  0.81765154  0.14356058  0.02693423  1
  O2-  O565  1  0.81129377  0.13054715  0.35971014  1
  O2-  O566  1  0.84123980  0.15692351  0.73193718  1
  O2-  O567  1  0.82939332  0.40522470  0.00283691  1
  O2-  O568  1  0.84203902  0.44183167  0.36982259  1
  O2-  O569  1  0.83009273  0.40487376  0.67280994  1
  O2-  O570  1  0.82228187  0.67083779  0.01076862  1
  O2-  O571  1  0.85306568  0.66389652  0.36097591  1
  O2-  O572  1  0.84340049  0.65811960  0.69451101  1
  O2-  O573  1  0.82943364  0.91267987  0.01426911  1
  O2-  O574  1  0.82000602  0.89582568  0.34814156  1
  O2-  O575  1  0.85048434  0.92405584  0.69519031  1
