# generated using pymatgen
data_H2O
_symmetry_space_group_name_H-M   'P 1'
_cell_length_a   17.98382538
_cell_length_b   17.98570689
_cell_length_c   22.00247409
_cell_angle_alpha   89.99247744
_cell_angle_beta   89.96659693
_cell_angle_gamma   120.00478925
_symmetry_Int_Tables_number   1
_chemical_formula_structural   H2O
_chemical_formula_sum   'H384 O192'
_cell_volume   6162.97849043
_cell_formula_units_Z   192
loop_
 _symmetry_equiv_pos_site_id
 _symmetry_equiv_pos_as_xyz
  1  'x, y, z'
loop_
 _atom_type_symbol
 _atom_type_oxidation_number
  H+  1.0
  O2-  -2.0
loop_
 _atom_site_type_symbol
 _atom_site_label
 _atom_site_symmetry_multiplicity
 _atom_site_fract_x
 _atom_site_fract_y
 _atom_site_fract_z
 _atom_site_occupancy
  H+  H0  1  0.53467471  0.62738572  0.68758925  1
  H+  H1  1  0.11626433  0.13103321  0.67421155  1
  H+  H2  1  0.11788620  0.12619095  0.00964318  1
  H+  H3  1  0.24026574  0.62774201  -0.00720994  1
  H+  H4  1  0.63876945  0.02351284  0.98842043  1
  H+  H5  1  0.05002476  0.44521958  -0.03434190  1
  H+  H6  1  0.29033081  0.64195880  0.31336604  1
  H+  H7  1  0.35770009  1.00393228  0.65057217  1
  H+  H8  1  0.02435060  0.89003900  0.00399696  1
  H+  H9  1  0.71672778  0.36518185  0.84298821  1
  H+  H10  1  0.03221573  0.46113785  0.99004607  1
  H+  H11  1  0.54094379  0.90127741  0.49644525  1
  H+  H12  1  0.49019957  0.60868674  0.84450505  1
  H+  H13  1  0.77835393  0.40339535  0.18408119  1
  H+  H14  1  0.47595931  0.35949186  0.17535827  1
  H+  H15  1  0.22824029  0.61290229  0.16645343  1
  H+  H16  1  0.62632461  0.36211150  0.84587000  1
  H+  H17  1  0.48616777  0.36775749  -0.00063703  1
  H+  H18  1  0.96356328  0.61449384  0.50255677  1
  H+  H19  1  0.39995575  0.60814276  0.67815308  1
  H+  H20  1  0.78602881  0.38644440  -0.00361069  1
  H+  H21  1  0.62307023  0.47993166  0.48473496  1
  H+  H22  1  0.37585586  0.11033383  0.98254535  1
  H+  H23  1  0.87182909  0.89841197  0.15716566  1
  H+  H24  1  0.36191493  0.47588125  0.68799282  1
  H+  H25  1  -0.01903357  0.38432805  0.82923694  1
  H+  H26  1  0.98711666  0.86949250  0.32701696  1
  H+  H27  1  0.38519944  0.76162450  0.16540785  1
  H+  H28  1  0.61897633  0.22286700  0.31802010  1
  H+  H29  1  0.25857038  0.87577981  0.98864323  1
  H+  H30  1  0.36913517  0.72647509  -0.00422864  1
  H+  H31  1  0.24971502  0.63685621  0.47201634  1
  H+  H32  1  0.98108150  0.10258130  0.98952535  1
  H+  H33  1  0.13436624  0.86337409  0.17346383  1
  H+  H34  1  0.60078546  0.23588850  0.82701374  1
  H+  H35  1  0.87907612  1.02291042  0.17700246  1
  H+  H36  1  0.39371382  0.52368414  0.84537674  1
  H+  H37  1  0.88928283  0.10281036  0.50118372  1
  H+  H38  1  0.98065111  0.87056326  0.17039097  1
  H+  H39  1  0.02104772  0.69365252  0.67745598  1
  H+  H40  1  0.11678258  0.97915137  0.00390495  1
  H+  H41  1  0.50099041  0.86449985  0.82908780  1
  H+  H42  1  0.10361411  0.21403618  0.32782286  1
  H+  H43  1  0.86343427  0.12169392  0.00039054  1
  H+  H44  1  0.22298088  0.11497534  0.17225624  1
  H+  H45  1  0.48133228  0.12496149  0.83050954  1
  H+  H46  1  0.35592611  0.45453041  0.46613443  1
  H+  H47  1  0.37015302  0.01736254  0.97585678  1
  H+  H48  1  0.64711446  0.74872960  0.18003463  1
  H+  H49  1  0.47554603  0.15229978  0.64701700  1
  H+  H50  1  0.29003653  0.89486764  0.83229990  1
  H+  H51  1  0.86735897  0.21604156  0.82415689  1
  H+  H52  1  0.12849825  1.01713256  0.32115597  1
  H+  H53  1  0.23582691  0.11483600  0.99269619  1
  H+  H54  1  0.12004621  0.65099455  1.00831217  1
  H+  H55  1  0.61110469  0.45901467  0.67390167  1
  H+  H56  1  -0.02688733  0.37039555  0.17774246  1
  H+  H57  1  0.88701304  0.26862080  0.33392074  1
  H+  H58  1  0.86872114  0.73165306  0.33404805  1
  H+  H59  1  0.59720624  0.22471191  0.16848401  1
  H+  H60  1  0.35120598  0.12211825  0.80338134  1
  H+  H61  1  0.74189505  0.09824746  0.83656319  1
  H+  H62  1  0.21961307  0.09606765  0.65552917  1
  H+  H63  1  0.65501968  0.58695774  0.22676197  1
  H+  H64  1  0.01345936  0.12226105  0.33373839  1
  H+  H65  1  0.11917874  0.89318833  0.33812554  1
  H+  H66  1  0.89750912  0.77648403  0.83803590  1
  H+  H67  1  0.64724788  1.03641764  0.50469376  1
  H+  H68  1  0.61815183  0.48646969  0.00182326  1
  H+  H69  1  0.11131013  0.63994005  0.15901374  1
  H+  H70  1  0.28309193  0.38586327  0.01115671  1
  H+  H71  1  0.85327133  0.59272163  0.65163879  1
  H+  H72  1  -0.02766361  0.35920189  0.33120921  1
  H+  H73  1  0.85679165  0.39085665  0.83154261  1
  H+  H74  1  0.96961622  0.61259164  0.32931168  1
  H+  H75  1  0.86200932  0.71905449  -0.00177300  1
  H+  H76  1  0.24035981  0.71285906  0.44639246  1
  H+  H77  1  0.36176833  0.39634602  0.84154593  1
  H+  H78  1  0.26704914  0.88239437  0.17839757  1
  H+  H79  1  0.00645636  0.32747154  0.01864074  1
  H+  H80  1  0.37251282  0.22053770  0.34037959  1
  H+  H81  1  0.10753450  0.37838768  0.33707537  1
  H+  H82  1  0.86318623  0.63178265  -0.00560166  1
  H+  H83  1  0.77434547  0.64767097  0.33322130  1
  H+  H84  1  0.63508230  0.59684494  0.66086524  1
  H+  H85  1  0.66945329  0.10369245  0.55958628  1
  H+  H86  1  0.77312680  0.14164634  0.67027327  1
  H+  H87  1  0.89655595  0.62444683  0.82867255  1
  H+  H88  1  0.66292138  0.33046658  0.94823340  1
  H+  H89  1  0.15198531  0.26312145  1.00052332  1
  H+  H90  1  0.39251523  0.52705435  0.99877540  1
  H+  H91  1  0.88992586  0.77394229  0.49347812  1
  H+  H92  1  0.39283440  0.02391330  0.33359878  1
  H+  H93  1  0.32821648  0.42517891  0.78175404  1
  H+  H94  1  0.36738324  0.63526471  0.00083400  1
  H+  H95  1  0.72721531  0.10641351  0.27225137  1
  H+  H96  1  0.19119933  0.60283735  0.37026278  1
  H+  H97  1  0.62166058  0.71138086  0.49452681  1
  H+  H98  1  0.77558613  0.63499882  0.82652976  1
  H+  H99  1  0.37714606  0.63047831  0.84334747  1
  H+  H100  1  0.59956130  0.88898905  0.33814745  1
  H+  H101  1  0.11961570  0.64135540  0.82703383  1
  H+  H102  1  0.22679793  0.10660791  0.83315721  1
  H+  H103  1  0.37916452  0.63927355  0.48808957  1
  H+  H104  1  0.88772183  0.36433959  0.50598507  1
  H+  H105  1  0.89652997  0.86559772  0.33206802  1
  H+  H106  1  1.03101358  0.13157661  0.82865416  1
  H+  H107  1  0.87606927  0.24235408  0.99427011  1
  H+  H108  1  0.03594464  0.64932817  0.81585032  1
  H+  H109  1  -0.02553116  0.36197759  0.66117449  1
  H+  H110  1  0.12215421  0.89218745  0.82832642  1
  H+  H111  1  0.77184873  0.87977155  -0.00485721  1
  H+  H112  1  0.77394647  0.12135008  0.00284983  1
  H+  H113  1  0.51238885  0.86726658  0.15282510  1
  H+  H114  1  0.82926618  0.44996963  0.66771957  1
  H+  H115  1  0.88611623  0.33998699  0.99100482  1
  H+  H116  1  0.36247763  0.63017689  0.15262875  1
  H+  H117  1  0.87874354  0.00935655  0.33869062  1
  H+  H118  1  0.87439752  0.96521111  0.67580363  1
  H+  H119  1  0.72950994  0.77093696  0.21993219  1
  H+  H120  1  0.87408235  0.23043275  0.50092992  1
  H+  H121  1  0.40590667  0.37694414  0.32199577  1
  H+  H122  1  0.12992020  0.11174978  0.17181520  1
  H+  H123  1  0.62633666  0.61921436  0.83511056  1
  H+  H124  1  0.89100200  0.86317656  0.99117878  1
  H+  H125  1  0.86103222  0.38277341  0.34305708  1
  H+  H126  1  0.72127546  0.61263799  0.17325311  1
  H+  H127  1  0.64398487  0.37095957  0.48814063  1
  H+  H128  1  0.40700525  0.78201562  0.82265898  1
  H+  H129  1  0.57719624  0.90876111  1.05324917  1
  H+  H130  1  0.62202863  0.76441110  1.00873822  1
  H+  H131  1  0.26717485  0.89284558  0.34560696  1
  H+  H132  1  0.02580625  0.37860036  0.49226927  1
  H+  H133  1  0.67152089  0.57021550  0.92747502  1
  H+  H134  1  0.53563581  0.13259144  0.33036629  1
  H+  H135  1  0.71351534  0.89148178  0.32270153  1
  H+  H136  1  0.21600360  0.35055415  0.31441614  1
  H+  H137  1  0.35194740  0.38342599  0.70203099  1
  H+  H138  1  1.02047164  0.65510541  0.69156463  1
  H+  H139  1  0.72742581  0.60448836  0.98774348  1
  H+  H140  1  0.73303590  0.84571134  0.84048615  1
  H+  H141  1  0.46379139  0.36773649  0.84894472  1
  H+  H142  1  0.34014605  0.41935068  0.07114235  1
  H+  H143  1  0.86072347  0.64387979  0.48601849  1
  H+  H144  1  0.52506432  0.88311430  -0.00847747  1
  H+  H145  1  0.10480277  0.22009708  0.16213370  1
  H+  H146  1  0.74134062  0.37081086  0.48893508  1
  H+  H147  1  0.87303272  0.97883143  0.49507298  1
  H+  H148  1  0.85520051  0.47475487  0.48766366  1
  H+  H149  1  0.34051961  0.68165279  0.87827336  1
  H+  H150  1  0.24200232  0.77101283  0.71167107  1
  H+  H151  1  0.60124081  1.00407805  0.15565245  1
  H+  H152  1  0.76624231  0.63138999  0.66629070  1
  H+  H153  1  -0.01909455  0.61525514  -0.01460825  1
  H+  H154  1  0.91032574  0.33735351  0.23410405  1
  H+  H155  1  0.42361332  0.32823791  0.40999605  1
  H+  H156  1  0.63847160  0.62397621  0.33065162  1
  H+  H157  1  0.35550127  0.91481362  0.65745924  1
  H+  H158  1  0.08975564  0.63123236  0.50162830  1
  H+  H159  1  0.09671105  0.49937798  0.51317905  1
  H+  H160  1  0.11177310  0.88589465  0.49025881  1
  H+  H161  1  0.22331878  0.86466871  0.50894516  1
  H+  H162  1  0.86894015  0.96732525  0.82302112  1
  H+  H163  1  0.13169602  0.77549066  0.32982927  1
  H+  H164  1  0.87423436  0.88148351  0.82603828  1
  H+  H165  1  0.33204029  0.42670967  0.36741328  1
  H+  H166  1  0.63043894  0.60760641  0.49897493  1
  H+  H167  1  0.36602190  0.47526178  0.16379865  1
  H+  H168  1  0.14149984  0.11212430  0.84239736  1
  H+  H169  1  0.47883802  0.11827307  0.49752191  1
  H+  H170  1  0.82969721  0.11734744  0.20224168  1
  H+  H171  1  0.13050514  0.35626711  0.67187191  1
  H+  H172  1  0.62891399  0.70981697  0.83612987  1
  H+  H173  1  0.39243512  1.01808451  0.83277221  1
  H+  H174  1  0.01432695  0.13203594  0.16629352  1
  H+  H175  1  0.21575482  0.59468408  0.84116190  1
  H+  H176  1  0.60975493  0.63629941  0.14618017  1
  H+  H177  1  0.89134643  1.01321083  -0.01294096  1
  H+  H178  1  0.61706812  0.14124644  0.99938354  1
  H+  H179  1  0.39095317  0.85157098  0.17998742  1
  H+  H180  1  0.35398890  0.13286633  0.16695272  1
  H+  H181  1  0.12254126  0.39419468  0.50027010  1
  H+  H182  1  0.23423590  0.37594314  0.52298896  1
  H+  H183  1  0.71695937  0.53134309  0.86102319  1
  H+  H184  1  0.86073223  0.64218971  0.17246683  1
  H+  H185  1  0.32905466  0.15407465  0.42751200  1
  H+  H186  1  0.66164712  0.87398526  0.97802338  1
  H+  H187  1  0.98928607  0.86566062  0.83910990  1
  H+  H188  1  0.10972808  0.12237201  0.48741626  1
  H+  H189  1  0.14992694  0.79407592  0.65888874  1
  H+  H190  1  0.77458019  0.84407757  0.36063024  1
  H+  H191  1  0.22709587  0.36377071  0.85314055  1
  H+  H192  1  0.62585945  0.86452285  0.83123950  1
  H+  H193  1  0.78604552  0.13444203  0.35158816  1
  H+  H194  1  0.86538301  0.22322178  0.66786816  1
  H+  H195  1  0.86366771  0.40106552  0.17153165  1
  H+  H196  1  0.10636783  0.47091217  0.68167490  1
  H+  H197  1  0.35722168  0.89347461  0.34654330  1
  H+  H198  1  -0.02203514  0.10283829  0.67327825  1
  H+  H199  1  0.65342689  0.87052618  0.51251143  1
  H+  H200  1  0.46301252  0.86358303  0.66691914  1
  H+  H201  1  0.52662198  0.67488682  1.01441372  1
  H+  H202  1  0.36265343  0.98026636  0.49766747  1
  H+  H203  1  0.75666457  0.35181230  0.67816236  1
  H+  H204  1  0.39598967  0.36608399  1.00428544  1
  H+  H205  1  0.85968965  0.73071069  0.17200675  1
  H+  H206  1  0.17614751  0.08440267  0.93272418  1
  H+  H207  1  0.49606305  0.62158028  0.32754899  1
  H+  H208  1  0.88168774  0.35603826  0.66084857  1
  H+  H209  1  0.39253665  0.26665682  0.46726403  1
  H+  H210  1  0.60855792  0.47213517  0.83320547  1
  H+  H211  1  0.05673152  0.85496750  0.66150923  1
  H+  H212  1  0.64919933  0.38283553  0.00004513  1
  H+  H213  1  0.92595113  0.84783022  0.23201733  1
  H+  H214  1  0.32228035  0.20220395  0.63783186  1
  H+  H215  1  0.38113663  0.89747551  0.82409837  1
  H+  H216  1  0.60883522  0.47648696  0.16425312  1
  H+  H217  1  0.32833030  0.92014467  0.43897136  1
  H+  H218  1  0.80714348  0.27290359  0.86928225  1
  H+  H219  1  0.11571004  -0.02220635  0.49226416  1
  H+  H220  1  0.88041103  0.61100779  0.32633763  1
  H+  H221  1  0.15159961  0.78220899  0.83911935  1
  H+  H222  1  0.38141638  0.85375010  0.96829979  1
  H+  H223  1  0.38145818  0.49162254  0.31475393  1
  H+  H224  1  0.88371555  0.10187744  0.33992407  1
  H+  H225  1  0.61829238  0.07991919  0.65866165  1
  H+  H226  1  0.38309640  0.02560914  0.18771895  1
  H+  H227  1  0.10690955  0.72951391  0.49738659  1
  H+  H228  1  0.62080309  0.94469033  0.67345292  1
  H+  H229  1  0.64626444  0.53929694  0.32108770  1
  H+  H230  1  0.13175741  0.86797761  0.99274150  1
  H+  H231  1  0.66505905  0.17853384  0.64369924  1
  H+  H232  1  0.35723070  0.22282204  0.16353066  1
  H+  H233  1  0.39271378  0.79753462  0.31214828  1
  H+  H234  1  0.37743725  0.27156718  0.70639438  1
  H+  H235  1  0.40246900  0.79504763  0.50919175  1
  H+  H236  1  0.60910163  0.88277452  0.14886713  1
  H+  H237  1  0.37320604  0.23201855  0.00860473  1
  H+  H238  1  0.87834065  0.46729094  0.98655768  1
  H+  H239  1  0.62858157  0.39931145  0.31863321  1
  H+  H240  1  0.11805109  0.22158484  0.67698773  1
  H+  H241  1  0.62149170  0.14881278  0.48027254  1
  H+  H242  1  0.46580420  0.36005781  0.70400288  1
  H+  H243  1  0.77898586  0.88365207  0.16050171  1
  H+  H244  1  0.61186755  0.72791856  0.35589448  1
  H+  H245  1  0.48239680  0.61792812  0.16159948  1
  H+  H246  1  0.86078934  0.47230490  0.34107027  1
  H+  H247  1  0.50920107  0.60617451  0.52371042  1
  H+  H248  1  0.86207128  0.71723458  0.66736036  1
  H+  H249  1  0.07374495  0.46822849  0.82999619  1
  H+  H250  1  0.22291253  0.36372549  0.67293687  1
  H+  H251  1  0.88951323  0.87031333  0.49986835  1
  H+  H252  1  0.89670610  0.53531964  0.82857147  1
  H+  H253  1  0.78185258  0.88318911  0.50244346  1
  H+  H254  1  0.37569923  0.38060417  0.48259233  1
  H+  H255  1  0.27811844  0.61669550  0.68020508  1
  H+  H256  1  0.67730701  0.08163162  0.92982196  1
  H+  H257  1  0.62054947  -0.01428235  0.33854445  1
  H+  H258  1  0.42614753  0.51555635  0.53985432  1
  H+  H259  1  0.83280555  0.67616126  0.42671880  1
  H+  H260  1  0.36332911  0.38458168  0.16720381  1
  H+  H261  1  0.36384571  0.13441246  0.48913215  1
  H+  H262  1  0.47418527  0.88532193  0.33138540  1
  H+  H263  1  0.65159324  0.75710883  0.66565685  1
  H+  H264  1  0.16119603  0.83348455  0.26957805  1
  H+  H265  1  0.39457607  0.87958456  0.50460802  1
  H+  H266  1  0.64201126  0.27538988  0.48629445  1
  H+  H267  1  0.13441676  0.35964766  0.17276258  1
  H+  H268  1  0.13209192  0.77255487  0.17524653  1
  H+  H269  1  -0.01354044  0.86928575  0.49480016  1
  H+  H270  1  0.10167520  0.33942704  0.02185189  1
  H+  H271  1  0.22751898  0.10501578  0.50497825  1
  H+  H272  1  0.65528340  0.00961949  0.84082317  1
  H+  H273  1  0.66267851  0.12309518  0.31685461  1
  H+  H274  1  0.88799850  0.53079138  0.17486535  1
  H+  H275  1  0.21700246  0.88994812  0.64786712  1
  H+  H276  1  0.17187281  0.63226967  0.67061914  1
  H+  H277  1  0.10397791  0.63515717  0.34187233  1
  H+  H278  1  0.53810558  0.38759384  0.46754902  1
  H+  H279  1  0.14416716  0.27040253  0.85066041  1
  H+  H280  1  0.37655557  0.66372636  0.51515173  1
  H+  H281  1  0.11705689  0.97768571  0.83078298  1
  H+  H282  1  0.12788435  0.77564854  -0.00571996  1
  H+  H283  1  0.40998367  0.62592033  0.31492120  1
  H+  H284  1  0.58576432  0.13466599  0.14970696  1
  H+  H285  1  0.89715017  0.10475461  0.83423073  1
  H+  H286  1  0.66659710  0.82223274  0.27179181  1
  H+  H287  1  0.37722967  0.13494873  0.34145060  1
  H+  H288  1  0.42466406  0.58429927  0.93785538  1
  H+  H289  1  0.03205175  0.51232754  0.55283319  1
  H+  H290  1  0.92575143  0.83626581  0.93282813  1
  H+  H291  1  0.17047038  0.34930488  0.57933325  1
  H+  H292  1  0.83233119  0.66834650  0.76497209  1
  H+  H293  1  0.15307686  0.57459017  0.61138711  1
  H+  H294  1  0.89294155  0.57432473  0.55666796  1
  H+  H295  1  0.13375743  0.51604616  0.33510834  1
  H+  H296  1  0.11443637  0.97714655  0.15694554  1
  H+  H297  1  0.83297733  0.41498353  0.42615466  1
  H+  H298  1  0.22386168  0.35792967  0.17311808  1
  H+  H299  1  0.08437865  0.40934900  0.39968229  1
  H+  H300  1  0.08122396  0.15262606  0.06800719  1
  H+  H301  1  0.56402261  0.19779301  0.76184738  1
  H+  H302  1  0.15425682  0.32122699  0.25812288  1
  H+  H303  1  0.12320758  0.00935654  0.65835980  1
  H+  H304  1  0.42154425  0.08303400  0.27300335  1
  H+  H305  1  0.83202715  0.91488413  0.05706032  1
  H+  H306  1  0.16974423  0.58460008  0.22578174  1
  H+  H307  1  0.34119909  0.68255841  0.37157352  1
  H+  H308  1  0.84549215  0.90237649  0.73299942  1
  H+  H309  1  0.41260650  0.34320969  0.91115997  1
  H+  H310  1  0.17618220  0.32465501  0.94197163  1
  H+  H311  1  0.58689223  0.42697223  0.06419545  1
  H+  H312  1  0.15770109  0.83644669  0.56560244  1
  H+  H313  1  0.02116809  0.63970988  0.16174276  1
  H+  H314  1  0.46800837  0.11923069  0.17774933  1
  H+  H315  1  0.72111343  0.60656210  0.50332209  1
  H+  H316  1  0.59769177  0.92790367  0.43696924  1
  H+  H317  1  0.09379260  0.16569448  0.77139615  1
  H+  H318  1  0.41961815  0.32607913  0.23550814  1
  H+  H319  1  0.41931541  0.85411424  0.60398127  1
  H+  H320  1  0.67809844  0.83169334  0.57003003  1
  H+  H321  1  0.31354771  0.14586900  0.74579955  1
  H+  H322  1  0.88719516  0.09787035  0.66896808  1
  H+  H323  1  0.32997458  0.89277117  0.03765275  1
  H+  H324  1  0.90878443  0.86367259  0.66458353  1
  H+  H325  1  0.61840702  0.85677224  0.67427518  1
  H+  H326  1  0.15517483  0.07677615  0.25443335  1
  H+  H327  1  0.84660432  0.16714529  0.41098107  1
  H+  H328  1  0.22545814  0.34887953  0.41696298  1
  H+  H329  1  0.93173649  0.57763434  0.64931019  1
  H+  H330  1  0.08111924  0.67210885  0.06732260  1
  H+  H331  1  0.32833137  0.64870852  0.74176866  1
  H+  H332  1  0.40879685  0.08354253  0.89493723  1
  H+  H333  1  0.33834878  0.16711298  0.06529874  1
  H+  H334  1  0.43155374  0.59223319  0.22373015  1
  H+  H335  1  0.84456568  0.16324614  0.76121152  1
  H+  H336  1  0.33307281  0.66182840  0.09348653  1
  H+  H337  1  0.74553945  0.11841251  0.18097902  1
  H+  H338  1  0.60852788  0.38783512  0.16943191  1
  H+  H339  1  0.83398310  0.90297277  0.41445594  1
  H+  H340  1  0.59452236  0.17659068  0.41834526  1
  H+  H341  1  0.49655610  0.37618077  0.32595386  1
  H+  H342  1  0.07629902  0.66750510  0.40107609  1
  H+  H343  1  0.09099340  0.92655768  0.39745311  1
  H+  H344  1  0.37510867  0.13376216  0.64499780  1
  H+  H345  1  0.92949024  0.59002748  0.92237234  1
  H+  H346  1  0.16297261  0.58369760  0.90088158  1
  H+  H347  1  0.43323248  0.32812624  0.59612671  1
  H+  H348  1  0.60177394  0.65395259  0.74194814  1
  H+  H349  1  0.11335273  0.47073220  0.15565295  1
  H+  H350  1  0.42444565  0.83052280  0.91378145  1
  H+  H351  1  0.61034696  0.05503075  0.21578114  1
  H+  H352  1  0.08192541  0.14962728  0.42664384  1
  H+  H353  1  0.88974496  0.30299451  0.91176577  1
  H+  H354  1  0.58647288  0.66065423  0.41541191  1
  H+  H355  1  0.82812553  0.41267737  0.76859906  1
  H+  H356  1  0.07269006  0.38932460  0.10803668  1
  H+  H357  1  0.67922881  0.82183695  0.90523005  1
  H+  H358  1  0.65961890  0.56855143  0.59750371  1
  H+  H359  1  0.61158285  0.42698859  0.38480444  1
  H+  H360  1  0.11823408  0.10808135  0.31777209  1
  H+  H361  1  0.44148563  0.58155364  0.62218999  1
  H+  H362  1  0.17326748  0.83883192  0.89916941  1
  H+  H363  1  0.15126286  0.71058765  0.74248999  1
  H+  H364  1  0.16465797  0.07123585  0.56421029  1
  H+  H365  1  0.92233142  0.59140275  0.23255723  1
  H+  H366  1  0.59998142  0.89470888  0.76932831  1
  H+  H367  1  0.90919293  0.07203297  0.24078787  1
  H+  H368  1  0.08516362  0.91757870  0.09748033  1
  H+  H369  1  0.59954432  0.20143969  0.04036198  1
  H+  H370  1  0.33332712  0.92695570  0.12553295  1
  H+  H371  1  0.73988049  0.84814174  0.66427738  1
  H+  H372  1  0.05908754  0.40791481  0.73727150  1
  H+  H373  1  0.92324392  0.07305928  0.89481088  1
  H+  H374  1  0.78245336  0.14444064  0.49899740  1
  H+  H375  1  0.58894924  0.36010452  0.68368920  1
  H+  H376  1  0.91791747  0.33787341  0.56773472  1
  H+  H377  1  0.42333509  0.09958288  0.55990477  1
  H+  H378  1  0.58542266  0.69335658  0.09568558  1
  H+  H379  1  0.14680556  0.54532140  0.99667251  1
  H+  H380  1  0.57146772  0.40780830  0.77681372  1
  H+  H381  1  0.97781793  0.10023058  0.49360879  1
  H+  H382  1  0.22063782  0.38801582  0.41482234  1
  H+  H383  1  0.43853827  0.30432648  0.56994872  1
  O2-  O384  1  0.07442148  0.15800660  0.15040129  1
  O2-  O385  1  0.07652847  0.14836950  0.47117654  1
  O2-  O386  1  0.09313055  0.16530767  0.81688190  1
  O2-  O387  1  0.08232230  0.40751654  0.15259203  1
  O2-  O388  1  0.08628347  0.41604616  0.47845429  1
  O2-  O389  1  0.03643501  0.41376202  0.80858281  1
  O2-  O390  1  0.08266458  0.67227522  0.14560457  1
  O2-  O391  1  0.07328961  0.66960802  0.48007491  1
  O2-  O392  1  0.09959384  0.67893973  0.80845736  1
  O2-  O393  1  0.08537157  0.91615717  0.14330845  1
  O2-  O394  1  0.08245725  0.91704131  0.47419866  1
  O2-  O395  1  0.08637116  0.91704326  0.81592145  1
  O2-  O396  1  0.32403690  0.16208884  0.14887482  1
  O2-  O397  1  0.32987840  0.16089611  0.47348286  1
  O2-  O398  1  0.31334376  0.14394945  0.79087668  1
  O2-  O399  1  0.33203707  0.41349114  0.15174328  1
  O2-  O400  1  0.34839591  0.41391808  0.49800368  1
  O2-  O401  1  0.33247902  0.42983689  0.82712009  1
  O2-  O402  1  0.32916100  0.65823874  0.13881804  1
  O2-  O403  1  0.25279390  0.66783675  0.43483694  1
  O2-  O404  1  0.33944032  0.65838650  0.83801209  1
  O2-  O405  1  0.33075220  0.91435193  0.16865072  1
  O2-  O406  1  0.33148208  0.91830294  0.48473782  1
  O2-  O407  1  0.35013926  0.92926579  0.81667980  1
  O2-  O408  1  0.55923999  0.17147013  0.14629855  1
  O2-  O409  1  0.59270150  0.17994136  0.46386508  1
  O2-  O410  1  0.56426704  0.18047183  0.80425591  1
  O2-  O411  1  0.57729661  0.41447559  0.15133565  1
  O2-  O412  1  0.60209644  0.42107444  0.46432954  1
  O2-  O413  1  0.57060399  0.40886137  0.82189974  1
  O2-  O414  1  0.58512500  0.67491174  0.14190330  1
  O2-  O415  1  0.59060584  0.65290769  0.47797529  1
  O2-  O416  1  0.59637328  0.64899621  0.82017256  1
  O2-  O417  1  0.57254241  0.90434904  0.13388287  1
  O2-  O418  1  0.60161450  0.92909436  0.48227149  1
  O2-  O419  1  0.59873668  0.89818566  0.81434336  1
  O2-  O420  1  0.78834559  0.13622048  0.21361406  1
  O2-  O421  1  0.84373405  0.16985675  0.48624809  1
  O2-  O422  1  0.84834536  0.15869577  0.80627294  1
  O2-  O423  1  0.83248462  0.43319141  0.16176724  1
  O2-  O424  1  0.82848458  0.41349179  0.47432058  1
  O2-  O425  1  0.83250750  0.42431132  0.81316106  1
  O2-  O426  1  0.82302563  0.66778007  0.16947228  1
  O2-  O427  1  0.83574452  0.67996489  0.47253304  1
  O2-  O428  1  0.83778317  0.67160484  0.80973750  1
  O2-  O429  1  0.83607543  0.92371330  0.14316931  1
  O2-  O430  1  0.84182676  0.91128335  0.48427506  1
  O2-  O431  1  0.83956527  0.90639662  0.80852508  1
  O2-  O432  1  0.16124382  0.08161362  0.18690012  1
  O2-  O433  1  0.16614214  0.07157511  0.51844608  1
  O2-  O434  1  0.17159729  0.08120352  0.85725156  1
  O2-  O435  1  0.16252102  0.32564501  0.18664053  1
  O2-  O436  1  0.17613573  0.36265303  0.53484233  1
  O2-  O437  1  0.16900978  0.32713694  0.87100760  1
  O2-  O438  1  0.16717177  0.58511259  0.18143222  1
  O2-  O439  1  0.09092335  0.54482142  0.53763242  1
  O2-  O440  1  0.15717713  0.57646596  0.85582163  1
  O2-  O441  1  0.16274463  0.83282771  0.19203332  1
  O2-  O442  1  0.16081501  0.83295712  0.51958283  1
  O2-  O443  1  0.18369138  0.84234459  0.85443777  1
  O2-  O444  1  0.40900910  0.08721471  0.19827199  1
  O2-  O445  1  0.41979543  0.08760618  0.51397227  1
  O2-  O446  1  0.41764994  0.08322710  0.84640364  1
  O2-  O447  1  0.41479807  0.32762232  0.19088415  1
  O2-  O448  1  0.42657926  0.32945627  0.45488125  1
  O2-  O449  1  0.40613478  0.34778377  0.86663252  1
  O2-  O450  1  0.42226122  0.58599584  0.17899972  1
  O2-  O451  1  0.45723065  0.57633234  0.55153832  1
  O2-  O452  1  0.43026724  0.58637105  0.85975313  1
  O2-  O453  1  0.42299301  0.82047466  0.18192803  1
  O2-  O454  1  0.43192860  0.85581042  0.51968780  1
  O2-  O455  1  0.43729772  0.84128682  0.83814460  1
  O2-  O456  1  0.61947918  0.06285733  0.17202369  1
  O2-  O457  1  0.67350681  0.09893983  0.51471376  1
  O2-  O458  1  0.68306259  0.07039659  0.85370133  1
  O2-  O459  1  0.65444214  0.32844255  0.21539978  1
  O2-  O460  1  0.67426956  0.33770916  0.50203043  1
  O2-  O461  1  0.65743077  0.33086882  0.85839317  1
  O2-  O462  1  0.65695490  0.58153791  0.18188802  1
  O2-  O463  1  0.66049674  0.57151494  0.51578171  1
  O2-  O464  1  0.68847209  0.56448269  0.85314417  1
  O2-  O465  1  0.69474100  0.79619439  0.20769289  1
  O2-  O466  1  0.68258487  0.83839858  0.52492788  1
  O2-  O467  1  0.67353393  0.81346312  0.85694754  1
  O2-  O468  1  0.90874533  0.08127822  0.19626658  1
  O2-  O469  1  0.91598030  0.06684649  0.50755298  1
  O2-  O470  1  0.92521381  0.07232730  0.84908795  1
  O2-  O471  1  0.91271658  0.34819125  0.19001341  1
  O2-  O472  1  0.92183694  0.33896843  0.52196772  1
  O2-  O473  1  0.86968290  0.30302374  0.86608929  1
  O2-  O474  1  0.92420240  0.59424909  0.18738017  1
  O2-  O475  1  0.90077438  0.58030899  0.51146693  1
  O2-  O476  1  0.93160306  0.59699787  0.84024204  1
  O2-  O477  1  0.92122072  0.84693163  0.18687301  1
  O2-  O478  1  0.92328843  0.83673244  0.50887805  1
  O2-  O479  1  0.92755916  0.83598991  0.85469502  1
  O2-  O480  1  0.15091351  0.07652645  0.30180448  1
  O2-  O481  1  0.15606407  0.06724138  0.64123631  1
  O2-  O482  1  0.17473190  0.08218409  0.97865501  1
  O2-  O483  1  0.15437694  0.31941691  0.30459716  1
  O2-  O484  1  0.16331368  0.32976948  0.65538589  1
  O2-  O485  1  0.18097233  0.32476984  0.98845621  1
  O2-  O486  1  0.16648618  0.58060417  0.32961235  1
  O2-  O487  1  0.17050557  0.57966021  0.65440080  1
  O2-  O488  1  0.17802562  0.60288640  0.97910876  1
  O2-  O489  1  0.16234654  0.83620238  0.31516360  1
  O2-  O490  1  0.15443915  0.84564183  0.63909367  1
  O2-  O491  1  0.16015254  0.83526247  0.97692322  1
  O2-  O492  1  0.43042353  0.08371589  0.31821641  1
  O2-  O493  1  0.41916328  0.11264153  0.62930702  1
  O2-  O494  1  0.39024804  0.07365690  0.95663783  1
  O2-  O495  1  0.43240506  0.33957593  0.32250939  1
  O2-  O496  1  0.40342902  0.33387668  0.71183309  1
  O2-  O497  1  0.42290536  0.33311049  0.98823452  1
  O2-  O498  1  0.44025102  0.59451495  0.30339787  1
  O2-  O499  1  0.43300117  0.57846528  0.66790598  1
  O2-  O500  1  0.41820109  0.58713530  0.98283561  1
  O2-  O501  1  0.41396461  0.85922379  0.31695290  1
  O2-  O502  1  0.40998625  0.85530870  0.64807790  1
  O2-  O503  1  0.41381650  0.82374840  0.95887439  1
  O2-  O504  1  0.69038920  0.08755280  0.31070187  1
  O2-  O505  1  0.66887253  0.12422409  0.63777165  1
  O2-  O506  1  0.67437691  0.08449025  0.97526690  1
  O2-  O507  1  0.64771249  0.32377922  0.27469102  1
  O2-  O508  1  0.65731734  0.26321257  0.65360605  1
  O2-  O509  1  0.68034409  0.35151776  0.99000871  1
  O2-  O510  1  0.67139652  0.60040024  0.30847261  1
  O2-  O511  1  0.66486061  0.56720204  0.64271534  1
  O2-  O512  1  0.66642988  0.57250162  0.97300109  1
  O2-  O513  1  0.65935991  0.83898425  0.31444387  1
  O2-  O514  1  0.67877258  0.81742087  0.64960894  1
  O2-  O515  1  0.68515710  0.83575975  0.97047957  1
  O2-  O516  1  0.90915653  0.06780951  0.32145233  1
  O2-  O517  1  0.91715926  0.06579465  0.66066470  1
  O2-  O518  1  0.92268642  0.07398898  0.97109802  1
  O2-  O519  1  0.91103755  0.32848784  0.31879775  1
  O2-  O520  1  0.91487054  0.33046731  0.64303413  1
  O2-  O521  1  0.91065762  0.30345459  0.97603486  1
  O2-  O522  1  0.91031319  0.57975050  0.31293990  1
  O2-  O523  1  0.87367823  0.55373897  0.63301806  1
  O2-  O524  1  0.92297513  0.58171636  0.96711269  1
  O2-  O525  1  0.92671365  0.83895045  0.31139123  1
  O2-  O526  1  0.93873219  0.83177739  0.64811695  1
  O2-  O527  1  0.92597196  0.83624229  0.97841858  1
  O2-  O528  1  0.08538536  0.15513618  0.02300303  1
  O2-  O529  1  0.07729924  0.15278444  0.34178259  1
  O2-  O530  1  0.08881884  0.16170832  0.69318158  1
  O2-  O531  1  0.05567945  0.34142361  0.04583471  1
  O2-  O532  1  0.08218333  0.41214419  0.35423828  1
  O2-  O533  1  0.07125186  0.40917062  0.69237887  1
  O2-  O534  1  0.08384004  0.67534387  0.02176066  1
  O2-  O535  1  0.07752695  0.66923910  0.35564967  1
  O2-  O536  1  0.18317839  0.72650768  0.70257573  1
  O2-  O537  1  0.08534383  0.91904895  0.02057211  1
  O2-  O538  1  0.09075163  0.92681007  0.35168341  1
  O2-  O539  1  0.02254625  0.87950893  0.67882892  1
  O2-  O540  1  0.34005320  0.16910902  0.02027331  1
  O2-  O541  1  0.34202332  0.16084794  0.35487939  1
  O2-  O542  1  0.31686067  0.15784871  0.66588165  1
  O2-  O543  1  0.34408786  0.42207556  0.02596268  1
  O2-  O544  1  0.34606644  0.42781549  0.32454843  1
  O2-  O545  1  0.32063424  0.41706649  0.70393188  1
  O2-  O546  1  0.33700287  0.66777992  0.01425442  1
  O2-  O547  1  0.34986269  0.67760768  0.32803865  1
  O2-  O548  1  0.33646388  0.64765420  0.69803752  1
  O2-  O549  1  0.32353499  0.90260238  -0.00486363  1
  O2-  O550  1  0.32580560  0.92287155  0.36361560  1
  O2-  O551  1  0.31952041  0.94213844  0.65986662  1
  O2-  O552  1  0.57564294  0.16119136  0.00659540  1
  O2-  O553  1  0.59887040  0.16803156  0.34009871  1
  O2-  O554  1  0.58457206  0.25006057  0.68038803  1
  O2-  O555  1  0.58462279  0.42413741  0.01952505  1
  O2-  O556  1  0.60403794  0.43079414  0.34013407  1
  O2-  O557  1  0.57619291  0.40486065  0.69699709  1
  O2-  O558  1  0.57362005  0.72041569  0.03809948  1
  O2-  O559  1  0.58556948  0.66654348  0.36553828  1
  O2-  O560  1  0.59822978  0.65526000  0.69646395  1
  O2-  O561  1  0.58350809  0.91645677  0.00860278  1
  O2-  O562  1  0.58175576  0.92787439  0.35676379  1
  O2-  O563  1  0.58658567  0.88659506  0.68910977  1
  O2-  O564  1  0.83420632  0.15073264  0.01875532  1
  O2-  O565  1  0.84717391  0.16360843  0.36523250  1
  O2-  O566  1  0.83282559  0.16335019  0.68390573  1
  O2-  O567  1  0.84873328  0.40577478  -0.00287418  1
  O2-  O568  1  0.83330594  0.41447173  0.36034259  1
  O2-  O569  1  0.81668841  0.39607789  0.68894382  1
  O2-  O570  1  0.83014070  0.65805417  0.01040301  1
  O2-  O571  1  0.83384411  0.67226179  0.35067479  1
  O2-  O572  1  0.82717279  0.65701318  0.68148073  1
  O2-  O573  1  0.83591312  0.91269007  0.01242987  1
  O2-  O574  1  0.82937118  0.89646602  0.36776293  1
  O2-  O575  1  0.84770759  0.90195409  0.68710547  1
