# generated using pymatgen
data_H2O
_symmetry_space_group_name_H-M   'P 1'
_cell_length_a   17.99295308
_cell_length_b   17.98932029
_cell_length_c   22.00588443
_cell_angle_alpha   90.00366932
_cell_angle_beta   89.99765407
_cell_angle_gamma   119.98596935
_symmetry_Int_Tables_number   1
_chemical_formula_structural   H2O
_chemical_formula_sum   'H384 O192'
_cell_volume   6169.47266697
_cell_formula_units_Z   192
loop_
 _symmetry_equiv_pos_site_id
 _symmetry_equiv_pos_as_xyz
  1  'x, y, z'
loop_
 _atom_type_symbol
 _atom_type_oxidation_number
  H+  1.0
  O2-  -2.0
loop_
 _atom_site_type_symbol
 _atom_site_label
 _atom_site_symmetry_multiplicity
 _atom_site_fract_x
 _atom_site_fract_y
 _atom_site_fract_z
 _atom_site_occupancy
  H+  H0  1  0.63572675  0.36047802  0.66422303  1
  H+  H1  1  0.36532153  0.98015260  0.66624608  1
  H+  H2  1  0.86560896  0.23356548  0.16240705  1
  H+  H3  1  0.27093234  0.88447944  0.49236629  1
  H+  H4  1  0.85695056  0.63874312  0.02315781  1
  H+  H5  1  0.37735273  0.24172759  0.15586918  1
  H+  H6  1  0.64373274  0.61592693  0.17341433  1
  H+  H7  1  0.82465588  0.40586878  0.77139795  1
  H+  H8  1  0.11038522  0.10897509  1.00230938  1
  H+  H9  1  0.34675507  0.43727806  0.61718164  1
  H+  H10  1  0.10793190  -0.02490061  0.49414032  1
  H+  H11  1  0.48713372  0.11542609  0.84312242  1
  H+  H12  1  0.10422774  0.10184945  0.32824334  1
  H+  H13  1  0.20061774  0.34091908  0.32241831  1
  H+  H14  1  0.62063879  0.73060515  0.67994269  1
  H+  H15  1  0.86753513  0.63547579  0.33339128  1
  H+  H16  1  0.12607571  0.38987007  0.15520945  1
  H+  H17  1  0.85911488  0.38294370  0.67710787  1
  H+  H18  1  0.37025337  0.89500652  0.84010503  1
  H+  H19  1  0.63312991  0.37041576  0.85052290  1
  H+  H20  1  0.89105783  0.11800117  0.99110986  1
  H+  H21  1  0.89022269  0.28167742  0.01040777  1
  H+  H22  1  0.94052805  0.35051466  0.22949890  1
  H+  H23  1  0.91486877  0.58170158  0.61238137  1
  H+  H24  1  0.38757687  0.26757487  0.65870309  1
  H+  H25  1  0.37996223  0.76965334  0.16436563  1
  H+  H26  1  0.52859918  0.39560131  0.15754358  1
  H+  H27  1  0.14268468  0.86178628  0.66578499  1
  H+  H28  1  0.12269826  0.48194023  0.83132119  1
  H+  H29  1  0.39025170  0.35819813  0.65676409  1
  H+  H30  1  0.07350249  0.19619304  0.16445596  1
  H+  H31  1  0.86755251  0.72606798  0.33517555  1
  H+  H32  1  0.52855971  0.63876592  0.47664052  1
  H+  H33  1  0.19606715  0.11279497  0.33043530  1
  H+  H34  1  0.36477968  0.37676135  0.49142577  1
  H+  H35  1  0.10739332  0.96423886  0.82787373  1
  H+  H36  1  0.88424490  0.85237335  0.17336658  1
  H+  H37  1  0.86932027  0.38554871  0.50412396  1
  H+  H38  1  0.36543196  0.88368238  0.65731437  1
  H+  H39  1  0.52555686  0.89145062  0.85359153  1
  H+  H40  1  0.27618079  0.88816287  1.00542511  1
  H+  H41  1  0.72917310  0.37787598  0.31797476  1
  H+  H42  1  0.86115489  0.14189091  0.16613662  1
  H+  H43  1  0.52748488  0.38708554  0.49421551  1
  H+  H44  1  0.88958318  0.77742506  1.00244447  1
  H+  H45  1  0.14325626  0.86701981  -0.00336222  1
  H+  H46  1  0.49928557  0.63067096  0.86015587  1
  H+  H47  1  0.52531600  0.38514567  0.67407122  1
  H+  H48  1  0.73271273  0.12099852  0.84347615  1
  H+  H49  1  0.35116487  0.87335885  0.15428153  1
  H+  H50  1  0.18137052  0.35738772  0.93433740  1
  H+  H51  1  0.38083588  0.76990363  0.48311553  1
  H+  H52  1  0.32234871  0.14216248  0.33320055  1
  H+  H53  1  0.08747752  0.21298863  0.33446652  1
  H+  H54  1  0.52895009  0.39941451  0.33998768  1
  H+  H55  1  0.61122524  0.22362174  0.67619449  1
  H+  H56  1  0.85493279  0.22510862  0.67495751  1
  H+  H57  1  0.76362946  0.63673962  0.48697219  1
  H+  H58  1  0.89398044  0.13840235  0.65420451  1
  H+  H59  1  0.13700437  0.61103948  0.17187167  1
  H+  H60  1  0.50744955  0.11638797  0.32873288  1
  H+  H61  1  0.02365402  0.88255056  0.49041662  1
  H+  H62  1  0.39378192  0.02880588  0.84239933  1
  H+  H63  1  0.10369981  0.63325527  0.67345903  1
  H+  H64  1  0.27511022  0.13314404  0.68114845  1
  H+  H65  1  -0.02720335  0.35629610  0.84223815  1
  H+  H66  1  0.39674739  1.03233612  -0.00365826  1
  H+  H67  1  0.63919723  0.86154143  0.64794787  1
  H+  H68  1  0.12149339  0.01746468  0.17247612  1
  H+  H69  1  0.61049214  0.97940974  0.65211129  1
  H+  H70  1  0.86307074  0.40045500  0.03039017  1
  H+  H71  1  1.00808111  0.57419039  0.84994977  1
  H+  H72  1  0.76944687  0.87736993  0.15884093  1
  H+  H73  1  0.16969987  0.83539405  0.22623503  1
  H+  H74  1  0.80427538  0.94242661  0.84324175  1
  H+  H75  1  0.38128632  0.01823254  0.50856039  1
  H+  H76  1  0.89748311  0.74612582  0.64878868  1
  H+  H77  1  0.63812740  1.02572727  0.50418391  1
  H+  H78  1  0.49945710  0.61147554  1.01393188  1
  H+  H79  1  0.11013776  0.72575718  0.49247354  1
  H+  H80  1  0.51443747  0.40272640  0.83224039  1
  H+  H81  1  0.65630799  0.88499265  0.85150042  1
  H+  H82  1  0.88228118  0.89975396  1.01286213  1
  H+  H83  1  0.67036655  0.58885237  0.56317169  1
  H+  H84  1  1.02797922  0.88576295  1.01056708  1
  H+  H85  1  0.86633310  0.00729330  0.17441565  1
  H+  H86  1  0.40647292  0.16028409  0.82215548  1
  H+  H87  1  0.83459801  0.67097462  0.08241289  1
  H+  H88  1  0.97142749  0.86143745  0.32687863  1
  H+  H89  1  0.11034877  0.13249983  0.68123776  1
  H+  H90  1  0.38516471  0.15826234  0.00567980  1
  H+  H91  1  0.47630145  0.37327712  0.99143658  1
  H+  H92  1  0.25820815  0.62840782  0.49412245  1
  H+  H93  1  0.84057496  0.94035901  0.73517306  1
  H+  H94  1  0.86888475  0.48874002  1.01604535  1
  H+  H95  1  0.40042827  0.78125743  0.85622494  1
  H+  H96  1  0.59462364  0.92686744  0.40765505  1
  H+  H97  1  0.64256771  0.03582215  0.85566897  1
  H+  H98  1  0.36011535  0.38270808  0.01054944  1
  H+  H99  1  0.61460425  0.48175195  0.00638381  1
  H+  H100  1  0.91502719  0.39585640  0.17849788  1
  H+  H101  1  0.27046772  0.63919353  0.15762098  1
  H+  H102  1  0.88870806  0.76462093  0.17677463  1
  H+  H103  1  0.28286814  0.64462766  0.99763801  1
  H+  H104  1  0.14751111  0.38975501  -0.01074600  1
  H+  H105  1  0.84985576  0.95325074  0.49195957  1
  H+  H106  1  0.39366526  0.59210759  0.32331797  1
  H+  H107  1  0.78052358  0.13975722  0.01024850  1
  H+  H108  1  0.60216142  0.12924054  0.17023605  1
  H+  H109  1  0.03325282  0.01596170  0.86708445  1
  H+  H110  1  0.86619152  -0.01656320  0.32336754  1
  H+  H111  1  0.97823518  0.87074150  0.84401465  1
  H+  H112  1  0.77067975  0.13643923  0.49174087  1
  H+  H113  1  0.53953451  0.14195041  0.00224635  1
  H+  H114  1  0.15147131  0.56579190  0.26550311  1
  H+  H115  1  0.58749064  0.42331205  0.40019667  1
  H+  H116  1  0.97805326  0.76220512  0.61123911  1
  H+  H117  1  0.11370868  0.88369844  0.15909341  1
  H+  H118  1  0.14888002  0.28353421  0.83555072  1
  H+  H119  1  0.38430476  0.53421197  0.68550456  1
  H+  H120  1  0.87894410  0.51917884  0.31577689  1
  H+  H121  1  0.37378863  0.12780807  0.49502981  1
  H+  H122  1  0.47718117  0.62163745  0.17963953  1
  H+  H123  1  0.37286444  0.49680418  0.16369666  1
  H+  H124  1  0.60121565  0.21612128  0.16255601  1
  H+  H125  1  0.16709609  0.83219164  0.90157491  1
  H+  H126  1  0.24221978  0.37663009  0.51362869  1
  H+  H127  1  0.28397083  0.64173260  0.83370609  1
  H+  H128  1  0.62481650  0.14995729  0.83423887  1
  H+  H129  1  0.02983258  0.41021225  1.01259002  1
  H+  H130  1  0.66974293  0.80309491  0.84685388  1
  H+  H131  1  0.86647381  0.88111488  0.32620829  1
  H+  H132  1  0.72617656  0.62381929  0.00491123  1
  H+  H133  1  0.21025742  0.60717410  0.65937865  1
  H+  H134  1  0.63109613  0.77556741  0.49905837  1
  H+  H135  1  0.08869495  0.91856404  0.06924629  1
  H+  H136  1  0.12723130  0.64836014  -0.00306339  1
  H+  H137  1  0.38254698  0.35948063  0.32673716  1
  H+  H138  1  0.47714872  0.10834154  0.66638270  1
  H+  H139  1  0.12456214  0.01520267  0.99746047  1
  H+  H140  1  0.11210840  0.87666855  0.83169932  1
  H+  H141  1  0.42661692  0.12807208  0.33475530  1
  H+  H142  1  0.14990294  0.29882413  0.51494364  1
  H+  H143  1  -0.04075770  0.09769583  0.32055349  1
  H+  H144  1  0.39647182  0.77735214  1.00316411  1
  H+  H145  1  0.14358403  0.27519570  0.67068710  1
  H+  H146  1  0.84428774  0.75823984  0.81463794  1
  H+  H147  1  0.72324821  0.61039359  0.65614940  1
  H+  H148  1  0.52899231  0.89285574  0.34726026  1
  H+  H149  1  0.42043704  0.57395529  0.38556757  1
  H+  H150  1  0.61498192  0.47807395  0.49450799  1
  H+  H151  1  0.52478057  0.88792720  0.47781583  1
  H+  H152  1  0.77193705  0.88232300  0.32865438  1
  H+  H153  1  0.64084582  1.02126200  0.17584126  1
  H+  H154  1  0.11195542  0.38564680  0.68131500  1
  H+  H155  1  0.38884767  0.29492856  0.84177991  1
  H+  H156  1  0.88353987  0.52179252  0.67182212  1
  H+  H157  1  0.13995759  0.87000353  0.31557947  1
  H+  H158  1  0.86810559  0.61982430  0.85471889  1
  H+  H159  1  0.64308369  0.52741062  0.32824790  1
  H+  H160  1  0.46660577  0.86443097  0.63929107  1
  H+  H161  1  0.03544731  0.64122673  0.00063612  1
  H+  H162  1  0.27849488  0.39230957  0.66796420  1
  H+  H163  1  0.28120294  0.89277987  0.83555024  1
  H+  H164  1  0.63841903  0.37104806  0.32674958  1
  H+  H165  1  0.88984418  0.27112800  0.51010415  1
  H+  H166  1  0.62399177  0.99674783  0.33719494  1
  H+  H167  1  0.13306084  0.61909502  0.50547681  1
  H+  H168  1  0.11367447  0.49739326  0.31950570  1
  H+  H169  1  0.72735006  0.11382079  0.17854094  1
  H+  H170  1  0.24161091  0.20316016  0.84837640  1
  H+  H171  1  -0.09066529  0.33866328  -0.04774203  1
  H+  H172  1  0.87371023  0.61043408  0.82221571  1
  H+  H173  1  0.18698017  0.57991802  0.78857548  1
  H+  H174  1  0.79876722  0.32991863  0.36653178  1
  H+  H175  1  0.40715412  0.62119389  0.86233424  1
  H+  H176  1  0.84963032  0.87258735  0.69736125  1
  H+  H177  1  0.26959685  0.88382405  0.66481451  1
  H+  H178  1  0.01993143  0.13263092  0.00413791  1
  H+  H179  1  0.13858979  0.64614077  0.82467180  1
  H+  H180  1  0.34250181  0.44957051  0.34096090  1
  H+  H181  1  0.89052905  0.38503343  0.34210370  1
  H+  H182  1  0.64784811  0.12141021  0.99890003  1
  H+  H183  1  0.41923954  0.57313992  0.94338885  1
  H+  H184  1  0.13274852  1.01599928  0.67227211  1
  H+  H185  1  0.88073203  0.34829098  0.84003002  1
  H+  H186  1  0.39032444  0.26666255  0.50341396  1
  H+  H187  1  0.89176968  0.52525091  0.52127629  1
  H+  H188  1  0.28458226  0.12198485  0.47632131  1
  H+  H189  1  0.37777286  -0.01143459  0.34087861  1
  H+  H190  1  0.14359489  0.52486010  0.17108137  1
  H+  H191  1  0.86228316  0.73113027  0.48543313  1
  H+  H192  1  0.61226889  0.18110927  0.39610207  1
  H+  H193  1  0.02280485  0.62574639  0.15710458  1
  H+  H194  1  0.25038108  0.38199371  0.17284020  1
  H+  H195  1  0.58246121  0.42129569  0.06499477  1
  H+  H196  1  0.36623922  0.46725090  0.48138710  1
  H+  H197  1  0.06767616  0.34891751  0.31837376  1
  H+  H198  1  0.84197526  0.90809172  0.42870906  1
  H+  H199  1  0.36644403  0.88824761  1.01122945  1
  H+  H200  1  0.40632354  0.28553322  0.32538036  1
  H+  H201  1  0.91623823  0.48515327  0.85061288  1
  H+  H202  1  0.48493728  0.86965759  1.00428195  1
  H+  H203  1  0.62802199  0.14862760  0.48642416  1
  H+  H204  1  0.95588606  0.09411196  0.17267706  1
  H+  H205  1  0.63295529  0.11229100  0.66128467  1
  H+  H206  1  -0.02739827  0.09637740  0.48912044  1
  H+  H207  1  0.61345407  0.88427355  0.48858865  1
  H+  H208  1  0.36255244  0.89334797  0.34427465  1
  H+  H209  1  0.33440880  0.65497905  0.27723305  1
  H+  H210  1  0.57295496  0.70668311  0.01491926  1
  H+  H211  1  0.12598868  0.39592547  0.82896277  1
  H+  H212  1  0.04800172  0.19019438  0.48507767  1
  H+  H213  1  0.63018254  0.23837196  0.48716774  1
  H+  H214  1  0.37683043  0.50808872  0.00230774  1
  H+  H215  1  0.54147214  0.63896837  0.33584852  1
  H+  H216  1  0.12423938  0.51564359  0.66080111  1
  H+  H217  1  0.62694531  0.23198189  1.00355281  1
  H+  H218  1  0.63258014  0.35696312  0.16453508  1
  H+  H219  1  0.63689626  0.53312175  0.84554807  1
  H+  H220  1  0.13926354  0.77042057  0.84297030  1
  H+  H221  1  0.77914112  0.14240149  0.33699534  1
  H+  H222  1  0.77896409  0.62936107  0.16830042  1
  H+  H223  1  0.13973527  0.77091383  0.66336334  1
  H+  H224  1  -0.02167735  0.61365141  0.51981903  1
  H+  H225  1  0.73093097  0.37753510  0.00622334  1
  H+  H226  1  0.75775563  0.66861783  0.81616780  1
  H+  H227  1  0.11660624  0.40124683  0.50484046  1
  H+  H228  1  0.64378975  0.11393525  0.32739941  1
  H+  H229  1  0.02848005  0.14615126  0.67138053  1
  H+  H230  1  0.53442337  0.64636157  0.70026429  1
  H+  H231  1  0.36846537  0.14937561  0.15871307  1
  H+  H232  1  0.41719351  0.32500831  0.56363082  1
  H+  H233  1  0.37678254  0.77894481  0.65246450  1
  H+  H234  1  0.89648417  0.03145230  0.99526874  1
  H+  H235  1  0.61226439  0.47508949  0.67337165  1
  H+  H236  1  0.72197100  0.11133399  0.65964803  1
  H+  H237  1  0.14289249  0.77712233  0.99567528  1
  H+  H238  1  0.61835078  0.23573746  0.83381190  1
  H+  H239  1  0.25851093  0.17331793  0.84217691  1
  H+  H240  1  0.63630419  0.61202841  0.66075845  1
  H+  H241  1  1.01442329  0.62355789  0.34146544  1
  H+  H242  1  0.25143911  0.86648213  0.15537829  1
  H+  H243  1  0.85947751  0.13046251  0.33671983  1
  H+  H244  1  0.10043268  0.10127792  0.51148107  1
  H+  H245  1  0.18156546  0.29099155  0.15378242  1
  H+  H246  1  0.61442866  0.72543839  0.16064856  1
  H+  H247  1  0.34751065  0.64450100  0.69500504  1
  H+  H248  1  0.85523947  0.12691408  0.82350760  1
  H+  H249  1  0.08938551  0.11344781  0.16457730  1
  H+  H250  1  0.09753489  0.96872375  0.33975500  1
  H+  H251  1  0.92015292  0.27854063  0.32650556  1
  H+  H252  1  0.64480064  0.86720575  0.32619088  1
  H+  H253  1  0.10398859  0.48072188  0.49686570  1
  H+  H254  1  0.63929464  0.37103789  0.00024639  1
  H+  H255  1  0.57661370  0.42353899  0.77442890  1
  H+  H256  1  0.58905369  0.92285648  0.09831355  1
  H+  H257  1  0.63339844  0.23370247  0.33212232  1
  H+  H258  1  0.85887568  0.09236936  0.50234548  1
  H+  H259  1  0.01369295  0.14870871  0.82510766  1
  H+  H260  1  0.38755673  0.10882198  0.66406118  1
  H+  H261  1  0.09700910  0.61442195  0.34589633  1
  H+  H262  1  0.79818531  0.90865147  0.00986804  1
  H+  H263  1  0.83942739  0.91574468  0.10449369  1
  H+  H264  1  0.39932226  0.38330385  0.17378857  1
  H+  H265  1  0.62654460  0.90116571  0.00740546  1
  H+  H266  1  0.73537070  0.61418119  0.32474740  1
  H+  H267  1  0.38889745  0.77023091  0.33862001  1
  H+  H268  1  0.02292985  0.88003625  0.16063610  1
  H+  H269  1  0.19759154  0.13745896  0.52494092  1
  H+  H270  1  0.39010178  0.62372966  0.17278222  1
  H+  H271  1  0.63951577  0.61684996  0.50242789  1
  H+  H272  1  0.63531077  0.86344234  0.16754859  1
  H+  H273  1  0.41623593  0.82883972  0.39748200  1
  H+  H274  1  0.63487455  0.66122683  0.84235964  1
  H+  H275  1  0.52455545  0.88906873  0.15485765  1
  H+  H276  1  0.13867553  0.86520462  0.50718002  1
  H+  H277  1  0.42839386  0.35038113  0.23167871  1
  H+  H278  1  0.64510270  0.36848581  0.50863705  1
  H+  H279  1  0.88823037  0.85430583  0.49919336  1
  H+  H280  1  0.37340071  0.60608389  0.48759192  1
  H+  H281  1  0.76881096  0.38228071  0.83322575  1
  H+  H282  1  0.13270210  0.76542120  0.16951102  1
  H+  H283  1  0.86560284  0.22156381  0.82609106  1
  H+  H284  1  0.03090758  0.87192234  0.67301872  1
  H+  H285  1  0.97256847  0.35882077  0.66687005  1
  H+  H286  1  0.68276275  0.80263808  0.98906740  1
  H+  H287  1  0.36466980  0.63284439  0.00715937  1
  H+  H288  1  0.76971240  0.38216388  0.67583565  1
  H+  H289  1  0.09938810  0.10592351  0.84344715  1
  H+  H290  1  0.82684991  0.16057210  0.73169531  1
  H+  H291  1  0.84727577  0.41888674  0.44413197  1
  H+  H292  1  0.97922234  0.36185481  0.51270995  1
  H+  H293  1  0.67182326  0.58375556  0.23228344  1
  H+  H294  1  0.30883750  0.38675924  0.39657757  1
  H+  H295  1  0.42116847  0.58299195  0.53783618  1
  H+  H296  1  0.41295038  0.08768371  0.23527090  1
  H+  H297  1  0.40817896  0.34830217  0.90280360  1
  H+  H298  1  0.72767726  0.86295195  0.65843216  1
  H+  H299  1  0.41081120  0.83339255  0.22165162  1
  H+  H300  1  0.08184421  0.41764311  0.73887558  1
  H+  H301  1  0.57663094  0.65754377  0.10611116  1
  H+  H302  1  0.30599514  0.64673784  0.43038994  1
  H+  H303  1  0.38206669  0.86119718  0.48087306  1
  H+  H304  1  0.91336535  0.57547836  0.25536423  1
  H+  H305  1  0.85277899  0.62790701  0.68069231  1
  H+  H306  1  0.82852651  0.66510390  0.42235658  1
  H+  H307  1  0.07324936  0.65764907  0.43668217  1
  H+  H308  1  0.66666235  0.07321567  0.26739450  1
  H+  H309  1  0.63317483  0.64513063  0.33298161  1
  H+  H310  1  0.23425090  0.88282601  0.31542673  1
  H+  H311  1  0.06933915  0.14638368  0.06877942  1
  H+  H312  1  0.07665836  0.90921064  0.39783205  1
  H+  H313  1  0.15455857  0.07509602  0.61390850  1
  H+  H314  1  0.15934597  0.58460017  0.56504194  1
  H+  H315  1  0.32839451  0.92273682  0.43169497  1
  H+  H316  1  0.81993046  0.68011550  0.72588661  1
  H+  H317  1  0.46551510  0.24875444  0.78999200  1
  H+  H318  1  0.63371129  0.61690835  -0.00048745  1
  H+  H319  1  0.14149712  0.07458225  0.23252705  1
  H+  H320  1  0.58727998  0.93214158  0.79683903  1
  H+  H321  1  0.10032322  0.44554199  0.06430759  1
  H+  H322  1  0.46600797  0.11023671  0.17562939  1
  H+  H323  1  0.08683545  0.66244488  0.09901486  1
  H+  H324  1  0.42643091  0.08838157  0.93576022  1
  H+  H325  1  0.65935024  0.32979905  0.22465514  1
  H+  H326  1  0.83901786  0.16610458  0.06950347  1
  H+  H327  1  0.33024866  0.66807420  0.09693932  1
  H+  H328  1  0.42841691  0.61636228  0.64538223  1
  H+  H329  1  0.25938935  0.61301754  0.32312649  1
  H+  H330  1  0.62371479  0.98891114  0.00821067  1
  H+  H331  1  0.17156663  0.33802299  0.61263751  1
  H+  H332  1  0.68115708  0.09225913  0.94173865  1
  H+  H333  1  0.41230999  0.07860992  0.56803542  1
  H+  H334  1  0.83334279  0.16585574  0.43321584  1
  H+  H335  1  0.16756735  0.83332684  0.56616696  1
  H+  H336  1  0.89495305  0.07168484  0.56254884  1
  H+  H337  1  0.90418501  0.06393009  0.89743101  1
  H+  H338  1  0.39150833  0.27986818  0.99295745  1
  H+  H339  1  0.15592906  0.31395130  0.25812454  1
  H+  H340  1  0.34248140  0.43137236  0.10454542  1
  H+  H341  1  0.03769041  0.39260744  0.15762439  1
  H+  H342  1  0.08107383  0.90451267  0.73748968  1
  H+  H343  1  0.62050828  0.48066948  0.15685245  1
  H+  H344  1  0.86676190  0.62289713  0.16419228  1
  H+  H345  1  0.67380055  0.59154886  0.90565008  1
  H+  H346  1  0.66842647  0.34346757  0.90875208  1
  H+  H347  1  0.35309218  0.17523557  0.73105703  1
  H+  H348  1  0.42496546  0.84188351  0.91496677  1
  H+  H349  1  0.30386614  0.68768939  0.73347855  1
  H+  H350  1  0.73474323  0.36953121  0.51217290  1
  H+  H351  1  0.64419868  0.77701540  0.32286435  1
  H+  H352  1  0.69870891  0.86308709  0.93241242  1
  H+  H353  1  0.36190306  0.17441264  0.39982452  1
  H+  H354  1  0.13040242  0.06794518  0.93460985  1
  H+  H355  1  0.66629962  0.83539896  0.22725491  1
  H+  H356  1  0.07609607  0.17470618  0.76790616  1
  H+  H357  1  0.60962609  0.69353999  0.78344187  1
  H+  H358  1  0.08821337  0.66657718  0.77318818  1
  H+  H359  1  0.86628637  0.47599558  0.12248592  1
  H+  H360  1  0.59917490  0.67353223  0.42448369  1
  H+  H361  1  0.66560035  0.33145871  0.60416224  1
  H+  H362  1  0.94580681  0.55483305  0.93044826  1
  H+  H363  1  0.04911204  0.15002956  0.39460764  1
  H+  H364  1  0.01816171  0.63842093  0.67976430  1
  H+  H365  1  0.18212829  0.59669883  0.91879047  1
  H+  H366  1  0.91077641  0.61587607  0.95035899  1
  H+  H367  1  0.14754451  0.54223855  0.98023988  1
  H+  H368  1  0.56977399  0.90549820  0.70100800  1
  H+  H369  1  0.91514998  0.83002554  0.26435793  1
  H+  H370  1  0.37962397  0.67663028  0.79618698  1
  H+  H371  1  0.96946872  0.19285226  0.60992474  1
  H+  H372  1  0.66032044  0.83195512  0.55934850  1
  H+  H373  1  0.30486922  0.36699802  0.83760084  1
  H+  H374  1  0.91581738  0.33000765  0.60586838  1
  H+  H375  1  0.89833093  0.06583378  0.25845314  1
  H+  H376  1  0.35272003  0.18668385  0.06390695  1
  H+  H377  1  0.90504559  0.89744029  0.85124414  1
  H+  H378  1  0.58688959  0.16813580  0.73737023  1
  H+  H379  1  0.32158808  0.90630596  0.09074549  1
  H+  H380  1  0.27128766  0.38696468  0.01144427  1
  H+  H381  1  0.92124567  0.81491630  0.55511286  1
  H+  H382  1  0.91964093  0.83703517  0.94172019  1
  H+  H383  1  0.66599167  0.08506057  0.56399942  1
  O2-  O384  1  0.05387426  0.14070352  0.14515722  1
  O2-  O385  1  0.03488154  0.13268532  0.47307079  1
  O2-  O386  1  0.07492849  0.17832127  0.81344368  1
  O2-  O387  1  0.09865519  0.42371532  0.14335130  1
  O2-  O388  1  0.07680302  0.41823701  0.48790019  1
  O2-  O389  1  0.08990882  0.42127106  0.81714850  1
  O2-  O390  1  0.08566856  0.66165909  0.14427076  1
  O2-  O391  1  0.07873276  0.66355891  0.48258821  1
  O2-  O392  1  0.09534285  0.66619503  0.81799010  1
  O2-  O393  1  0.08292671  0.91407901  0.14509057  1
  O2-  O394  1  0.08520279  0.91681939  0.47737388  1
  O2-  O395  1  0.07918507  0.90408731  0.81385660  1
  O2-  O396  1  0.34533732  0.18351137  0.13855764  1
  O2-  O397  1  0.34615170  0.16169719  0.47345685  1
  O2-  O398  1  0.40523851  0.20817300  0.79832116  1
  O2-  O399  1  0.34410335  0.43466887  0.15019643  1
  O2-  O400  1  0.33117018  0.40407081  0.47573628  1
  O2-  O401  1  0.26431593  0.37675356  0.81246766  1
  O2-  O402  1  0.33143826  0.67264150  0.14253607  1
  O2-  O403  1  0.31780116  0.65307403  0.47400672  1
  O2-  O404  1  0.35649185  0.67905799  0.83559360  1
  O2-  O405  1  0.31521751  0.89777748  0.13822813  1
  O2-  O406  1  0.33135839  0.91598436  0.47685653  1
  O2-  O407  1  0.34241245  0.92623898  0.82370440  1
  O2-  O408  1  0.56740396  0.15297843  0.15466353  1
  O2-  O409  1  0.60674557  0.18286248  0.46515310  1
  O2-  O410  1  0.59235055  0.17653407  0.81632150  1
  O2-  O411  1  0.58777349  0.42182841  0.13954036  1
  O2-  O412  1  0.58747916  0.41826593  0.47863613  1
  O2-  O413  1  0.57560314  0.42549474  0.81956328  1
  O2-  O414  1  0.58377650  0.66278546  0.15112756  1
  O2-  O415  1  0.59113276  0.66895358  0.46980391  1
  O2-  O416  1  0.61215966  0.69941508  0.82845147  1
  O2-  O417  1  0.58628529  0.91830739  0.14408969  1
  O2-  O418  1  0.58810708  0.92024831  0.46947966  1
  O2-  O419  1  0.58954397  0.92581516  0.84053352  1
  O2-  O420  1  0.83236413  0.17257239  0.14975321  1
  O2-  O421  1  0.83234212  0.16235949  0.47836298  1
  O2-  O422  1  0.83032168  0.16167811  0.80862443  1
  O2-  O423  1  0.88264812  0.47986146  0.16605521  1
  O2-  O424  1  0.84104361  0.41786883  0.48868559  1
  O2-  O425  1  0.82727221  0.40155152  0.81653962  1
  O2-  O426  1  0.84027045  0.65980603  0.15391671  1
  O2-  O427  1  0.82465535  0.66861720  0.46888708  1
  O2-  O428  1  0.79909513  0.71445895  0.78862183  1
  O2-  O429  1  0.83258900  0.90870311  0.14978066  1
  O2-  O430  1  0.84117676  0.89964856  0.47272537  1
  O2-  O431  1  0.86668877  0.97367865  0.83106384  1
  O2-  O432  1  0.13734196  0.07573653  0.18789619  1
  O2-  O433  1  0.14193207  0.08528737  0.52891463  1
  O2-  O434  1  0.09510623  0.05348607  0.86343582  1
  O2-  O435  1  0.18663357  0.33676849  0.18036407  1
  O2-  O436  1  0.18447636  0.35467673  0.53385104  1
  O2-  O437  1  0.18641778  0.34406714  0.85008731  1
  O2-  O438  1  0.17042900  0.58436233  0.18850847  1
  O2-  O439  1  0.16483115  0.58874256  0.51984057  1
  O2-  O440  1  0.19796364  0.60017508  0.83052885  1
  O2-  O441  1  0.16573825  0.82841350  0.17960069  1
  O2-  O442  1  0.16809805  0.83367658  0.52092504  1
  O2-  O443  1  0.16565547  0.83198383  0.85616341  1
  O2-  O444  1  0.40569057  0.08700090  0.19108490  1
  O2-  O445  1  0.40770508  0.07870077  0.52317209  1
  O2-  O446  1  0.42613345  0.09088620  0.85616304  1
  O2-  O447  1  0.43008371  0.35268931  0.18660972  1
  O2-  O448  1  0.41666869  0.32710897  0.51805118  1
  O2-  O449  1  0.40524653  0.35265298  0.85700568  1
  O2-  O450  1  0.41640922  0.59358565  0.19351314  1
  O2-  O451  1  0.41107147  0.57921577  0.49411334  1
  O2-  O452  1  0.43934926  0.59136835  0.87266466  1
  O2-  O453  1  0.41065600  0.83297741  0.17733800  1
  O2-  O454  1  0.41613282  0.83142969  0.47226252  1
  O2-  O455  1  0.42965883  0.84331671  0.86943777  1
  O2-  O456  1  0.66939433  0.07790493  0.19707541  1
  O2-  O457  1  0.67003576  0.08602650  0.51866961  1
  O2-  O458  1  0.67549138  0.09859127  0.86360853  1
  O2-  O459  1  0.65847228  0.32339547  0.18026323  1
  O2-  O460  1  0.67354723  0.33796111  0.52595313  1
  O2-  O461  1  0.66424070  0.34034429  0.86303936  1
  O2-  O462  1  0.67499278  0.58586441  0.18699168  1
  O2-  O463  1  0.67214764  0.58870265  0.51732227  1
  O2-  O464  1  0.67085194  0.59350113  0.86047414  1
  O2-  O465  1  0.66578415  0.83272935  0.18219321  1
  O2-  O466  1  0.65046189  0.83383825  0.51518663  1
  O2-  O467  1  0.69788594  0.86500417  0.86093449  1
  O2-  O468  1  0.89615642  0.06841803  0.19008271  1
  O2-  O469  1  0.88319469  0.05621639  0.51876309  1
  O2-  O470  1  0.90166450  0.06371375  0.85116136  1
  O2-  O471  1  0.93329558  0.35258207  0.18496520  1
  O2-  O472  1  0.91785835  0.32929492  0.52850316  1
  O2-  O473  1  0.91274039  0.32025546  0.85615294  1
  O2-  O474  1  0.92278359  0.57290916  0.18175661  1
  O2-  O475  1  0.92065407  0.58358249  0.53922364  1
  O2-  O476  1  0.96769518  0.52419557  0.87525994  1
  O2-  O477  1  0.91769510  0.82628464  0.19009529  1
  O2-  O478  1  0.91759297  0.81957975  0.50997652  1
  O2-  O479  1  0.92172229  0.85481964  0.86340564  1
  O2-  O480  1  0.13863932  0.07425829  0.31510270  1
  O2-  O481  1  0.16138369  0.07747329  0.65848177  1
  O2-  O482  1  0.14333473  0.07418440  0.97949992  1
  O2-  O483  1  0.14301479  0.31002431  0.30250115  1
  O2-  O484  1  0.17228979  0.33691589  0.65784264  1
  O2-  O485  1  0.17638106  0.35686477  0.97884913  1
  O2-  O486  1  0.15188314  0.55912969  0.31077668  1
  O2-  O487  1  0.15068053  0.57536393  0.64384704  1
  O2-  O488  1  0.18191462  0.60178402  0.96340179  1
  O2-  O489  1  0.17763552  0.85279373  0.29495285  1
  O2-  O490  1  0.17185745  0.83179652  0.64757400  1
  O2-  O491  1  0.17416739  0.83804126  0.98044022  1
  O2-  O492  1  0.44453521  0.08758874  0.31966747  1
  O2-  O493  1  0.41682555  0.07674975  0.65009505  1
  O2-  O494  1  0.43075000  0.09155098  0.98095956  1
  O2-  O495  1  0.42668714  0.34560195  0.31226664  1
  O2-  O496  1  0.41981644  0.32763331  0.64216839  1
  O2-  O497  1  0.41537853  0.34241729  0.97761086  1
  O2-  O498  1  0.42379122  0.56466842  0.34226177  1
  O2-  O499  1  0.41248219  0.59854010  0.68748745  1
  O2-  O500  1  0.40960132  0.57083156  0.98918159  1
  O2-  O501  1  0.42144540  0.83105620  0.35147144  1
  O2-  O502  1  0.40343259  0.83641773  0.63324724  1
  O2-  O503  1  0.42329236  0.83932900  0.99137375  1
  O2-  O504  1  0.66588016  0.07326893  0.31441515  1
  O2-  O505  1  0.66199380  0.08216122  0.64299210  1
  O2-  O506  1  0.67878272  0.08764360  0.98696610  1
  O2-  O507  1  0.66785356  0.34051064  0.31022845  1
  O2-  O508  1  0.66409755  0.32813431  0.64971340  1
  O2-  O509  1  0.67440039  0.34538721  0.98554142  1
  O2-  O510  1  0.67434718  0.58741537  0.31108429  1
  O2-  O511  1  0.66235315  0.58078000  0.64083544  1
  O2-  O512  1  0.66933148  0.59259571  0.98455856  1
  O2-  O513  1  0.67493015  0.83883546  0.30863259  1
  O2-  O514  1  0.66892628  0.82837051  0.64096953  1
  O2-  O515  1  0.69804044  0.86131556  0.97900293  1
  O2-  O516  1  0.89773577  0.06223346  0.30576229  1
  O2-  O517  1  0.94023055  0.13618422  0.62893120  1
  O2-  O518  1  0.92031518  0.08763066  0.97317137  1
  O2-  O519  1  0.95208678  0.33797824  0.30883684  1
  O2-  O520  1  0.91226583  0.32813103  0.65147367  1
  O2-  O521  1  0.91535215  0.34267652  0.99683980  1
  O2-  O522  1  0.90815383  0.57861334  0.30169885  1
  O2-  O523  1  0.91256513  0.58321596  0.65868110  1
  O2-  O524  1  0.93249731  0.58139495  0.96901641  1
  O2-  O525  1  0.91059222  0.83215514  0.31030656  1
  O2-  O526  1  0.94895750  0.79272159  0.62513792  1
  O2-  O527  1  0.92274923  0.83761584  0.98710672  1
  O2-  O528  1  0.07692283  0.15009061  0.02360296  1
  O2-  O529  1  0.05353108  0.15156110  0.34934708  1
  O2-  O530  1  0.08470002  0.16893834  0.69252990  1
  O2-  O531  1  0.09272397  0.44644175  0.01955007  1
  O2-  O532  1  0.03866686  0.37888904  0.33649038  1
  O2-  O533  1  0.07944650  0.41482000  0.69327210  1
  O2-  O534  1  0.09483398  0.67314618  0.01751329  1
  O2-  O535  1  0.06935398  0.64515613  0.36321799  1
  O2-  O536  1  0.08099618  0.66938000  0.69057320  1
  O2-  O537  1  0.08952029  0.91926212  0.02337721  1
  O2-  O538  1  0.06999507  0.90770943  0.35273817  1
  O2-  O539  1  0.08780011  0.91025079  0.69197978  1
  O2-  O540  1  0.35504502  0.18914154  0.01799614  1
  O2-  O541  1  0.37355969  0.18423923  0.35462254  1
  O2-  O542  1  0.33845457  0.16488867  0.68656190  1
  O2-  O543  1  0.33104794  0.41333593  0.02876318  1
  O2-  O544  1  0.30610226  0.38789533  0.35135075  1
  O2-  O545  1  0.34265847  0.42873599  0.66114257  1
  O2-  O546  1  0.33904292  0.66900380  0.01954096  1
  O2-  O547  1  0.32432175  0.64846929  0.32109022  1
  O2-  O548  1  0.31515526  0.67632088  0.69196671  1
  O2-  O549  1  0.33459863  0.91779061  0.02503735  1
  O2-  O550  1  0.33557185  0.92798079  0.35423659  1
  O2-  O551  1  0.33375118  0.91522356  0.67575582  1
  O2-  O552  1  0.60187383  0.16986157  0.01125240  1
  O2-  O553  1  0.61202837  0.17515531  0.34929849  1
  O2-  O554  1  0.58179463  0.16310151  0.69194389  1
  O2-  O555  1  0.58251982  0.42065342  0.01906964  1
  O2-  O556  1  0.58971448  0.42660952  0.35473046  1
  O2-  O557  1  0.58420052  0.41639214  0.69158744  1
  O2-  O558  1  0.56313013  0.65057833  0.02745729  1
  O2-  O559  1  0.60254016  0.67671158  0.34706526  1
  O2-  O560  1  0.59744567  0.67457568  0.70204059  1
  O2-  O561  1  0.59241877  0.92650944  0.02264923  1
  O2-  O562  1  0.59238861  0.92831338  0.35723344  1
  O2-  O563  1  0.57716274  0.91423936  0.65731240  1
  O2-  O564  1  0.84235439  0.16890755  0.02429908  1
  O2-  O565  1  0.83956438  0.16977190  0.35129981  1
  O2-  O566  1  0.82592905  0.16238262  0.68604845  1
  O2-  O567  1  0.83750246  0.43645901  0.04138947  1
  O2-  O568  1  0.84210285  0.38984519  0.35962223  1
  O2-  O569  1  0.82935584  0.41329094  0.69272778  1
  O2-  O570  1  0.83280516  0.67418533  0.03607114  1
  O2-  O571  1  0.83879006  0.66630274  0.35179826  1
  O2-  O572  1  0.82465479  0.66415722  0.68248250  1
  O2-  O573  1  0.85657229  0.93438190  0.02854000  1
  O2-  O574  1  0.83566410  0.91463300  0.34068017  1
  O2-  O575  1  0.82993368  0.91406443  0.69467403  1
