# generated using pymatgen
data_H2O
_symmetry_space_group_name_H-M   'P 1'
_cell_length_a   17.99606283
_cell_length_b   17.99201372
_cell_length_c   22.01296343
_cell_angle_alpha   90.00451766
_cell_angle_beta   89.97795425
_cell_angle_gamma   119.98488113
_symmetry_Int_Tables_number   1
_chemical_formula_structural   H2O
_chemical_formula_sum   'H384 O192'
_cell_volume   6173.51525839
_cell_formula_units_Z   192
loop_
 _symmetry_equiv_pos_site_id
 _symmetry_equiv_pos_as_xyz
  1  'x, y, z'
loop_
 _atom_type_symbol
 _atom_type_oxidation_number
  H+  1.0
  O2-  -2.0
loop_
 _atom_site_type_symbol
 _atom_site_label
 _atom_site_symmetry_multiplicity
 _atom_site_fract_x
 _atom_site_fract_y
 _atom_site_fract_z
 _atom_site_occupancy
  H+  H0  1  0.13357767  0.11572243  0.84742962  1
  H+  H1  1  0.92347400  0.85797315  0.89044811  1
  H+  H2  1  0.52604127  0.90484204  0.84999467  1
  H+  H3  1  0.15786514  0.77393898  0.85225987  1
  H+  H4  1  0.45655983  0.82272150  0.95351070  1
  H+  H5  1  0.11440479  0.21761283  0.48616538  1
  H+  H6  1  0.32768993  0.19943781  0.33036765  1
  H+  H7  1  0.10767416  0.48096220  0.15669047  1
  H+  H8  1  0.14491608  0.85921713  0.33208237  1
  H+  H9  1  0.36828164  0.97899582  0.14887215  1
  H+  H10  1  0.48629125  0.19150550  0.50625912  1
  H+  H11  1  0.89190858  0.78560449  0.84141957  1
  H+  H12  1  0.30248294  0.63253730  0.43636105  1
  H+  H13  1  0.47884003  0.62666943  0.83711281  1
  H+  H14  1  0.61329321  0.82289764  0.50151355  1
  H+  H15  1  0.87991214  0.28558050  0.66960825  1
  H+  H16  1  0.10818385  0.20538720  0.68600574  1
  H+  H17  1  0.58589809  0.13744267  0.66603854  1
  H+  H18  1  0.36018209  0.14930038  -0.01153051  1
  H+  H19  1  0.27147539  0.88587640  0.33389518  1
  H+  H20  1  0.92156320  0.05358480  0.16655706  1
  H+  H21  1  0.86286622  0.23017882  0.16795393  1
  H+  H22  1  0.27115877  0.14350926  0.83375180  1
  H+  H23  1  0.88819136  0.14189095  0.67162648  1
  H+  H24  1  0.13867903  0.76597821  0.67976097  1
  H+  H25  1  1.01583143  0.39324431  0.15866479  1
  H+  H26  1  0.03567448  0.64699364  0.72744789  1
  H+  H27  1  0.89748481  0.87045059  0.16294252  1
  H+  H28  1  0.80452916  0.47087323  0.13033568  1
  H+  H29  1  0.07959860  0.22903362  0.34261800  1
  H+  H30  1  0.15371569  0.13791631  0.17286884  1
  H+  H31  1  0.61116989  0.65386451  0.82685065  1
  H+  H32  1  0.63629715  0.60906373  0.32415146  1
  H+  H33  1  0.88912918  0.81220717  0.21895321  1
  H+  H34  1  0.67164397  0.53593068  0.16724601  1
  H+  H35  1  0.37848054  0.77451367  0.83345349  1
  H+  H36  1  0.50775949  0.38380740  0.32555960  1
  H+  H37  1  0.11618072  0.95684313  0.00590680  1
  H+  H38  1  1.01781354  0.12012596  0.67967249  1
  H+  H39  1  0.53282010  0.38391467  0.66992200  1
  H+  H40  1  0.85927126  1.00080634  0.02409343  1
  H+  H41  1  0.37835870  0.77031766  0.16667883  1
  H+  H42  1  0.58432932  0.40752543  0.76062612  1
  H+  H43  1  0.50358111  0.61749591  0.00790503  1
  H+  H44  1  0.29291819  0.99810429  0.46284823  1
  H+  H45  1  0.10191632  0.87154074  0.50726047  1
  H+  H46  1  0.13796098  0.85527135  0.84580789  1
  H+  H47  1  0.86099868  0.39217325  0.82732123  1
  H+  H48  1  0.32044401  0.73160200  0.50088847  1
  H+  H49  1  0.14832252  0.07501574  1.04700214  1
  H+  H50  1  0.35034828  0.35297420  0.17378775  1
  H+  H51  1  0.87640431  0.64335065  0.33924610  1
  H+  H52  1  0.48991931  0.38612092  0.50958303  1
  H+  H53  1  0.35121346  0.72112244  0.33556181  1
  H+  H54  1  0.88607195  0.11268430  0.84555501  1
  H+  H55  1  0.59981085  0.12409363  -0.00793105  1
  H+  H56  1  0.20099085  0.38154818  0.33186087  1
  H+  H57  1  0.11138944  0.70879448  0.49621479  1
  H+  H58  1  0.15313974  0.61859548  0.17040743  1
  H+  H59  1  0.37836772  1.01101311  0.32749534  1
  H+  H60  1  0.98556066  0.61004653  0.33811458  1
  H+  H61  1  0.64860736  0.11181174  0.18091122  1
  H+  H62  1  0.21462076  0.85679416  0.50816998  1
  H+  H63  1  0.77185399  0.16048051  0.35222624  1
  H+  H64  1  0.64103977  0.61158087  0.51199858  1
  H+  H65  1  0.37103996  0.23186100  0.68143600  1
  H+  H66  1  0.29171421  0.37935655  0.67251177  1
  H+  H67  1  0.92198250  0.05859703  0.93488673  1
  H+  H68  1  0.86733479  0.65807391  0.11488092  1
  H+  H69  1  0.36575417  0.47083053  0.49550844  1
  H+  H70  1  0.47148813  0.10679593  0.16410491  1
  H+  H71  1  0.67488065  0.58608997  0.57184446  1
  H+  H72  1  0.11806524  0.87586714  0.16274190  1
  H+  H73  1  0.38146830  0.36521890  0.32724846  1
  H+  H74  1  0.61290534  0.60163518  0.99290229  1
  H+  H75  1  0.64386767  0.36444567  0.98663296  1
  H+  H76  1  0.22853200  0.12463993  0.00455998  1
  H+  H77  1  0.40665264  0.37263428  0.66408247  1
  H+  H78  1  0.86412315  0.63329310  0.66517870  1
  H+  H79  1  0.25561620  0.39267388  0.16350232  1
  H+  H80  1  0.27351881  0.64922911  0.82559799  1
  H+  H81  1  0.22224720  0.62035742  0.66515324  1
  H+  H82  1  0.68357027  0.11456648  0.68821475  1
  H+  H83  1  0.73207564  0.85965475  0.65858578  1
  H+  H84  1  0.84899453  0.17399352  0.76788348  1
  H+  H85  1  0.61084440  0.62831904  0.16330233  1
  H+  H86  1  0.83581204  0.67835680  0.90157133  1
  H+  H87  1  0.63003747  0.52145871  0.98837747  1
  H+  H88  1  0.27770508  0.63188265  0.15684821  1
  H+  H89  1  0.64307361  0.35444882  0.17204204  1
  H+  H90  1  0.73134419  0.35652655  0.17193053  1
  H+  H91  1  0.74973697  0.64841291  -0.01847480  1
  H+  H92  1  0.71061698  0.84728127  0.18007025  1
  H+  H93  1  0.09624409  0.90346886  0.06844509  1
  H+  H94  1  0.74047024  0.11542757  0.18329282  1
  H+  H95  1  0.74270498  0.63088472  0.16218079  1
  H+  H96  1  0.38894131  0.75420548  0.00095563  1
  H+  H97  1  0.26000917  0.88357603  0.83215294  1
  H+  H98  1  0.89322805  0.55202313  0.59059027  1
  H+  H99  1  0.12441101  1.01002532  0.51498743  1
  H+  H100  1  0.87843701  0.15496117  0.49991083  1
  H+  H101  1  0.36094950  0.64257353  0.82793749  1
  H+  H102  1  0.61638662  0.88998126  0.17453679  1
  H+  H103  1  0.60029406  0.13991125  0.33904113  1
  H+  H104  1  0.71946892  0.63095641  0.84344150  1
  H+  H105  1  0.77775643  0.14448842  0.81908928  1
  H+  H106  1  0.59990879  0.71069445  0.16372903  1
  H+  H107  1  0.11495390  0.50366412  0.52689950  1
  H+  H108  1  0.68036661  0.91756708  0.51078902  1
  H+  H109  1  0.51999291  0.37654540  0.82202752  1
  H+  H110  1  0.39239980  0.53365977  0.83473079  1
  H+  H111  1  0.77647917  0.38424320  0.99950448  1
  H+  H112  1  0.76083633  0.17233304  0.52576899  1
  H+  H113  1  0.17368272  0.58043892  0.23005494  1
  H+  H114  1  0.92311161  0.60165119  0.18479416  1
  H+  H115  1  0.11032722  0.88181123  0.67701720  1
  H+  H116  1  0.10138161  0.39911274  -0.00073243  1
  H+  H117  1  0.34773406  0.95929216  0.49036796  1
  H+  H118  1  0.60716881  0.88908887  0.33200248  1
  H+  H119  1  0.36221515  0.89049706  0.68767214  1
  H+  H120  1  0.19066110  0.10569859  0.22680850  1
  H+  H121  1  0.45941021  0.85040966  0.32167531  1
  H+  H122  1  0.12283832  0.71678352  0.34320064  1
  H+  H123  1  0.38240280  0.10574601  0.15639898  1
  H+  H124  1  0.86398851  -0.02061250  0.29019114  1
  H+  H125  1  0.02395566  0.14113171  0.83825107  1
  H+  H126  1  0.55595142  0.44519254  0.18177658  1
  H+  H127  1  0.52878313  0.38376938  0.00474699  1
  H+  H128  1  0.51261777  0.62135171  0.49684379  1
  H+  H129  1  0.66531785  0.33577821  0.88944217  1
  H+  H130  1  -0.01631382  0.09714867  -0.00796416  1
  H+  H131  1  0.27735735  0.32317203  0.02685055  1
  H+  H132  1  0.60819572  0.48040248  0.32452166  1
  H+  H133  1  0.23162618  0.36358174  0.48589486  1
  H+  H134  1  -0.02302714  0.11389738  0.50465080  1
  H+  H135  1  0.93075377  0.54495115  0.65393059  1
  H+  H136  1  0.26632715  0.87894084  0.68072386  1
  H+  H137  1  0.63780823  0.61346963  0.66249122  1
  H+  H138  1  0.10854494  0.12569975  0.48929394  1
  H+  H139  1  0.88618563  0.27814338  0.84349583  1
  H+  H140  1  0.86372570  0.46850488  0.48389344  1
  H+  H141  1  0.36548405  0.88425323  0.15492083  1
  H+  H142  1  0.08623814  0.35607618  0.62575956  1
  H+  H143  1  0.37153546  0.10165314  0.31948558  1
  H+  H144  1  0.58961100  0.44012908  0.43095254  1
  H+  H145  1  0.62036974  0.21964187  0.16674827  1
  H+  H146  1  0.78295132  0.64321141  0.67063972  1
  H+  H147  1  0.96081986  0.10006421  0.32252469  1
  H+  H148  1  0.80198835  0.14057062  0.66573917  1
  H+  H149  1  0.96397419  0.35407123  -0.00319917  1
  H+  H150  1  0.71335964  0.10159103  1.00456491  1
  H+  H151  1  0.24526143  0.14894176  0.65390387  1
  H+  H152  1  0.13661529  0.62523154  0.67418114  1
  H+  H153  1  0.11870574  -0.03088837  0.83165666  1
  H+  H154  1  0.90825861  0.25351599  0.48918202  1
  H+  H155  1  0.37135599  0.87406495  1.01095652  1
  H+  H156  1  0.40198011  0.37252770  0.99111566  1
  H+  H157  1  0.88494188  0.60684350  0.50254786  1
  H+  H158  1  0.47105526  0.11297458  0.32975374  1
  H+  H159  1  0.35819950  0.63085216  0.33285288  1
  H+  H160  1  0.17031871  0.61707817  0.89513407  1
  H+  H161  1  0.04479310  0.37710348  0.33220821  1
  H+  H162  1  0.67476957  0.58725395  0.26452757  1
  H+  H163  1  0.60243209  -0.02799955  1.02749686  1
  H+  H164  1  0.64050496  0.38019239  0.49535834  1
  H+  H165  1  0.78855373  0.64498095  0.33640824  1
  H+  H166  1  0.64059757  0.27475268  0.98049327  1
  H+  H167  1  0.60773419  0.15122857  0.80712519  1
  H+  H168  1  0.63418386  1.03786478  0.84153061  1
  H+  H169  1  0.61741495  0.37202063  0.82494199  1
  H+  H170  1  0.91073020  0.50743772  0.98205697  1
  H+  H171  1  0.89401318  0.77547061  0.65653663  1
  H+  H172  1  0.77434803  0.38404959  0.48154674  1
  H+  H173  1  0.86750147  0.88488129  0.66906075  1
  H+  H174  1  0.61602918  0.90665523  0.85144935  1
  H+  H175  1  0.43654656  0.85745785  0.62878878  1
  H+  H176  1  0.63678676  0.79033615  0.83595944  1
  H+  H177  1  0.88991518  0.77519951  0.50802581  1
  H+  H178  1  0.38355981  0.61336914  0.66122557  1
  H+  H179  1  0.78029918  0.64010441  0.49518311  1
  H+  H180  1  0.86582170  0.89381855  0.81953512  1
  H+  H181  1  0.35483555  0.62287774  1.00067867  1
  H+  H182  1  0.72843858  0.89007498  0.99705629  1
  H+  H183  1  0.86327348  0.73971112  0.13697993  1
  H+  H184  1  0.42810235  0.28869207  0.51722814  1
  H+  H185  1  0.60766429  0.23264510  0.65670900  1
  H+  H186  1  0.90832922  0.78318516  0.32630490  1
  H+  H187  1  0.35359009  0.47351902  0.33908767  1
  H+  H188  1  0.02756474  0.87067395  0.15690133  1
  H+  H189  1  0.27056061  0.63327316  1.00115893  1
  H+  H190  1  0.63226872  0.99211265  0.17593119  1
  H+  H191  1  0.91697607  0.51339386  0.17649544  1
  H+  H192  1  0.23355553  0.78913391  0.53216899  1
  H+  H193  1  0.12768707  0.73568476  0.00716928  1
  H+  H194  1  0.60875341  0.38462619  0.32797540  1
  H+  H195  1  0.35450401  0.88541639  0.82474441  1
  H+  H196  1  0.37058200  0.50833780  -0.02015781  1
  H+  H197  1  0.26808483  0.13041772  0.14842627  1
  H+  H198  1  0.24235909  0.08477883  0.48201845  1
  H+  H199  1  0.10602398  0.24320766  -0.00237926  1
  H+  H200  1  0.51765156  0.87778649  0.03293125  1
  H+  H201  1  0.78205170  0.89065765  0.48884037  1
  H+  H202  1  0.02761145  0.88421870  0.82942718  1
  H+  H203  1  0.69317671  0.85207776  0.37544935  1
  H+  H204  1  1.00299064  0.14727665  0.16588558  1
  H+  H205  1  0.89324563  0.89618373  0.97667099  1
  H+  H206  1  0.51165182  0.90904265  0.47637392  1
  H+  H207  1  0.09066482  0.49147773  0.68698127  1
  H+  H208  1  0.12903237  0.38179000  0.83628959  1
  H+  H209  1  0.14630424  0.51294460  0.32582023  1
  H+  H210  1  0.05447150  0.91224044  0.35025657  1
  H+  H211  1  0.12431260  0.37550435  0.17086339  1
  H+  H212  1  0.88840779  0.01732050  0.65614999  1
  H+  H213  1  0.25240074  0.61908072  0.33137153  1
  H+  H214  1  0.46832862  0.61187108  0.32555530  1
  H+  H215  1  0.62756857  0.49524205  0.49284594  1
  H+  H216  1  0.63285912  0.86374021  0.99460317  1
  H+  H217  1  0.98823553  0.53127387  0.93904832  1
  H+  H218  1  -0.02569587  0.39667568  0.47016558  1
  H+  H219  1  0.82734430  0.40944420  0.39572188  1
  H+  H220  1  0.15770355  0.86672952  0.00120600  1
  H+  H221  1  0.47348811  0.13635297  -0.06007222  1
  H+  H222  1  -0.15205346  0.35223522  0.68104374  1
  H+  H223  1  0.23683693  0.86696742  0.17568816  1
  H+  H224  1  0.61229864  0.71752924  0.34379197  1
  H+  H225  1  0.45383141  0.11565471  0.65558102  1
  H+  H226  1  0.63125081  0.27432372  0.82748918  1
  H+  H227  1  0.37696932  0.82152296  0.53233015  1
  H+  H228  1  0.36900450  0.11440253  0.86299918  1
  H+  H229  1  0.15411008  0.77457036  0.17643783  1
  H+  H230  1  0.35328848  0.13526045  0.67940670  1
  H+  H231  1  0.38839202  0.27485665  0.83876977  1
  H+  H232  1  0.52326404  0.63705011  0.67054109  1
  H+  H233  1  0.10185976  0.61640493  0.49681942  1
  H+  H234  1  0.09996669  0.49834347  0.83657891  1
  H+  H235  1  -0.01835916  0.86616936  0.66055645  1
  H+  H236  1  0.43320964  0.34786325  0.16178426  1
  H+  H237  1  0.05160179  0.63798793  0.16117910  1
  H+  H238  1  0.12614990  0.39853362  0.62069998  1
  H+  H239  1  0.96917253  0.37228507  0.85090268  1
  H+  H240  1  0.29297144  0.10758523  0.41788540  1
  H+  H241  1  0.79551049  0.43952328  0.65407671  1
  H+  H242  1  0.88647716  0.53078297  0.82487287  1
  H+  H243  1  0.33172409  0.16925924  0.77493437  1
  H+  H244  1  0.13909398  0.60207917  0.33229569  1
  H+  H245  1  0.85777625  0.47384773  0.33950389  1
  H+  H246  1  0.36322721  0.72899581  0.67798737  1
  H+  H247  1  0.88684822  0.02769756  0.50250574  1
  H+  H248  1  -0.02820744  0.60231957  0.50374381  1
  H+  H249  1  0.38711557  0.15548177  0.49472041  1
  H+  H250  1  0.62971219  0.03360073  0.33225345  1
  H+  H251  1  0.77652677  0.39529221  0.81591673  1
  H+  H252  1  0.84018984  0.93282005  0.19751058  1
  H+  H253  1  0.68380019  1.04762418  0.50705969  1
  H+  H254  1  0.77597938  0.89467719  0.82075787  1
  H+  H255  1  0.14741667  0.62755005  0.99395137  1
  H+  H256  1  0.11956287  0.16138340  0.00526036  1
  H+  H257  1  0.39528940  0.28110596  0.98958355  1
  H+  H258  1  0.89384880  0.28193849  0.33163145  1
  H+  H259  1  0.62694653  0.39180062  0.67331014  1
  H+  H260  1  0.72254768  0.37112654  0.33110948  1
  H+  H261  1  0.86271906  0.64417893  0.84463512  1
  H+  H262  1  0.13443354  0.53352351  -0.01338938  1
  H+  H263  1  0.18904453  1.03950054  0.33157587  1
  H+  H264  1  0.15583092  0.33694867  0.44036446  1
  H+  H265  1  0.37112097  1.02531012  0.66735184  1
  H+  H266  1  0.12991573  0.29202108  0.83524331  1
  H+  H267  1  0.87982419  0.36027191  0.18328513  1
  H+  H268  1  0.14678554  0.12480986  0.65646101  1
  H+  H269  1  0.51613705  0.87341921  0.46181810  1
  H+  H270  1  0.38030038  0.82613850  0.89204141  1
  H+  H271  1  0.59610664  0.22696792  0.34028596  1
  H+  H272  1  0.38758592  0.52555808  0.66163373  1
  H+  H273  1  0.38328093  0.61040734  0.17112045  1
  H+  H274  1  0.17356117  0.30906476  0.60905693  1
  H+  H275  1  0.12575023  0.25206834  0.15947710  1
  H+  H276  1  0.61169144  0.86817854  0.68436144  1
  H+  H277  1  0.24492747  0.60131490  0.49752270  1
  H+  H278  1  0.61952411  0.24343137  0.48897197  1
  H+  H279  1  0.37623792  0.59918390  0.50775309  1
  H+  H280  1  0.48440001  0.86323558  0.68913705  1
  H+  H281  1  0.84246118  0.21041089  0.01201856  1
  H+  H282  1  0.27938446  0.39561066  0.82619380  1
  H+  H283  1  0.21212154  0.37737524  0.98529128  1
  H+  H284  1  0.53647511  0.35480722  0.20102517  1
  H+  H285  1  0.86851462  0.79715602  0.97434681  1
  H+  H286  1  0.37292850  0.85383176  0.32846875  1
  H+  H287  1  0.08009493  0.16246930  0.77874732  1
  H+  H288  1  0.57926844  0.67899029  0.76694789  1
  H+  H289  1  0.17198347  0.09190099  0.56151362  1
  H+  H290  1  0.56106959  0.64241485  0.06796361  1
  H+  H291  1  0.33045079  0.66574064  0.73333297  1
  H+  H292  1  0.57986624  0.16856121  0.44030525  1
  H+  H293  1  0.45696626  0.76399752  0.57302872  1
  H+  H294  1  0.04187218  0.64033594  0.00399884  1
  H+  H295  1  0.90143210  0.37281680  0.32738190  1
  H+  H296  1  0.83040652  0.41734310  0.08804533  1
  H+  H297  1  0.31452577  0.40136252  0.07140169  1
  H+  H298  1  0.36768466  0.38247864  0.49356773  1
  H+  H299  1  0.06593866  0.16312058  0.39511600  1
  H+  H300  1  0.16689263  0.81083363  0.61348763  1
  H+  H301  1  0.65318102  0.04106153  0.94947431  1
  H+  H302  1  0.97831520  0.84512318  0.27875507  1
  H+  H303  1  0.35056586  0.47505351  0.16098101  1
  H+  H304  1  0.88610469  1.02436554  0.83701794  1
  H+  H305  1  0.15425337  0.57979758  0.57594677  1
  H+  H306  1  0.72236995  1.02819721  0.44914556  1
  H+  H307  1  0.60309602  0.16385291  0.10805100  1
  H+  H308  1  0.39680821  0.82450174  0.22738291  1
  H+  H309  1  0.79020381  1.01463769  0.05733500  1
  H+  H310  1  0.15637418  0.35108244  0.92402700  1
  H+  H311  1  0.09928514  0.19575637  0.09760288  1
  H+  H312  1  0.09134559  0.65609281  0.40297033  1
  H+  H313  1  0.28103055  0.87884912  0.00670420  1
  H+  H314  1  0.92303057  0.09381416  0.25674703  1
  H+  H315  1  0.83609592  0.91738186  0.72708297  1
  H+  H316  1  0.61421998  0.95487341  0.69925803  1
  H+  H317  1  0.57338802  0.18701287  0.75474531  1
  H+  H318  1  0.92027721  0.33736729  0.24039791  1
  H+  H319  1  -0.00466453  0.40995005  0.68907043  1
  H+  H320  1  0.61443869  0.72402558  0.66920117  1
  H+  H321  1  0.32410399  0.92565550  0.39462578  1
  H+  H322  1  0.74001212  0.86880678  0.31245145  1
  H+  H323  1  0.90294853  0.32029275  0.93853020  1
  H+  H324  1  0.93400507  0.57872382  0.27719495  1
  H+  H325  1  0.18773806  0.83956180  0.93938164  1
  H+  H326  1  0.10180630  0.37331998  0.50898515  1
  H+  H327  1  0.92094024  0.83626795  0.56738197  1
  H+  H328  1  0.10588362  0.92334419  0.40986709  1
  H+  H329  1  0.86385660  0.88778531  0.29258366  1
  H+  H330  1  0.66938673  0.09413931  0.27595006  1
  H+  H331  1  0.42860870  0.34035173  0.89469439  1
  H+  H332  1  0.74677403  0.30487924  0.61095192  1
  H+  H333  1  0.58616706  0.92372244  0.11208113  1
  H+  H334  1  0.66697814  0.33712912  0.26998775  1
  H+  H335  1  0.34118454  0.91051199  0.07676358  1
  H+  H336  1  0.36692345  0.39113593  0.82812108  1
  H+  H337  1  0.48539795  0.81119841  0.56666784  1
  H+  H338  1  0.34511369  0.42153711  0.73331566  1
  H+  H339  1  0.67681690  0.35113044  0.55200814  1
  H+  H340  1  0.43103932  0.34068194  0.60335618  1
  H+  H341  1  0.56629241  0.91087391  0.38703644  1
  H+  H342  1  0.46731800  0.60059601  0.17577320  1
  H+  H343  1  0.40872628  0.57743208  0.92576688  1
  H+  H344  1  0.83483179  0.94584061  0.12140961  1
  H+  H345  1  0.85871940  0.37097990  0.00658673  1
  H+  H346  1  0.92221679  0.08086595  0.59779666  1
  H+  H347  1  0.82576412  0.68334156  0.02841957  1
  H+  H348  1  0.52935897  0.13908571  0.02546309  1
  H+  H349  1  0.41186851  0.57879838  0.56870314  1
  H+  H350  1  0.16067060  0.07987871  0.90368365  1
  H+  H351  1  0.11923670  0.67352792  0.76815088  1
  H+  H352  1  0.58789396  0.41079060  0.06371404  1
  H+  H353  1  0.33491799  0.66035814  0.09638705  1
  H+  H354  1  0.33865545  0.17118602  0.05623840  1
  H+  H355  1  0.07294199  0.42705053  0.06009959  1
  H+  H356  1  0.83961438  0.67098595  0.43514424  1
  H+  H357  1  0.10453330  0.67499583  0.09920452  1
  H+  H358  1  0.67048138  0.83780326  0.60084503  1
  H+  H359  1  0.66346040  0.15648499  0.51976488  1
  H+  H360  1  0.87097817  0.89434693  0.49057456  1
  H+  H361  1  0.60547713  0.70432336  0.49744452  1
  H+  H362  1  0.67574579  0.84915534  0.89518509  1
  H+  H363  1  0.40192154  0.33209714  0.26537082  1
  H+  H364  1  0.66928963  0.10387530  0.61610978  1
  H+  H365  1  0.93395539  0.59017705  0.88033781  1
  H+  H366  1  0.57624446  0.65167212  0.39885140  1
  H+  H367  1  0.87428024  0.14778855  0.16191273  1
  H+  H368  1  0.65374454  0.81985971  0.23805623  1
  H+  H369  1  0.32974279  0.41441884  0.39793831  1
  H+  H370  1  0.17143004  0.82837890  0.27059405  1
  H+  H371  1  0.67150327  0.12708406  0.87563011  1
  H+  H372  1  0.15019387  0.35187137  0.23504722  1
  H+  H373  1  0.31992886  0.91579093  0.76354117  1
  H+  H374  1  0.64720572  0.58938284  0.89202875  1
  H+  H375  1  0.35371240  0.21642562  0.15022427  1
  H+  H376  1  0.08271379  0.91156784  0.73533139  1
  H+  H377  1  0.83781861  0.19083276  0.40769463  1
  H+  H378  1  0.06242675  0.43754381  0.77918922  1
  H+  H379  1  0.81407835  0.16190399  0.07532213  1
  H+  H380  1  0.01668761  0.87650977  0.49907941  1
  H+  H381  1  0.40854747  0.58205534  0.26536850  1
  H+  H382  1  0.64254452  0.52671528  0.66316037  1
  H+  H383  1  0.20703125  0.24471458  0.62785417  1
  O2-  O384  1  0.10250946  0.19285847  0.14282862  1
  O2-  O385  1  0.07786128  0.15625428  0.47555071  1
  O2-  O386  1  0.08478028  0.17342895  0.82355250  1
  O2-  O387  1  0.07384729  0.42165154  0.13940145  1
  O2-  O388  1  0.00094054  0.36050612  0.46819980  1
  O2-  O389  1  0.07095155  0.43704111  0.82516100  1
  O2-  O390  1  0.11019467  0.67439659  0.14485523  1
  O2-  O391  1  0.07735922  0.65046220  0.47778300  1
  O2-  O392  1  0.14346588  0.68007070  0.83307266  1
  O2-  O393  1  0.08669432  0.90069888  0.14176932  1
  O2-  O394  1  0.08027178  0.90506349  0.48694428  1
  O2-  O395  1  0.09020628  0.90837999  0.81859256  1
  O2-  O396  1  0.32944148  0.15927444  0.13126847  1
  O2-  O397  1  0.29096745  0.08427862  0.45884939  1
  O2-  O398  1  0.33253587  0.17247006  0.82059795  1
  O2-  O399  1  0.31493837  0.41421158  0.14626339  1
  O2-  O400  1  0.33756312  0.41231991  0.47681600  1
  O2-  O401  1  0.33984934  0.42405616  0.81221595  1
  O2-  O402  1  0.33832492  0.66375004  0.14177168  1
  O2-  O403  1  0.30541686  0.63303654  0.48089393  1
  O2-  O404  1  0.33450842  0.67576340  0.81096298  1
  O2-  O405  1  0.33734104  0.91578765  0.13478681  1
  O2-  O406  1  0.29796963  0.94400546  0.46458411  1
  O2-  O407  1  0.32172000  0.91497055  0.81158817  1
  O2-  O408  1  0.59337173  0.15914692  0.15189919  1
  O2-  O409  1  0.58839422  0.17949071  0.48436940  1
  O2-  O410  1  0.58060470  0.18653958  0.79961037  1
  O2-  O411  1  0.56268407  0.39698309  0.16821290  1
  O2-  O412  1  0.59247372  0.43549274  0.47503494  1
  O2-  O413  1  0.58155855  0.40318968  0.80679275  1
  O2-  O414  1  0.57180405  0.64974425  0.15166003  1
  O2-  O415  1  0.57289911  0.64731858  0.47933083  1
  O2-  O416  1  0.57834125  0.68346998  0.81198093  1
  O2-  O417  1  0.59500475  0.92903495  0.16024932  1
  O2-  O418  1  0.67912215  0.99998085  0.48059460  1
  O2-  O419  1  0.58672918  0.94017419  0.86192281  1
  O2-  O420  1  0.83322068  0.16952703  0.15319667  1
  O2-  O421  1  0.85711672  0.19524332  0.48893436  1
  O2-  O422  1  0.84087920  0.17306005  0.81261551  1
  O2-  O423  1  0.82499418  0.42986657  0.13366350  1
  O2-  O424  1  0.83455467  0.40920031  0.46704915  1
  O2-  O425  1  0.83786913  0.42429973  0.80537788  1
  O2-  O426  1  0.82860011  0.68106743  0.11718472  1
  O2-  O427  1  0.84083326  0.66918243  0.48015925  1
  O2-  O428  1  0.83449009  0.67840433  0.85685468  1
  O2-  O429  1  0.86730971  0.94058995  0.15681524  1
  O2-  O430  1  0.84128377  0.92406703  0.47407674  1
  O2-  O431  1  0.83587183  0.92478982  0.80421182  1
  O2-  O432  1  0.18169371  0.10381281  0.18268906  1
  O2-  O433  1  0.15956347  0.07370292  0.51780035  1
  O2-  O434  1  0.16482856  0.08467070  0.85944773  1
  O2-  O435  1  0.15748728  0.35030914  0.19045649  1
  O2-  O436  1  0.16686884  0.33368068  0.48340709  1
  O2-  O437  1  0.16184519  0.35282673  0.84906338  1
  O2-  O438  1  0.17563237  0.58044914  0.18523529  1
  O2-  O439  1  0.14987650  0.56752357  0.53091573  1
  O2-  O440  1  0.17274700  0.61806017  0.84969986  1
  O2-  O441  1  0.17919047  0.83322121  0.19460529  1
  O2-  O442  1  0.18618982  0.80334983  0.53285769  1
  O2-  O443  1  0.17840090  0.83630291  0.86227996  1
  O2-  O444  1  0.40951852  0.07280805  0.17196053  1
  O2-  O445  1  0.43924840  0.20327738  0.51321360  1
  O2-  O446  1  0.37834179  0.07114629  0.88554761  1
  O2-  O447  1  0.38160349  0.32178191  0.18712905  1
  O2-  O448  1  0.43128652  0.34562545  0.52479210  1
  O2-  O449  1  0.42434575  0.33800525  0.84957014  1
  O2-  O450  1  0.40686960  0.57540320  0.19040286  1
  O2-  O451  1  0.41296751  0.57599721  0.52282364  1
  O2-  O452  1  0.41706122  0.59255823  0.85204782  1
  O2-  O453  1  0.40204702  0.82966735  0.18277786  1
  O2-  O454  1  0.32286311  0.78678614  0.51132162  1
  O2-  O455  1  0.40189508  0.83507056  0.85042786  1
  O2-  O456  1  0.67842640  0.08236506  0.19842414  1
  O2-  O457  1  0.70112478  0.13958091  0.54235933  1
  O2-  O458  1  0.66755696  0.10304814  0.83528676  1
  O2-  O459  1  0.67247565  0.32612517  0.19015414  1
  O2-  O460  1  0.67047317  0.34808906  0.50734884  1
  O2-  O461  1  0.66208606  0.33696471  0.84412545  1
  O2-  O462  1  0.68701434  0.59211918  0.18396890  1
  O2-  O463  1  0.67752745  0.58788156  0.52563382  1
  O2-  O464  1  0.65621467  0.60250087  0.84796545  1
  O2-  O465  1  0.65100592  0.82250164  0.19360840  1
  O2-  O466  1  0.66983952  0.85772193  0.51969402  1
  O2-  O467  1  0.67161129  0.85139163  0.84995899  1
  O2-  O468  1  0.94080753  0.11355545  0.17878710  1
  O2-  O469  1  0.91667442  0.08704069  0.52040997  1
  O2-  O470  1  0.91576193  0.08124523  0.85858336  1
  O2-  O471  1  0.91569115  0.33575553  0.19396854  1
  O2-  O472  1  1.06089763  0.39374947  0.52012167  1
  O2-  O473  1  0.90792824  0.33461084  0.86416007  1
  O2-  O474  1  0.95155481  0.56985171  0.19674906  1
  O2-  O475  1  0.91033352  0.57146559  0.51666081  1
  O2-  O476  1  0.91696978  0.59218476  0.83830171  1
  O2-  O477  1  0.91001345  0.82419954  0.17699644  1
  O2-  O478  1  0.92124647  0.83642694  0.52125364  1
  O2-  O479  1  0.92477257  0.84999322  0.84481687  1
  O2-  O480  1  0.22363343  0.09309479  0.30723084  1
  O2-  O481  1  0.19635721  0.14411797  0.62835725  1
  O2-  O482  1  0.16385125  0.09183779  1.00461929  1
  O2-  O483  1  0.14103151  0.35551371  0.31601641  1
  O2-  O484  1  0.19939627  0.29369834  0.64206943  1
  O2-  O485  1  0.15270707  0.34858147  0.97006687  1
  O2-  O486  1  0.17335772  0.57578032  0.31447063  1
  O2-  O487  1  0.16167664  0.59513533  0.65106176  1
  O2-  O488  1  0.17188093  0.59445282  0.97330614  1
  O2-  O489  1  0.17160218  0.82587166  0.31637850  1
  O2-  O490  1  0.16781703  0.82215225  0.65768930  1
  O2-  O491  1  0.19077620  0.83712264  0.98470042  1
  O2-  O492  1  0.40926821  0.07529718  0.31294192  1
  O2-  O493  1  0.39119199  0.08206689  0.64872017  1
  O2-  O494  1  0.41113228  0.11097374  0.94469645  1
  O2-  O495  1  0.41467516  0.33846912  0.30998151  1
  O2-  O496  1  0.43394167  0.33941234  0.64886171  1
  O2-  O497  1  0.43160114  0.34269039  0.97562307  1
  O2-  O498  1  0.40780086  0.58496612  0.31142311  1
  O2-  O499  1  0.41524212  0.58518080  0.64467428  1
  O2-  O500  1  0.40105723  0.56993225  0.97154322  1
  O2-  O501  1  0.39679053  0.81776668  0.31264952  1
  O2-  O502  1  0.42462440  0.84470940  0.67192595  1
  O2-  O503  1  0.42583861  0.81891790  0.99105379  1
  O2-  O504  1  0.65844316  0.09471373  0.32033294  1
  O2-  O505  1  0.64248315  0.08040128  0.65676113  1
  O2-  O506  1  0.65085068  0.06478037  0.98901859  1
  O2-  O507  1  0.66090183  0.34323526  0.31443792  1
  O2-  O508  1  0.70705663  0.32499885  0.62341308  1
  O2-  O509  1  0.67422891  0.33606923  0.96841526  1
  O2-  O510  1  0.66604284  0.57776796  0.30919807  1
  O2-  O511  1  0.67019837  0.58570824  0.64618924  1
  O2-  O512  1  0.64809361  0.57895070  0.97199646  1
  O2-  O513  1  0.67967731  0.83961782  0.33223670  1
  O2-  O514  1  0.67015162  0.82924649  0.64526581  1
  O2-  O515  1  0.67574742  0.85500218  0.97347175  1
  O2-  O516  1  0.90655079  0.06837159  0.29808415  1
  O2-  O517  1  0.92261461  0.07936573  0.64348441  1
  O2-  O518  1  0.93291874  0.04458704  0.97661116  1
  O2-  O519  1  0.93081181  0.34175015  0.31319338  1
  O2-  O520  1  0.88901500  0.34252153  0.65794013  1
  O2-  O521  1  0.90244312  0.31747792  0.98447926  1
  O2-  O522  1  0.92620686  0.58480316  0.32098388  1
  O2-  O523  1  0.87907694  0.53912185  0.63515018  1
  O2-  O524  1  0.95945180  0.55690515  0.96098403  1
  O2-  O525  1  0.93943560  0.84361521  0.31032849  1
  O2-  O526  1  0.92192260  0.83705135  0.64255148  1
  O2-  O527  1  0.91261225  0.85712001  0.96330615  1
  O2-  O528  1  0.08497929  0.18731613  0.01910490  1
  O2-  O529  1  0.05891386  0.16825810  0.35087655  1
  O2-  O530  1  0.07442224  0.14601653  0.70140282  1
  O2-  O531  1  0.07020712  0.42836468  0.01478405  1
  O2-  O532  1  0.10742799  0.40914264  0.34327067  1
  O2-  O533  1  0.05244476  0.43749747  0.70875417  1
  O2-  O534  1  0.09829834  0.67577542  0.02449591  1
  O2-  O535  1  0.09413598  0.65571083  0.35700683  1
  O2-  O536  1  0.09763705  0.67288396  0.72292475  1
  O2-  O537  1  0.10225722  0.90121760  0.02288111  1
  O2-  O538  1  0.11288725  0.93045368  0.36473735  1
  O2-  O539  1  0.08019686  0.91216346  0.69032390  1
  O2-  O540  1  0.33547397  0.18008389  0.01115303  1
  O2-  O541  1  0.30715804  0.13803177  0.33884472  1
  O2-  O542  1  0.33093945  0.17319370  0.69679789  1
  O2-  O543  1  0.31139084  0.38580621  0.02683847  1
  O2-  O544  1  0.32277003  0.41279644  0.35268885  1
  O2-  O545  1  0.34975164  0.42208315  0.68801269  1
  O2-  O546  1  0.33072861  0.65829636  0.01783060  1
  O2-  O547  1  0.32195494  0.65733236  0.34806214  1
  O2-  O548  1  0.33087318  0.66678184  0.68781401  1
  O2-  O549  1  0.34309820  0.90662042  0.02475197  1
  O2-  O550  1  0.33277793  0.92056547  0.34985459  1
  O2-  O551  1  0.32588880  0.91617411  0.69838900  1
  O2-  O552  1  0.57656025  0.16408529  -0.00356181  1
  O2-  O553  1  0.56454579  0.16589172  0.35278935  1
  O2-  O554  1  0.56528681  0.17803368  0.67591152  1
  O2-  O555  1  0.59016135  0.41200656  0.01943247  1
  O2-  O556  1  0.57405794  0.41653818  0.33816384  1
  O2-  O557  1  0.59293402  0.41667879  0.68820329  1
  O2-  O558  1  0.56305483  0.64368120  0.02329185  1
  O2-  O559  1  0.57922153  0.65548420  0.35341637  1
  O2-  O560  1  0.58330126  0.66445457  0.68603477  1
  O2-  O561  1  0.57767297  0.91445142  0.04813652  1
  O2-  O562  1  0.57024379  0.91363060  0.34245334  1
  O2-  O563  1  0.58122336  0.89319300  0.70716564  1
  O2-  O564  1  0.80556253  0.15274747  0.03060610  1
  O2-  O565  1  0.83314654  0.19165349  0.36287551  1
  O2-  O566  1  0.85706504  0.17254596  0.68631985  1
  O2-  O567  1  0.83451365  0.40949460  0.01895406  1
  O2-  O568  1  0.82302389  0.41171481  0.34933123  1
  O2-  O569  1  0.75338872  0.38350873  0.67436480  1
  O2-  O570  1  0.81360140  0.68795048  -0.01434129  1
  O2-  O571  1  0.84810313  0.67702124  0.35149267  1
  O2-  O572  1  0.84521289  0.67302347  0.67932694  1
  O2-  O573  1  0.80862416  0.97208457  0.05403621  1
  O2-  O574  1  0.82797249  0.91152433  0.27804588  1
  O2-  O575  1  0.83526687  0.91494620  0.68143894  1
