# generated using pymatgen
data_H2O
_symmetry_space_group_name_H-M   'P 1'
_cell_length_a   18.00541483
_cell_length_b   18.00052133
_cell_length_c   22.00985625
_cell_angle_alpha   90.02064160
_cell_angle_beta   89.98142489
_cell_angle_gamma   119.99616166
_symmetry_Int_Tables_number   1
_chemical_formula_structural   H2O
_chemical_formula_sum   'H384 O192'
_cell_volume   6178.06985753
_cell_formula_units_Z   192
loop_
 _symmetry_equiv_pos_site_id
 _symmetry_equiv_pos_as_xyz
  1  'x, y, z'
loop_
 _atom_type_symbol
 _atom_type_oxidation_number
  H+  1.0
  O2-  -2.0
loop_
 _atom_site_type_symbol
 _atom_site_label
 _atom_site_symmetry_multiplicity
 _atom_site_fract_x
 _atom_site_fract_y
 _atom_site_fract_z
 _atom_site_occupancy
  H+  H0  1  0.10165951  0.21980941  0.49406307  1
  H+  H1  1  0.50373272  0.13091170  0.47967278  1
  H+  H2  1  0.72309950  0.86646289  0.17387129  1
  H+  H3  1  0.52251398  0.88113465  1.00935820  1
  H+  H4  1  0.33252917  0.18479982  0.68301883  1
  H+  H5  1  0.11954998  0.90170302  0.34488596  1
  H+  H6  1  0.13856027  0.86524466  0.51213147  1
  H+  H7  1  0.35555630  0.97323023  0.17155096  1
  H+  H8  1  0.37892600  0.14971669  0.83472403  1
  H+  H9  1  0.61918335  0.23361168  1.00823645  1
  H+  H10  1  0.61203104  0.97094693  1.01330631  1
  H+  H11  1  1.03189331  0.63410777  0.15833791  1
  H+  H12  1  0.14814253  0.26837890  0.84442433  1
  H+  H13  1  0.73256517  0.12774839  0.84948198  1
  H+  H14  1  1.02881359  0.39772323  0.81423326  1
  H+  H15  1  0.61031055  0.14578257  0.32356832  1
  H+  H16  1  0.89573970  0.29175569  0.66357245  1
  H+  H17  1  0.82686843  0.41222256  0.42740984  1
  H+  H18  1  0.63562673  0.36577533  0.98022031  1
  H+  H19  1  0.36515842  0.63781795  0.15721115  1
  H+  H20  1  0.47407512  0.62239607  0.80853556  1
  H+  H21  1  0.13138921  0.11594954  0.33066446  1
  H+  H22  1  0.38765151  0.29487606  0.98905978  1
  H+  H23  1  0.72720355  0.11994064  0.67063805  1
  H+  H24  1  0.88154938  0.52636986  0.66213168  1
  H+  H25  1  0.90982959  0.11066034  0.96260709  1
  H+  H26  1  0.22163757  0.86467453  0.17694804  1
  H+  H27  1  0.65943643  0.37766919  0.16958355  1
  H+  H28  1  0.36078199  0.69488805  0.46858992  1
  H+  H29  1  0.88547693  0.86705755  0.32859842  1
  H+  H30  1  0.60980794  0.88166540  0.46410701  1
  H+  H31  1  0.39465667  0.29668447  0.69584990  1
  H+  H32  1  0.38474818  0.54106860  0.81361689  1
  H+  H33  1  0.86214107  0.97014506  0.00409993  1
  H+  H34  1  0.21774533  0.11041130  0.00622918  1
  H+  H35  1  0.34439428  0.37222166  0.49019314  1
  H+  H36  1  0.20631105  0.35044419  0.50520108  1
  H+  H37  1  0.76562367  0.38024006  0.48560250  1
  H+  H38  1  0.49140345  0.88501399  0.53461674  1
  H+  H39  1  -0.00403233  0.88848450  0.17233031  1
  H+  H40  1  0.15308271  0.28416771  0.99352463  1
  H+  H41  1  0.13645571  0.76779646  0.99643203  1
  H+  H42  1  0.39269306  0.42998321  1.00577455  1
  H+  H43  1  0.52880584  0.64735436  0.35388838  1
  H+  H44  1  0.86316134  0.62689123  0.47938651  1
  H+  H45  1  0.91379183  0.59084603  0.94091220  1
  H+  H46  1  0.60553753  0.89574468  0.33967064  1
  H+  H47  1  0.64232951  0.25230604  0.82387383  1
  H+  H48  1  0.39790730  0.84795206  0.84355357  1
  H+  H49  1  0.64234171  0.63318147  0.49471993  1
  H+  H50  1  0.86239899  0.74794176  1.01670686  1
  H+  H51  1  0.32646435  0.69518815  0.72471989  1
  H+  H52  1  0.61256693  0.22888492  0.67045649  1
  H+  H53  1  0.41857211  0.34112954  0.43989351  1
  H+  H54  1  0.12646470  0.61016893  0.84435784  1
  H+  H55  1  0.61865879  0.09073720  0.16546503  1
  H+  H56  1  0.22282927  0.85999447  0.99697617  1
  H+  H57  1  0.13165405  0.77699495  0.17419253  1
  H+  H58  1  0.11823295  0.72217726  0.50257739  1
  H+  H59  1  0.85860362  0.71836111  0.82950137  1
  H+  H60  1  0.14000346  0.02638890  0.51178387  1
  H+  H61  1  0.88458351  0.51833073  0.49999344  1
  H+  H62  1  0.28073655  0.38856525  0.67160586  1
  H+  H63  1  1.03132154  0.63211501  0.49772795  1
  H+  H64  1  0.33250529  0.16074065  0.43702047  1
  H+  H65  1  0.22914955  0.36176354  0.84204727  1
  H+  H66  1  0.85529650  0.36333927  0.15372709  1
  H+  H67  1  0.48749788  0.11013189  1.00261776  1
  H+  H68  1  0.09280088  0.92571386  0.44154400  1
  H+  H69  1  0.88112454  0.36085832  0.49465597  1
  H+  H70  1  0.76818055  0.38930243  0.00604397  1
  H+  H71  1  0.63400903  0.51773567  0.98326116  1
  H+  H72  1  0.36675202  0.39274277  0.82780923  1
  H+  H73  1  -0.03447490  0.61687050  0.65801835  1
  H+  H74  1  0.85978242  0.37925637  0.33157218  1
  H+  H75  1  0.90428264  0.87230727  0.50948740  1
  H+  H76  1  0.97641198  0.11035361  0.49058999  1
  H+  H77  1  0.48117160  0.36099640  0.18295892  1
  H+  H78  1  0.58103467  0.39424752  0.84964050  1
  H+  H79  1  0.91051551  0.07860166  0.79226015  1
  H+  H80  1  0.50895443  0.11671488  0.16784398  1
  H+  H81  1  0.87453923  0.24328556  0.47737644  1
  H+  H82  1  0.63200916  0.60939718  0.16081040  1
  H+  H83  1  0.53617516  0.90261917  0.68336139  1
  H+  H84  1  0.63923497  0.27701201  0.31573019  1
  H+  H85  1  0.10010054  0.17994934  0.07058668  1
  H+  H86  1  0.64373975  0.12270669  0.85073193  1
  H+  H87  1  0.46175589  0.86271512  0.32302742  1
  H+  H88  1  0.46174733  0.11425541  0.31949822  1
  H+  H89  1  0.36381627  0.43606769  0.10998256  1
  H+  H90  1  0.13558294  0.51335411  -0.01189060  1
  H+  H91  1  0.37971522  0.10401368  0.17694962  1
  H+  H92  1  0.14253425  1.01395194  0.83010159  1
  H+  H93  1  0.62397375  0.25765949  0.49383981  1
  H+  H94  1  0.57033862  0.10534960  0.45924429  1
  H+  H95  1  0.97203300  0.36569044  0.49018011  1
  H+  H96  1  0.61963216  0.14558891  0.01710074  1
  H+  H97  1  0.09334785  0.43876614  0.72660330  1
  H+  H98  1  0.23075669  0.10316176  0.83975961  1
  H+  H99  1  0.87574913  0.02459480  0.70686240  1
  H+  H100  1  0.35591091  0.88466212  0.01475145  1
  H+  H101  1  0.86730029  0.17050677  0.81066473  1
  H+  H102  1  0.62786993  0.02974914  0.31564742  1
  H+  H103  1  0.88638439  0.58286741  0.16962351  1
  H+  H104  1  0.38988031  0.01713850  0.67187801  1
  H+  H105  1  0.43346989  0.06300415  0.83668134  1
  H+  H106  1  0.63627275  0.51360615  0.50816721  1
  H+  H107  1  0.96683129  0.11292102  0.70687200  1
  H+  H108  1  0.71814721  0.37843746  0.63142018  1
  H+  H109  1  0.77310142  0.62320903  0.48274655  1
  H+  H110  1  0.49373325  0.86666514  0.84459682  1
  H+  H111  1  0.76865489  0.88826538  0.33627985  1
  H+  H112  1  0.32627788  0.19733020  0.07642952  1
  H+  H113  1  0.85687862  0.47746624  0.01336966  1
  H+  H114  1  0.89435314  0.27756930  0.99865623  1
  H+  H115  1  0.71877970  0.11754151  0.31606799  1
  H+  H116  1  0.63238078  0.01604609  0.67819486  1
  H+  H117  1  0.90966664  0.57832209  0.55863451  1
  H+  H118  1  0.35610553  0.48676671  0.35430521  1
  H+  H119  1  0.32421908  0.92525132  0.41900665  1
  H+  H120  1  0.76487358  0.88593147  0.68656252  1
  H+  H121  1  0.72622835  0.85661385  0.84457352  1
  H+  H122  1  0.71685073  0.61102979  0.18466052  1
  H+  H123  1  0.12757589  0.10132653  1.00317644  1
  H+  H124  1  0.91920164  0.08151455  0.27292707  1
  H+  H125  1  0.27775791  0.60719585  0.46359186  1
  H+  H126  1  0.63861908  0.86725156  0.66536562  1
  H+  H127  1  0.35487702  0.71616570  0.81790438  1
  H+  H128  1  0.01246531  0.36726719  0.14191576  1
  H+  H129  1  0.37743690  -0.00146690  0.50903134  1
  H+  H130  1  0.38247408  0.86126646  0.17287297  1
  H+  H131  1  0.87878572  0.39761469  0.68359934  1
  H+  H132  1  0.38828101  0.76826854  0.99724713  1
  H+  H133  1  0.85378703  0.14267994  0.69085226  1
  H+  H134  1  0.36423147  0.72605719  0.15400449  1
  H+  H135  1  0.33161604  0.73360419  0.32720813  1
  H+  H136  1  0.63233238  0.85873666  0.99429577  1
  H+  H137  1  0.40228244  0.78919818  0.66315404  1
  H+  H138  1  0.27608082  0.13917088  0.49740259  1
  H+  H139  1  0.63129783  0.36831331  0.65860184  1
  H+  H140  1  0.90463129  0.69926700  0.17162390  1
  H+  H141  1  0.86568597  0.25486816  0.82804398  1
  H+  H142  1  0.09609847  0.12116606  0.68246821  1
  H+  H143  1  0.34374513  0.93924923  0.83648225  1
  H+  H144  1  0.97728181  0.84969987  0.84149640  1
  H+  H145  1  0.36441537  0.13352336  0.33813465  1
  H+  H146  1  0.51216923  0.15272293  0.84507009  1
  H+  H147  1  0.33719598  0.87007579  0.47161720  1
  H+  H148  1  0.85308124  0.13805712  0.32843290  1
  H+  H149  1  0.98568050  0.86678226  0.99869587  1
  H+  H150  1  1.03917964  0.13016629  0.83337750  1
  H+  H151  1  0.53551659  0.96409783  0.48199429  1
  H+  H152  1  0.60104867  0.93432272  0.74333838  1
  H+  H153  1  0.13737061  0.60335993  0.99373533  1
  H+  H154  1  0.64707427  0.49394561  0.14218438  1
  H+  H155  1  0.27964515  0.24249923  0.04707035  1
  H+  H156  1  0.52133577  0.38868928  0.99280363  1
  H+  H157  1  1.01160894  0.13767149  0.34422996  1
  H+  H158  1  0.87874670  1.02328407  0.33126602  1
  H+  H159  1  0.29057241  0.39860200  0.16069908  1
  H+  H160  1  0.37829722  0.89169539  0.67804695  1
  H+  H161  1  0.86994495  0.97388124  0.48043833  1
  H+  H162  1  0.36976549  0.59309930  0.51155052  1
  H+  H163  1  0.10351797  0.72353072  0.83539297  1
  H+  H164  1  0.28005524  0.14350660  0.16516197  1
  H+  H165  1  0.72033979  0.85649076  -0.00789879  1
  H+  H166  1  0.70235928  0.46623103  0.10167116  1
  H+  H167  1  0.34411999  0.10386059  0.68029317  1
  H+  H168  1  0.44394221  0.57282666  0.52890169  1
  H+  H169  1  0.33545496  0.45496317  0.50805158  1
  H+  H170  1  0.60251243  0.72282638  0.67420759  1
  H+  H171  1  0.86915076  0.76903980  0.66837595  1
  H+  H172  1  0.15620137  0.60982860  0.61449411  1
  H+  H173  1  0.85470323  0.63703433  0.67220855  1
  H+  H174  1  0.03537322  0.89685312  0.50283338  1
  H+  H175  1  0.88820755  0.84960815  0.84594935  1
  H+  H176  1  0.50172380  0.41551961  0.64338198  1
  H+  H177  1  0.61894923  0.40039692  0.31466228  1
  H+  H178  1  0.13424500  0.15324021  0.16443360  1
  H+  H179  1  0.63197729  0.11647646  0.67163988  1
  H+  H180  1  0.87955658  0.61539270  0.84535935  1
  H+  H181  1  0.15028014  0.86095991  0.65838572  1
  H+  H182  1  0.78901604  0.88206768  0.49444457  1
  H+  H183  1  0.86388820  -0.04413065  0.83446227  1
  H+  H184  1  0.90041010  0.80738565  0.17263880  1
  H+  H185  1  0.56435618  0.65244806  0.48798723  1
  H+  H186  1  0.11709154  0.89152418  0.16402854  1
  H+  H187  1  0.42311081  0.83038794  0.51465527  1
  H+  H188  1  0.47092013  0.59749377  -0.00841521  1
  H+  H189  1  0.85013385  0.15800663  0.04576232  1
  H+  H190  1  0.12635276  0.12534579  0.82907560  1
  H+  H191  1  0.36116733  0.97503539  0.01208949  1
  H+  H192  1  0.87613778  0.15242311  0.46975336  1
  H+  H193  1  0.08995418  0.66580096  0.06811653  1
  H+  H194  1  0.60975689  0.72008951  0.00117681  1
  H+  H195  1  0.22535232  0.86492778  0.50268855  1
  H+  H196  1  0.10900125  0.38815636  0.14461355  1
  H+  H197  1  0.11116872  0.87159983  0.82524903  1
  H+  H198  1  0.21804871  0.84253968  0.84333007  1
  H+  H199  1  0.36419399  0.00124985  0.33350695  1
  H+  H200  1  0.63593248  0.51712822  0.82893680  1
  H+  H201  1  0.47181080  0.85918289  0.17260569  1
  H+  H202  1  0.38046555  0.41664607  0.66253063  1
  H+  H203  1  0.90184373  0.37875502  0.85112390  1
  H+  H204  1  0.61790402  0.72746818  0.15687106  1
  H+  H205  1  0.38479814  0.61728739  0.39014349  1
  H+  H206  1  0.08946202  0.16220531  0.74616832  1
  H+  H207  1  0.87762674  0.27032677  0.31353702  1
  H+  H208  1  0.57141238  0.15952907  0.11111758  1
  H+  H209  1  0.75907340  0.63883908  0.33188290  1
  H+  H210  1  0.07084782  0.40695766  0.38369613  1
  H+  H211  1  0.29366114  0.66344352  0.65610460  1
  H+  H212  1  0.62179965  0.63809517  0.81990777  1
  H+  H213  1  0.11444996  0.97370559  0.01283042  1
  H+  H214  1  0.09790522  0.38065899  0.32253458  1
  H+  H215  1  0.58933687  0.41740551  0.04980441  1
  H+  H216  1  -0.01379922  0.38009688  0.66383941  1
  H+  H217  1  0.23512578  0.36434032  0.32723807  1
  H+  H218  1  0.35739962  0.28743747  0.67512619  1
  H+  H219  1  0.38137424  0.52403885  0.67552451  1
  H+  H220  1  0.83006804  0.91155162  0.39525597  1
  H+  H221  1  0.38263798  0.59444447  0.98964785  1
  H+  H222  1  0.15664319  0.52810751  0.64119220  1
  H+  H223  1  0.72243742  0.60733262  -0.01410198  1
  H+  H224  1  0.21207262  0.27442545  0.61797622  1
  H+  H225  1  0.27599976  0.62974955  0.00182509  1
  H+  H226  1  0.85404889  0.88667723  0.68371537  1
  H+  H227  1  0.87050543  0.88647167  0.00438776  1
  H+  H228  1  0.62932552  -0.01120602  0.83458171  1
  H+  H229  1  0.37103862  0.22969337  0.16613942  1
  H+  H230  1  0.66595318  0.38565026  0.82175783  1
  H+  H231  1  0.89009820  0.61997893  0.00253147  1
  H+  H232  1  0.63542037  0.78220671  0.32763102  1
  H+  H233  1  0.47798878  0.62190043  0.17171109  1
  H+  H234  1  0.22771518  0.88611360  0.32793974  1
  H+  H235  1  0.14400470  0.03143657  0.17649396  1
  H+  H236  1  0.47958926  0.61824699  0.67251502  1
  H+  H237  1  0.66893904  0.76778807  0.51617336  1
  H+  H238  1  0.13979093  0.25127688  0.66544912  1
  H+  H239  1  0.10068134  0.38097383  0.48145171  1
  H+  H240  1  0.09912993  0.63716269  0.69024865  1
  H+  H241  1  0.28401663  0.88207545  0.67561795  1
  H+  H242  1  0.52328702  0.38740643  0.48877095  1
  H+  H243  1  0.52326325  0.13952211  0.67685679  1
  H+  H244  1  0.96847194  0.36005889  0.31369935  1
  H+  H245  1  0.90489151  0.02220613  0.17615243  1
  H+  H246  1  0.78664987  0.38557109  0.70179349  1
  H+  H247  1  0.83043353  0.66323035  0.39572056  1
  H+  H248  1  0.27890524  0.14326052  0.34258156  1
  H+  H249  1  -0.00222483  0.34382363  -0.01377944  1
  H+  H250  1  0.39407652  0.28090497  0.83145797  1
  H+  H251  1  0.69788895  0.12833646  0.55181327  1
  H+  H252  1  0.76162170  0.13080077  0.49993020  1
  H+  H253  1  0.03819005  0.16196784  0.01430668  1
  H+  H254  1  0.86683081  0.90016805  0.15930839  1
  H+  H255  1  0.62160472  0.48099146  0.67801332  1
  H+  H256  1  0.31708477  0.41770974  0.40701566  1
  H+  H257  1  0.75531949  0.38582138  0.83480792  1
  H+  H258  1  0.63186348  0.61105264  0.65956350  1
  H+  H259  1  0.72133746  0.11884325  1.01734947  1
  H+  H260  1  0.12011124  0.39839255  0.67088846  1
  H+  H261  1  0.15034893  0.29125924  0.16704784  1
  H+  H262  1  0.76643118  0.62956284  0.82497080  1
  H+  H263  1  0.90160499  0.08048465  0.53884806  1
  H+  H264  1  0.11423336  0.73004869  0.67437957  1
  H+  H265  1  0.62894377  0.89790199  0.83014118  1
  H+  H266  1  0.05656033  0.88020134  0.61726077  1
  H+  H267  1  0.11073522  0.47366957  0.47135124  1
  H+  H268  1  0.23656872  0.63119368  0.17073507  1
  H+  H269  1  0.74193555  0.36186034  0.17247952  1
  H+  H270  1  0.14711988  0.61061488  0.48746691  1
  H+  H271  1  0.86198879  0.73330209  0.33742455  1
  H+  H272  1  0.82831737  0.17549464  0.38519719  1
  H+  H273  1  -0.02721687  0.62211819  0.84867242  1
  H+  H274  1  0.95810773  0.85710840  0.66866582  1
  H+  H275  1  0.57209269  0.86656853  0.48615887  1
  H+  H276  1  0.73325135  0.36590690  0.32002921  1
  H+  H277  1  0.89202570  0.49741053  0.16847025  1
  H+  H278  1  0.86510634  0.46942557  0.33583616  1
  H+  H279  1  0.12807834  0.65195009  0.16191365  1
  H+  H280  1  0.88088883  0.49556292  0.84043640  1
  H+  H281  1  0.16751315  0.61070646  0.33765745  1
  H+  H282  1  0.02754267  0.63462589  1.01053939  1
  H+  H283  1  0.04564064  0.15062979  0.16457823  1
  H+  H284  1  0.20432015  0.08764286  0.66609338  1
  H+  H285  1  0.11192341  0.88165915  0.00994488  1
  H+  H286  1  0.12262029  0.38360976  -0.00428245  1
  H+  H287  1  0.67028026  0.57816874  0.56690040  1
  H+  H288  1  0.13444748  0.11273998  0.51031407  1
  H+  H289  1  0.07784119  0.89236944  0.76391368  1
  H+  H290  1  0.67355286  0.83246296  0.61078325  1
  H+  H291  1  0.66288036  0.83919889  0.26749528  1
  H+  H292  1  0.58582760  0.41569021  0.73437055  1
  H+  H293  1  0.39284425  0.61874448  0.31896309  1
  H+  H294  1  0.66020661  0.07192461  0.22121733  1
  H+  H295  1  0.39608433  0.36579648  0.17796788  1
  H+  H296  1  0.96648155  0.15460433  0.60673415  1
  H+  H297  1  0.16161023  0.84885241  0.27281763  1
  H+  H298  1  0.82630880  0.89666266  0.77696118  1
  H+  H299  1  0.15433762  0.07750809  0.60285766  1
  H+  H300  1  0.45650840  0.86246741  0.61002040  1
  H+  H301  1  0.40007279  0.07546494  0.24291517  1
  H+  H302  1  0.40537346  0.58462433  0.61448226  1
  H+  H303  1  0.10164116  0.96524859  0.65596040  1
  H+  H304  1  0.39224129  0.27562357  0.35632001  1
  H+  H305  1  0.57653539  0.17548022  0.38105982  1
  H+  H306  1  0.58626320  0.66807509  0.09645676  1
  H+  H307  1  0.77537574  0.70645784  0.05260056  1
  H+  H308  1  0.84779111  0.67287747  0.11104994  1
  H+  H309  1  0.07970665  0.16249291  0.43391784  1
  H+  H310  1  0.60878418  0.38111865  0.49106766  1
  H+  H311  1  0.57675198  0.90174617  0.10386149  1
  H+  H312  1  0.02844467  0.89796677  0.34993656  1
  H+  H313  1  0.92717923  0.84658529  0.27235306  1
  H+  H314  1  0.16978871  0.08841864  0.23777536  1
  H+  H315  1  0.06829026  0.66834862  0.77454741  1
  H+  H316  1  0.43541538  0.08569216  0.94150283  1
  H+  H317  1  0.60568750  -0.03389646  0.16128224  1
  H+  H318  1  0.64726608  0.53632763  0.31320988  1
  H+  H319  1  0.37932122  0.26864511  0.48971787  1
  H+  H320  1  0.40613948  0.83368220  0.26233869  1
  H+  H321  1  0.16399247  0.57976880  0.89920769  1
  H+  H322  1  0.46035356  0.02366885  0.54545130  1
  H+  H323  1  0.35773648  0.90374092  0.33383428  1
  H+  H324  1  0.18503215  0.57206757  0.53478046  1
  H+  H325  1  0.14470294  0.32015849  0.56230959  1
  H+  H326  1  0.42327614  0.34326876  0.92424209  1
  H+  H327  1  0.57674709  0.94583219  0.38771123  1
  H+  H328  1  0.39040495  0.36447312  0.35192361  1
  H+  H329  1  0.48064932  0.37325214  0.82482867  1
  H+  H330  1  0.61187042  0.63215347  1.00021258  1
  H+  H331  1  0.32210048  0.76377060  0.53129133  1
  H+  H332  1  0.41164021  0.07064351  0.61074181  1
  H+  H333  1  0.17381934  0.35697673  0.22108299  1
  H+  H334  1  0.13606160  0.02982502  0.33281308  1
  H+  H335  1  0.33019550  0.15231091  0.77502977  1
  H+  H336  1  0.64874777  0.31289497  0.55494888  1
  H+  H337  1  0.58026637  0.66420600  0.73362988  1
  H+  H338  1  0.82638917  0.20242633  0.09826396  1
  H+  H339  1  0.19487402  0.63334369  0.23380525  1
  H+  H340  1  0.17985960  0.83146216  0.60011546  1
  H+  H341  1  0.08022549  0.40795754  0.05331107  1
  H+  H342  1  0.63042023  0.85891159  0.17363535  1
  H+  H343  1  0.32625093  0.91712093  0.10979874  1
  H+  H344  1  0.11404811  0.48940437  0.81728533  1
  H+  H345  1  0.10364524  0.22547331  0.34334625  1
  H+  H346  1  0.93571541  0.56811376  0.25645210  1
  H+  H347  1  0.83286980  0.92207624  0.09914993  1
  H+  H348  1  0.64583643  0.62532373  0.32467299  1
  H+  H349  1  0.66477334  0.58048884  0.88842792  1
  H+  H350  1  0.16212324  0.82582624  0.90477805  1
  H+  H351  1  0.32920068  0.89651083  0.77094651  1
  H+  H352  1  0.82584804  0.40341884  0.09724720  1
  H+  H353  1  0.63084104  1.04006813  0.48001780  1
  H+  H354  1  0.93035723  0.32838229  0.90051119  1
  H+  H355  1  0.90756845  0.32066222  0.22490855  1
  H+  H356  1  0.72371897  0.61679356  0.66284085  1
  H+  H357  1  0.98140377  0.03387503  0.21573233  1
  H+  H358  1  0.86387781  0.43969691  0.77889376  1
  H+  H359  1  0.20289165  0.28790253  0.28180504  1
  H+  H360  1  0.65868415  0.84950789  0.51544045  1
  H+  H361  1  0.33389781  0.41791456  0.76938260  1
  H+  H362  1  0.61993230  0.72770274  0.82271506  1
  H+  H363  1  0.82128587  0.18980976  0.73298659  1
  H+  H364  1  0.67482174  0.09051523  0.95186905  1
  H+  H365  1  0.17377106  0.33573977  0.93075835  1
  H+  H366  1  0.53387877  0.40132492  0.33288792  1
  H+  H367  1  0.97813050  0.11972014  0.60636249  1
  H+  H368  1  0.39379718  0.53340596  0.17823550  1
  H+  H369  1  0.94662821  0.20849221  0.97985672  1
  H+  H370  1  0.67566754  0.34088093  0.92453730  1
  H+  H371  1  0.65990243  0.82879803  0.89967463  1
  H+  H372  1  0.42431481  0.83139154  0.94072891  1
  H+  H373  1  0.92526694  0.83184912  0.93788686  1
  H+  H374  1  0.60787033  0.67893292  0.39903567  1
  H+  H375  1  0.67910969  0.34193969  0.23988843  1
  H+  H376  1  0.82722413  0.66324112  0.73496905  1
  H+  H377  1  0.91890886  0.84391443  0.57471297  1
  H+  H378  1  0.25526918  0.64981195  0.81574343  1
  H+  H379  1  0.08877496  0.92145882  0.10304017  1
  H+  H380  1  0.88734029  0.08603038  0.86251844  1
  H+  H381  1  0.44640247  0.38828442  0.58321834  1
  H+  H382  1  0.33466038  0.65970069  0.06120090  1
  H+  H383  1  0.60033463  0.18268187  0.77009239  1
  O2-  O384  1  0.10518260  0.18507433  0.14914370  1
  O2-  O385  1  0.07736120  0.15911700  0.47964159  1
  O2-  O386  1  0.09736332  0.15989813  0.81616114  1
  O2-  O387  1  0.07001462  0.40493656  0.12510089  1
  O2-  O388  1  0.07435256  0.41121247  0.46088789  1
  O2-  O389  1  0.08276703  0.43558257  0.79259058  1
  O2-  O390  1  0.09047350  0.67478736  0.14378697  1
  O2-  O391  1  0.09458306  0.66054716  0.49362402  1
  O2-  O392  1  0.06891978  0.66307932  0.81933093  1
  O2-  O393  1  0.08900148  0.92531053  0.14871304  1
  O2-  O394  1  0.09621639  0.92580916  0.48724014  1
  O2-  O395  1  0.07914819  0.89936591  0.80792908  1
  O2-  O396  1  0.33827854  0.17112159  0.14676943  1
  O2-  O397  1  0.33571820  0.16892715  0.48223691  1
  O2-  O398  1  0.33994644  0.16930348  0.81849027  1
  O2-  O399  1  0.35344554  0.42512141  0.15514059  1
  O2-  O400  1  0.30762922  0.40026252  0.48509571  1
  O2-  O401  1  0.33228682  0.41907062  0.81408379  1
  O2-  O402  1  0.33419354  0.66600712  0.13842977  1
  O2-  O403  1  0.34185485  0.63335377  0.46013015  1
  O2-  O404  1  0.30348286  0.69689348  0.79274567  1
  O2-  O405  1  0.32534932  0.91201017  0.15482613  1
  O2-  O406  1  0.32028763  0.91412709  0.46595811  1
  O2-  O407  1  0.32132401  0.88443146  0.81590531  1
  O2-  O408  1  0.56984015  0.14508447  0.15445725  1
  O2-  O409  1  0.56098673  0.15573712  0.46078209  1
  O2-  O410  1  0.60695409  0.18861208  0.81490110  1
  O2-  O411  1  0.64689149  0.44131620  0.12207668  1
  O2-  O412  1  0.58630298  0.42047379  0.48322043  1
  O2-  O413  1  0.59330910  0.42451903  0.81092491  1
  O2-  O414  1  0.58831815  0.66711202  0.14193568  1
  O2-  O415  1  0.62455851  0.67682488  0.47758990  1
  O2-  O416  1  0.59460853  0.67060600  0.80278560  1
  O2-  O417  1  0.57528921  0.90162250  0.14908123  1
  O2-  O418  1  0.57561788  1.01127569  0.45507266  1
  O2-  O419  1  0.60189372  0.93146003  0.81415134  1
  O2-  O420  1  0.85489000  0.22584305  0.16786630  1
  O2-  O421  1  0.84331126  0.18138349  0.45939475  1
  O2-  O422  1  0.82881908  0.19382714  0.80899764  1
  O2-  O423  1  0.82848253  0.39955686  0.14370854  1
  O2-  O424  1  0.82657623  0.41377381  0.47287398  1
  O2-  O425  1  0.85853919  0.43543000  0.82404767  1
  O2-  O426  1  0.84880439  0.65849367  0.15475874  1
  O2-  O427  1  0.82958413  0.65241283  0.46228764  1
  O2-  O428  1  0.82922324  0.65960107  0.81133139  1
  O2-  O429  1  0.83322318  0.92670241  0.14424607  1
  O2-  O430  1  0.84346226  0.91128580  0.47097512  1
  O2-  O431  1  0.83031060  0.89447076  0.82262862  1
  O2-  O432  1  0.17235032  0.09153059  0.19212050  1
  O2-  O433  1  0.16591987  0.08618363  0.52931731  1
  O2-  O434  1  0.16796849  0.07251568  0.84663267  1
  O2-  O435  1  0.17769651  0.35381203  0.17672337  1
  O2-  O436  1  0.14406524  0.32238776  0.51752377  1
  O2-  O437  1  0.16985601  0.32766940  0.85850239  1
  O2-  O438  1  0.18088861  0.61529163  0.19115616  1
  O2-  O439  1  0.17777401  0.57592313  0.49045938  1
  O2-  O440  1  0.16130686  0.58294255  0.85353201  1
  O2-  O441  1  0.15945833  0.83771248  0.18905518  1
  O2-  O442  1  0.17006677  0.83539211  0.52611947  1
  O2-  O443  1  0.15896252  0.82267822  0.85878901  1
  O2-  O444  1  0.40278273  0.06952131  0.19542983  1
  O2-  O445  1  0.42148155  0.04529970  0.53650821  1
  O2-  O446  1  0.44996063  0.11647466  0.85780195  1
  O2-  O447  1  0.42033108  0.32911708  0.19237794  1
  O2-  O448  1  0.40929272  0.33456438  0.48555921  1
  O2-  O449  1  0.42291840  0.34194252  0.84481250  1
  O2-  O450  1  0.41947990  0.59519042  0.18912296  1
  O2-  O451  1  0.38700739  0.56007367  0.54158381  1
  O2-  O452  1  0.41337265  0.60099499  0.79940574  1
  O2-  O453  1  0.41087775  0.82883130  0.18740374  1
  O2-  O454  1  0.36160789  0.78592568  0.49694331  1
  O2-  O455  1  0.43618112  0.83027201  0.86256980  1
  O2-  O456  1  0.65117739  0.06044630  0.17705774  1
  O2-  O457  1  0.70843860  0.09170806  0.52492057  1
  O2-  O458  1  0.67353505  0.09234352  0.86591426  1
  O2-  O459  1  0.68108825  0.34181946  0.19008170  1
  O2-  O460  1  0.65541309  0.31714633  0.51043332  1
  O2-  O461  1  0.69122475  0.35308602  0.84160892  1
  O2-  O462  1  0.65757244  0.57275516  0.17259183  1
  O2-  O463  1  0.67085190  0.57659504  0.52149861  1
  O2-  O464  1  0.66801486  0.58194962  0.84329739  1
  O2-  O465  1  0.66402388  0.83136985  0.18979958  1
  O2-  O466  1  0.69231303  0.82668803  0.53474925  1
  O2-  O467  1  0.66408144  0.83260682  0.85410768  1
  O2-  O468  1  0.95368971  0.06557438  0.20175522  1
  O2-  O469  1  0.91133163  0.07998433  0.49527988  1
  O2-  O470  1  0.91981516  0.06877820  0.83662025  1
  O2-  O471  1  0.90594708  0.31601096  0.17853521  1
  O2-  O472  1  0.91244768  0.33024387  0.50573220  1
  O2-  O473  1  0.92580637  0.33946526  0.85616072  1
  O2-  O474  1  0.92258088  0.55899494  0.18288912  1
  O2-  O475  1  0.91665471  0.57937543  0.51397776  1
  O2-  O476  1  0.91278679  0.59084097  0.86581289  1
  O2-  O477  1  0.93438005  0.86524656  0.18897468  1
  O2-  O478  1  0.93972896  0.85378989  0.53234458  1
  O2-  O479  1  0.91951255  0.82023779  0.86109946  1
  O2-  O480  1  0.16398881  0.08919144  0.31455950  1
  O2-  O481  1  0.14608462  0.06677841  0.64842996  1
  O2-  O482  1  0.15809965  0.06913720  0.99459455  1
  O2-  O483  1  0.18222338  0.32092487  0.30402527  1
  O2-  O484  1  0.18247277  0.30026184  0.63864171  1
  O2-  O485  1  0.17450739  0.34199604  0.97661101  1
  O2-  O486  1  0.20991736  0.66256138  0.31637781  1
  O2-  O487  1  0.19124843  0.58265229  0.61678736  1
  O2-  O488  1  0.16729631  0.57532479  0.97493369  1
  O2-  O489  1  0.16525331  0.85710016  0.31734137  1
  O2-  O490  1  0.18033420  0.82959808  0.64642449  1
  O2-  O491  1  0.16285496  0.82802248  0.98018942  1
  O2-  O492  1  0.40007728  0.08344476  0.31029605  1
  O2-  O493  1  0.41484617  0.07757819  0.65601000  1
  O2-  O494  1  0.42924422  0.07244224  0.98504601  1
  O2-  O495  1  0.42562057  0.33946327  0.36483620  1
  O2-  O496  1  0.46031639  0.42468427  0.61914509  1
  O2-  O497  1  0.42863357  0.35016472  0.96923900  1
  O2-  O498  1  0.41027575  0.60114256  0.35582384  1
  O2-  O499  1  0.41420411  0.58676197  0.65982968  1
  O2-  O500  1  0.41379201  0.56677500  0.97190156  1
  O2-  O501  1  0.40165273  0.83471776  0.30807466  1
  O2-  O502  1  0.44395217  0.85606865  0.65407479  1
  O2-  O503  1  0.41876454  0.83088754  0.98595526  1
  O2-  O504  1  0.65822360  0.09029450  0.30135622  1
  O2-  O505  1  0.66277854  0.08390232  0.66021776  1
  O2-  O506  1  0.66492232  0.08312028  0.99621207  1
  O2-  O507  1  0.67415689  0.33942373  0.30117029  1
  O2-  O508  1  0.65887528  0.33529028  0.64023417  1
  O2-  O509  1  0.66925403  0.33697583  0.96937160  1
  O2-  O510  1  0.68205859  0.60161156  0.31027240  1
  O2-  O511  1  0.66418273  0.58264522  0.64581460  1
  O2-  O512  1  0.66428198  0.57960427  0.96896136  1
  O2-  O513  1  0.66395694  0.84278227  0.31317465  1
  O2-  O514  1  0.66483621  0.83156132  0.65573531  1
  O2-  O515  1  0.66104804  0.82760400  0.97638084  1
  O2-  O516  1  0.91018179  0.08470853  0.31724053  1
  O2-  O517  1  0.90486700  0.08664845  0.71930376  1
  O2-  O518  1  0.93883398  0.15141751  0.99515522  1
  O2-  O519  1  0.90736685  0.33106397  0.29794061  1
  O2-  O520  1  0.92348921  0.35401768  0.65673881  1
  O2-  O521  1  0.94037947  0.29429898  0.96814393  1
  O2-  O522  1  0.93527419  0.57306731  0.30277941  1
  O2-  O523  1  0.90559818  0.58417188  0.64317827  1
  O2-  O524  1  0.91652681  0.58815751  0.98665250  1
  O2-  O525  1  0.91868612  0.83805644  0.31679690  1
  O2-  O526  1  0.89742305  0.83143426  0.65621435  1
  O2-  O527  1  0.92387249  0.83786604  0.98327286  1
  O2-  O528  1  0.09668043  0.17439534  0.02544563  1
  O2-  O529  1  0.07261240  0.16595648  0.35923380  1
  O2-  O530  1  0.07662964  0.15946640  0.70037370  1
  O2-  O531  1  0.08428556  0.40936976  0.00726396  1
  O2-  O532  1  0.06682547  0.40778617  0.33840476  1
  O2-  O533  1  0.09768394  0.43679193  0.67882827  1
  O2-  O534  1  0.08893113  0.66394990  0.02221043  1
  O2-  O535  1  0.01100619  0.58506028  0.32381647  1
  O2-  O536  1  0.07254213  0.67270221  0.69295968  1
  O2-  O537  1  0.08105508  0.91056433  0.02649782  1
  O2-  O538  1  0.08855673  0.93131726  0.36420377  1
  O2-  O539  1  0.07420789  0.90006803  0.65899810  1
  O2-  O540  1  0.31154870  0.21381732  0.03601721  1
  O2-  O541  1  0.33776193  0.16832283  0.35875239  1
  O2-  O542  1  0.30564136  0.12507587  0.69688305  1
  O2-  O543  1  0.37883189  0.45904229  0.03817856  1
  O2-  O544  1  0.32542535  0.42383620  0.36206714  1
  O2-  O545  1  0.33945445  0.42807429  0.68662509  1
  O2-  O546  1  0.33684092  0.66053835  0.01561990  1
  O2-  O547  1  0.29133408  0.67117708  0.33789741  1
  O2-  O548  1  0.34430625  0.70290980  0.68006631  1
  O2-  O549  1  0.32446129  0.91433061  0.02734656  1
  O2-  O550  1  0.33103259  0.93549288  0.35138795  1
  O2-  O551  1  0.34195714  0.91482971  0.69504382  1
  O2-  O552  1  0.58927202  0.17703885  0.02876463  1
  O2-  O553  1  0.58392710  0.18120258  0.33638992  1
  O2-  O554  1  0.58537806  0.17051484  0.68884613  1
  O2-  O555  1  0.58489146  0.41781682  0.00501173  1
  O2-  O556  1  0.59041899  0.43498147  0.31293845  1
  O2-  O557  1  0.58817173  0.41858156  0.68856191  1
  O2-  O558  1  0.58350371  0.66168389  0.01917738  1
  O2-  O559  1  0.59237479  0.67657950  0.35540456  1
  O2-  O560  1  0.57204118  0.66142669  0.68707652  1
  O2-  O561  1  0.58404968  0.90864574  0.02330706  1
  O2-  O562  1  0.57143389  0.92490708  0.34548351  1
  O2-  O563  1  0.59916564  0.93650843  0.69660973  1
  O2-  O564  1  0.81606732  0.18594586  0.05303800  1
  O2-  O565  1  0.82341779  0.17033047  0.33966073  1
  O2-  O566  1  0.82281118  0.17571489  0.68888879  1
  O2-  O567  1  0.82425116  0.41746850  0.02775912  1
  O2-  O568  1  0.82962000  0.40901660  0.34913666  1
  O2-  O569  1  0.84738327  0.42862418  0.70082318  1
  O2-  O570  1  0.81943922  0.69358280  0.03911995  1
  O2-  O571  1  0.82809681  0.67071679  0.34852934  1
  O2-  O572  1  0.82526227  0.66708945  0.68937556  1
  O2-  O573  1  0.83456166  0.91165842  0.01951066  1
  O2-  O574  1  0.83025290  0.91719794  0.34984795  1
  O2-  O575  1  0.82460119  0.91563696  0.70339447  1
