# generated using pymatgen
data_H2O
_symmetry_space_group_name_H-M   'P 1'
_cell_length_a   17.97211405
_cell_length_b   17.97380813
_cell_length_c   21.98371703
_cell_angle_alpha   89.97013588
_cell_angle_beta   90.02872047
_cell_angle_gamma   120.03971423
_symmetry_Int_Tables_number   1
_chemical_formula_structural   H2O
_chemical_formula_sum   'H384 O192'
_cell_volume   6147.47838321
_cell_formula_units_Z   192
loop_
 _symmetry_equiv_pos_site_id
 _symmetry_equiv_pos_as_xyz
  1  'x, y, z'
loop_
 _atom_type_symbol
 _atom_type_oxidation_number
  H+  1.0
  O2-  -2.0
loop_
 _atom_site_type_symbol
 _atom_site_label
 _atom_site_symmetry_multiplicity
 _atom_site_fract_x
 _atom_site_fract_y
 _atom_site_fract_z
 _atom_site_occupancy
  H+  H0  1  0.89772796  0.88210449  0.31742265  1
  H+  H1  1  0.14197738  0.27629229  0.83556062  1
  H+  H2  1  0.18846814  0.88463620  0.66460386  1
  H+  H3  1  0.27236643  0.88761036  0.01231621  1
  H+  H4  1  0.28390655  0.16155298  0.35632151  1
  H+  H5  1  0.85690041  0.49385177  0.67329304  1
  H+  H6  1  0.36397609  0.23345687  0.15213907  1
  H+  H7  1  0.62224626  0.86299956  0.17913597  1
  H+  H8  1  0.11451712  0.97345268  -0.01083866  1
  H+  H9  1  0.12698606  0.16120521  0.35453074  1
  H+  H10  1  0.87978693  0.28439395  0.81222926  1
  H+  H11  1  0.12865476  0.39205091  0.67711249  1
  H+  H12  1  0.38722720  0.02685518  1.00362232  1
  H+  H13  1  0.48006150  0.10170637  0.81762711  1
  H+  H14  1  0.61244038  0.62443125  0.49370421  1
  H+  H15  1  0.61010267  0.89978166  0.76550044  1
  H+  H16  1  0.51100274  0.37352823  0.33633988  1
  H+  H17  1  0.15244103  0.05292568  0.34301856  1
  H+  H18  1  0.39207672  0.60517839  0.49057874  1
  H+  H19  1  0.36226457  0.98374614  0.16495096  1
  H+  H20  1  0.53006466  0.38502974  0.49376588  1
  H+  H21  1  0.14425905  0.36722597  0.83200980  1
  H+  H22  1  0.62365216  0.77483307  0.17465715  1
  H+  H23  1  0.00182536  0.72811954  0.39570222  1
  H+  H24  1  -0.03879899  0.85692544  0.51842030  1
  H+  H25  1  0.36141088  0.90070572  0.49657717  1
  H+  H26  1  0.83709886  0.60828671  0.65863152  1
  H+  H27  1  0.62039810  0.72490273  -0.01402786  1
  H+  H28  1  0.11300409  0.38241823  0.34581600  1
  H+  H29  1  0.67237790  0.59607927  0.24874141  1
  H+  H30  1  0.88642434  0.89308454  0.82170199  1
  H+  H31  1  0.87837829  0.41587425  0.67240506  1
  H+  H32  1  0.93093489  0.34363308  0.60680067  1
  H+  H33  1  0.59044476  0.15615564  0.64072598  1
  H+  H34  1  0.31449065  0.64388034  0.64032088  1
  H+  H35  1  0.61507006  0.22310747  0.33867013  1
  H+  H36  1  0.38746670  0.12374184  0.16846539  1
  H+  H37  1  0.71887476  0.11652832  0.17714689  1
  H+  H38  1  0.74847112  0.09415839  0.01501311  1
  H+  H39  1  0.64920939  0.36643816  0.47960796  1
  H+  H40  1  -0.01280267  0.10145340  0.67025116  1
  H+  H41  1  0.12487617  0.64646070  0.15637354  1
  H+  H42  1  0.17769500  0.33529455  0.61474016  1
  H+  H43  1  0.62516650  0.50786007  0.83606856  1
  H+  H44  1  0.63064568  -0.03660181  0.70612728  1
  H+  H45  1  0.73409913  0.36207299  0.49001174  1
  H+  H46  1  0.52082334  0.38029063  0.81781687  1
  H+  H47  1  0.35909035  0.72307599  0.86462164  1
  H+  H48  1  0.47536103  0.36293414  1.01638064  1
  H+  H49  1  0.27806525  0.37676147  0.49633588  1
  H+  H50  1  0.13413782  0.11458306  0.95799631  1
  H+  H51  1  0.72829616  0.37081341  0.98599559  1
  H+  H52  1  0.24442949  0.62222873  0.16142064  1
  H+  H53  1  0.49519415  0.85127553  0.86300570  1
  H+  H54  1  0.39594445  0.52133028  0.68990267  1
  H+  H55  1  0.61637095  0.88353903  0.33606728  1
  H+  H56  1  0.63626962  0.85108669  0.67331815  1
  H+  H57  1  0.05672348  0.12908549  0.52220553  1
  H+  H58  1  0.31162459  0.89868425  0.65841252  1
  H+  H59  1  0.38361097  0.77213368  1.00762039  1
  H+  H60  1  0.37468633  0.72673891  0.33012925  1
  H+  H61  1  0.79107242  0.86171555  0.84353720  1
  H+  H62  1  0.43757433  0.44678596  0.91392764  1
  H+  H63  1  0.39148613  0.73106844  0.66764822  1
  H+  H64  1  0.86370194  0.21977634  0.15141305  1
  H+  H65  1  0.27024928  0.89653650  0.50165436  1
  H+  H66  1  0.58206645  0.80031854  0.82815154  1
  H+  H67  1  0.47848376  0.86844298  0.49206180  1
  H+  H68  1  0.76452261  0.62456973  0.14285251  1
  H+  H69  1  0.87037572  0.88484441  -0.00881106  1
  H+  H70  1  0.76729517  0.15824965  0.80193971  1
  H+  H71  1  0.49567626  0.86398039  0.71161792  1
  H+  H72  1  0.52527898  0.88035641  0.33388159  1
  H+  H73  1  0.64068123  0.52986048  0.51644295  1
  H+  H74  1  0.12588166  0.60799254  0.37569463  1
  H+  H75  1  0.37639824  0.39398806  0.67146100  1
  H+  H76  1  0.85553803  0.62819557  0.14584079  1
  H+  H77  1  0.14861106  0.13649975  0.19663366  1
  H+  H78  1  0.27261534  0.80040087  0.38453419  1
  H+  H79  1  0.37279672  0.49748109  0.15915616  1
  H+  H80  1  0.40495550  0.61473732  0.32546375  1
  H+  H81  1  0.63118050  0.01776337  0.32162608  1
  H+  H82  1  0.62607026  0.10374007  0.32517266  1
  H+  H83  1  0.53232128  0.63164235  0.33788422  1
  H+  H84  1  0.50744763  0.15075910  0.66728758  1
  H+  H85  1  0.88608891  0.52075785  0.52688304  1
  H+  H86  1  0.10257535  0.88705192  0.15584794  1
  H+  H87  1  0.50981804  0.61318006  0.48394340  1
  H+  H88  1  0.86519153  0.39919862  0.82256345  1
  H+  H89  1  0.11630033  0.47626124  1.00412589  1
  H+  H90  1  0.61713266  0.23525087  1.00315575  1
  H+  H91  1  0.86450920  0.18294396  0.63506433  1
  H+  H92  1  0.64021026  0.12533327  0.99518137  1
  H+  H93  1  0.74383373  0.85697748  0.95870655  1
  H+  H94  1  1.03299611  0.13134460  0.98179912  1
  H+  H95  1  0.88455867  -0.01652085  0.14630511  1
  H+  H96  1  0.60561688  0.98405347  0.16544731  1
  H+  H97  1  0.38451342  0.08568554  0.82135009  1
  H+  H98  1  0.99583158  0.38238334  0.15973671  1
  H+  H99  1  0.41705419  0.83001046  0.54975505  1
  H+  H100  1  0.49880262  0.61484365  0.69527519  1
  H+  H101  1  0.61327071  0.14659179  0.16068312  1
  H+  H102  1  0.14640616  0.13363223  0.50821230  1
  H+  H103  1  0.14135693  1.00628632  0.49657987  1
  H+  H104  1  0.11922906  0.23888515  0.17399593  1
  H+  H105  1  0.88704870  0.11210961  0.18813448  1
  H+  H106  1  0.12249651  0.22223202  -0.01816971  1
  H+  H107  1  0.93664191  0.79547019  0.82639858  1
  H+  H108  1  0.42859114  0.33782641  0.59737178  1
  H+  H109  1  0.62477110  0.63818525  0.33411335  1
  H+  H110  1  0.38057212  0.34185296  0.49529941  1
  H+  H111  1  0.86780880  0.96832704  0.48951463  1
  H+  H112  1  0.62459069  0.23031325  0.47996215  1
  H+  H113  1  0.73751856  0.08560932  0.66195060  1
  H+  H114  1  0.89745736  0.00766561  0.66743293  1
  H+  H115  1  0.11910022  0.47200889  0.34590714  1
  H+  H116  1  0.73381228  0.35942146  0.31760467  1
  H+  H117  1  0.14070471  0.61694557  0.50135077  1
  H+  H118  1  0.47340201  0.87002035  0.17248719  1
  H+  H119  1  0.89095274  0.77168189  0.98488943  1
  H+  H120  1  0.63119450  0.62249100  0.16357218  1
  H+  H121  1  0.53321166  0.14683991  0.49554111  1
  H+  H122  1  0.36192131  0.38944541  0.33590683  1
  H+  H123  1  0.49128231  0.38122376  0.65519669  1
  H+  H124  1  0.99141958  0.37119379  0.51470703  1
  H+  H125  1  0.53647112  0.32025502  0.37821074  1
  H+  H126  1  0.52895842  0.64107654  -0.00130942  1
  H+  H127  1  1.01097494  0.64075275  0.82401500  1
  H+  H128  1  0.27152464  0.13244029  -0.00886116  1
  H+  H129  1  -0.02788869  0.86044185  0.69213469  1
  H+  H130  1  0.15083349  0.38306391  0.17561685  1
  H+  H131  1  0.39216484  0.35558986  0.82393130  1
  H+  H132  1  0.98606748  0.62298166  0.16977858  1
  H+  H133  1  0.38201396  0.86636364  0.17402298  1
  H+  H134  1  0.99338741  0.23498230  0.45279498  1
  H+  H135  1  0.77125564  0.88754268  0.49109962  1
  H+  H136  1  0.11187210  0.78837852  0.33298044  1
  H+  H137  1  0.90543310  0.16791352  0.41995115  1
  H+  H138  1  0.87868920  0.53287580  0.83507111  1
  H+  H139  1  0.11542763  0.13788795  0.83967677  1
  H+  H140  1  0.63764829  0.29269896  0.65615390  1
  H+  H141  1  0.51448623  0.63855216  0.15219107  1
  H+  H142  1  0.72468513  0.36867673  0.83299971  1
  H+  H143  1  0.38849346  0.61520229  -0.00209584  1
  H+  H144  1  0.90214388  0.79648117  0.31528559  1
  H+  H145  1  0.63613043  0.10654229  0.51104677  1
  H+  H146  1  0.72869206  0.61835112  -0.01934392  1
  H+  H147  1  0.38915844  0.52610890  0.99897608  1
  H+  H148  1  0.38419964  0.04640876  0.50612021  1
  H+  H149  1  0.36619100  0.22473537  0.44342066  1
  H+  H150  1  0.35852991  0.13118170  1.00480200  1
  H+  H151  1  0.40485170  0.09657959  0.60176418  1
  H+  H152  1  0.38631827  0.04317414  0.32723768  1
  H+  H153  1  0.22309740  0.86832807  0.17571115  1
  H+  H154  1  0.18259414  0.58980569  0.55529988  1
  H+  H155  1  0.77548632  0.39713923  0.15980629  1
  H+  H156  1  0.66072822  0.09706699  0.68322907  1
  H+  H157  1  0.39704426  0.52266605  0.32829190  1
  H+  H158  1  0.36067972  0.88709244  0.01857768  1
  H+  H159  1  0.91082010  0.32728412  1.08074519  1
  H+  H160  1  0.47769614  0.37177920  0.16690947  1
  H+  H161  1  0.61870844  0.39329866  0.00162094  1
  H+  H162  1  0.53264047  0.66491949  0.83631037  1
  H+  H163  1  0.88273727  0.28714330  0.38355644  1
  H+  H164  1  0.71712986  0.60727765  0.83361829  1
  H+  H165  1  0.31400747  0.89326916  0.41105889  1
  H+  H166  1  0.13361642  0.77234322  0.51520491  1
  H+  H167  1  0.38516390  0.85241491  0.32482363  1
  H+  H168  1  -0.00437777  0.65782732  0.35047808  1
  H+  H169  1  0.18462130  0.61784630  0.65433579  1
  H+  H170  1  1.03021895  0.38546098  1.01725311  1
  H+  H171  1  0.11887242  0.73277311  0.15888926  1
  H+  H172  1  0.64247939  0.28407636  0.16965613  1
  H+  H173  1  0.89493330  0.02064142  0.83509439  1
  H+  H174  1  0.16568404  0.52256272  0.65143316  1
  H+  H175  1  0.63401216  0.36548222  0.83262469  1
  H+  H176  1  0.24665947  0.83998350  0.83824268  1
  H+  H177  1  0.11868921  0.01286286  0.86738338  1
  H+  H178  1  0.02812127  0.39083069  0.81750626  1
  H+  H179  1  0.89165427  0.89956690  0.13704871  1
  H+  H180  1  0.92025147  0.33035660  0.20821259  1
  H+  H181  1  0.21254707  0.61656666  0.85197310  1
  H+  H182  1  0.21098585  0.85629739  0.33055182  1
  H+  H183  1  0.60016173  0.67969742  0.74614559  1
  H+  H184  1  0.60643216  0.97196856  0.48939009  1
  H+  H185  1  0.28420269  0.38950301  0.67903000  1
  H+  H186  1  0.41756254  0.87048267  0.85109315  1
  H+  H187  1  0.07053286  0.89161692  0.68588107  1
  H+  H188  1  0.91765967  0.08725680  0.24811199  1
  H+  H189  1  0.77841938  0.89746099  0.33425667  1
  H+  H190  1  0.47467880  0.11641368  -0.00021442  1
  H+  H191  1  0.61647219  0.23387724  0.81762139  1
  H+  H192  1  0.58554205  0.42614912  0.43567949  1
  H+  H193  1  0.63311089  0.53293648  0.16484209  1
  H+  H194  1  0.25813507  0.59813883  0.31372777  1
  H+  H195  1  0.16441977  0.14978649  0.59743868  1
  H+  H196  1  0.35329657  0.15243944  0.67240979  1
  H+  H197  1  0.48003174  0.12536189  0.33054084  1
  H+  H198  1  0.34505179  0.66793639  0.39132526  1
  H+  H199  1  0.76688315  0.88086937  0.67831144  1
  H+  H200  1  0.06774586  0.67364341  0.44714277  1
  H+  H201  1  0.63786178  0.86758797  0.50680176  1
  H+  H202  1  0.64602912  0.77862060  0.32579772  1
  H+  H203  1  0.06697810  0.65549401  0.66731419  1
  H+  H204  1  0.37286531  0.16116290  0.35134078  1
  H+  H205  1  0.07913082  0.57973075  0.36817342  1
  H+  H206  1  0.61831153  0.48222820  1.00222668  1
  H+  H207  1  0.19660854  0.06657895  0.54979387  1
  H+  H208  1  0.87333050  0.85670043  0.51437470  1
  H+  H209  1  0.87858696  0.10955600  0.66336320  1
  H+  H210  1  0.62844631  0.50005068  0.67272445  1
  H+  H211  1  0.26952142  0.11965073  0.83391111  1
  H+  H212  1  0.63729018  0.61639467  0.98383020  1
  H+  H213  1  0.80066643  0.39171402  0.57677489  1
  H+  H214  1  0.10202060  0.79395290  0.66357931  1
  H+  H215  1  0.89947940  0.30729181  0.67451326  1
  H+  H216  1  0.27244420  0.63446460  0.00714026  1
  H+  H217  1  0.43680974  0.87939849  0.66718461  1
  H+  H218  1  0.64297365  0.03742364  0.84040239  1
  H+  H219  1  0.89503786  1.01420288  -0.01864026  1
  H+  H220  1  0.12621004  0.49490256  0.15495873  1
  H+  H221  1  0.72875529  0.37694692  0.66554593  1
  H+  H222  1  0.11743558  0.91098661  0.33950782  1
  H+  H223  1  0.37107775  0.72626287  0.48272959  1
  H+  H224  1  0.38739204  0.26246402  0.82502345  1
  H+  H225  1  0.13981269  0.36096932  0.98860773  1
  H+  H226  1  0.80615650  0.70790244  0.66435002  1
  H+  H227  1  0.84022213  0.63138560  0.81659907  1
  H+  H228  1  0.09906948  0.42881778  0.09817520  1
  H+  H229  1  0.14328714  0.27602438  0.67500354  1
  H+  H230  1  0.86368210  0.64169947  -0.00938672  1
  H+  H231  1  0.24145772  0.38475386  0.17681626  1
  H+  H232  1  0.62330543  0.40758681  0.66804265  1
  H+  H233  1  0.52150351  0.88937850  1.01864724  1
  H+  H234  1  0.38682977  0.96320385  0.80097260  1
  H+  H235  1  0.86284902  0.47939949  0.32203941  1
  H+  H236  1  0.38817875  0.51289982  0.49451511  1
  H+  H237  1  0.28111585  0.63872571  0.48313485  1
  H+  H238  1  1.03291818  0.14862277  0.17938038  1
  H+  H239  1  0.38468313  0.27337296  1.01403936  1
  H+  H240  1  0.86618840  0.40033600  0.15316054  1
  H+  H241  1  0.88271932  0.61959889  0.31705518  1
  H+  H242  1  0.03617336  0.15720350  0.35373026  1
  H+  H243  1  0.85686358  0.62414601  0.48276061  1
  H+  H244  1  0.66426168  0.83448665  0.26432931  1
  H+  H245  1  0.78427273  0.65447793  0.32316697  1
  H+  H246  1  0.63904105  0.76530192  0.66471546  1
  H+  H247  1  0.27452851  0.39098983  0.00584112  1
  H+  H248  1  0.23144942  0.15040694  0.64809975  1
  H+  H249  1  0.88943436  0.09797491  -0.00922839  1
  H+  H250  1  0.14828338  0.76989877  0.83775499  1
  H+  H251  1  0.04443795  0.40328834  0.67194953  1
  H+  H252  1  0.11689090  0.14394359  0.67916589  1
  H+  H253  1  0.01927567  0.63331548  0.50849910  1
  H+  H254  1  0.88610389  0.03098749  0.34334553  1
  H+  H255  1  0.37715251  0.63448051  0.15719454  1
  H+  H256  1  0.46740355  0.43953334  0.93353885  1
  H+  H257  1  0.77495200  0.63494328  0.48323456  1
  H+  H258  1  0.13164079  0.60950609  0.99648813  1
  H+  H259  1  0.61871730  0.39727574  0.15981478  1
  H+  H260  1  0.14168823  0.28303961  0.33139065  1
  H+  H261  1  0.38617349  0.28491459  0.32149393  1
  H+  H262  1  0.36736471  0.03884968  0.66252977  1
  H+  H263  1  0.02430855  0.13351741  0.83119299  1
  H+  H264  1  0.39029578  0.37563285  0.16767313  1
  H+  H265  1  0.82791368  0.43127902  0.06352315  1
  H+  H266  1  0.63514065  0.87448973  0.87278666  1
  H+  H267  1  0.28475530  0.38719053  0.83044224  1
  H+  H268  1  0.35297336  0.63247170  0.85683478  1
  H+  H269  1  0.65470817  0.53602405  0.30720453  1
  H+  H270  1  0.82517218  0.90466597  0.73974567  1
  H+  H271  1  0.11691981  0.72770341  0.00365685  1
  H+  H272  1  0.36262801  0.39101200  0.02004767  1
  H+  H273  1  0.79282982  0.64802307  0.75934002  1
  H+  H274  1  0.86075980  0.39377357  1.01333558  1
  H+  H275  1  0.89136427  0.53290938  0.98648505  1
  H+  H276  1  0.63951929  0.12375597  0.83313662  1
  H+  H277  1  0.36556251  0.24523914  0.67747722  1
  H+  H278  1  0.85577927  0.84159014  0.66687461  1
  H+  H279  1  0.40889636  0.62319371  0.67349719  1
  H+  H280  1  0.97421285  0.36862337  0.37705440  1
  H+  H281  1  0.14208672  0.86279571  -0.01279213  1
  H+  H282  1  0.09688126  0.87396606  0.48952831  1
  H+  H283  1  0.64227932  0.35543010  0.32429056  1
  H+  H284  1  1.02989546  0.91201526  0.33618498  1
  H+  H285  1  0.39975123  0.53083452  0.84707266  1
  H+  H286  1  0.14664327  0.35669109  0.51805774  1
  H+  H287  1  0.42371915  0.58724080  0.90784715  1
  H+  H288  1  0.59099538  0.17728828  0.75670553  1
  H+  H289  1  0.95597472  0.86267319  0.20708714  1
  H+  H290  1  0.33295326  0.42855542  0.10376415  1
  H+  H291  1  0.62947957  0.63952174  0.68699021  1
  H+  H292  1  0.58543099  0.64988742  0.42375260  1
  H+  H293  1  0.65850691  0.57551635  0.90003352  1
  H+  H294  1  0.93459414  0.06953105  0.56745681  1
  H+  H295  1  0.32397303  0.16537545  0.09767701  1
  H+  H296  1  0.39037019  0.88461738  0.76224610  1
  H+  H297  1  0.59085851  0.17953109  0.06499138  1
  H+  H298  1  0.52625047  0.15034023  0.15763146  1
  H+  H299  1  0.07848986  0.91806453  0.09586426  1
  H+  H300  1  0.34336582  0.41757271  0.77150017  1
  H+  H301  1  0.42566711  0.59393361  0.21845363  1
  H+  H302  1  0.58284070  0.16313913  0.39893788  1
  H+  H303  1  0.82656197  0.65975208  0.05076979  1
  H+  H304  1  0.47304183  0.98663906  0.61528402  1
  H+  H305  1  0.82924620  0.17530392  0.74418611  1
  H+  H306  1  0.28394050  0.25573853  0.92599502  1
  H+  H307  1  0.15828451  0.83514952  0.23189671  1
  H+  H308  1  0.66925092  0.84029333  0.56614830  1
  H+  H309  1  0.31048923  0.91858993  0.72782676  1
  H+  H310  1  0.67701102  0.59906928  0.57166403  1
  H+  H311  1  0.58825986  0.42555932  0.76280290  1
  H+  H312  1  0.58036638  0.92527174  0.10544850  1
  H+  H313  1  0.92644179  0.24568287  0.27857330  1
  H+  H314  1  0.41956700  0.10102462  0.22974183  1
  H+  H315  1  0.77007100  0.02910817  0.04690763  1
  H+  H316  1  0.52260593  0.54882022  0.59777794  1
  H+  H317  1  0.15110218  0.84077610  0.56827583  1
  H+  H318  1  0.67127083  0.09656003  0.93519900  1
  H+  H319  1  0.86394040  0.37863605  0.53279305  1
  H+  H320  1  0.67232744  0.33868160  0.23089810  1
  H+  H321  1  0.25653793  0.61198340  0.73569092  1
  H+  H322  1  0.92619622  0.59546388  0.26272024  1
  H+  H323  1  0.41543307  0.34196670  0.25884272  1
  H+  H324  1  0.49789145  0.50110177  0.59386288  1
  H+  H325  1  0.41561840  0.83269954  0.26033464  1
  H+  H326  1  0.18797712  0.11726704  0.28592161  1
  H+  H327  1  0.88894478  0.81547799  0.60622938  1
  H+  H328  1  0.02825166  0.88500727  -0.00309952  1
  H+  H329  1  0.04256466  0.90480543  0.77945483  1
  H+  H330  1  0.60550358  0.98008090  0.01074984  1
  H+  H331  1  0.98150820  0.62090737  0.98714580  1
  H+  H332  1  0.58436530  0.67568748  0.09629883  1
  H+  H333  1  0.65591490  0.08536573  0.23506412  1
  H+  H334  1  0.91062705  0.59535177  0.89266621  1
  H+  H335  1  0.12618365  0.47958340  0.49674309  1
  H+  H336  1  0.09659992  0.63241731  0.82155719  1
  H+  H337  1  0.83485715  0.67108027  0.38581319  1
  H+  H338  1  0.58047525  0.91351825  0.42790451  1
  H+  H339  1  0.05769880  0.67844625  0.73583810  1
  H+  H340  1  0.09760625  0.42995046  0.76435308  1
  H+  H341  1  0.08576166  0.16503125  0.74345101  1
  H+  H342  1  0.93625951  0.63203737  0.66984209  1
  H+  H343  1  0.65527301  0.06466941  0.56876599  1
  H+  H344  1  0.27309017  0.39108641  0.33970571  1
  H+  H345  1  0.93272438  0.11632797  0.50488611  1
  H+  H346  1  0.18622404  0.58716325  0.22096771  1
  H+  H347  1  0.32986957  0.40438027  0.43187296  1
  H+  H348  1  0.91350264  0.27880825  0.51013587  1
  H+  H349  1  0.63789869  0.73428804  0.84723899  1
  H+  H350  1  0.42034345  0.83769642  0.95251540  1
  H+  H351  1  0.31615469  0.15329469  0.76959090  1
  H+  H352  1  0.09467056  0.41517984  0.44150757  1
  H+  H353  1  0.88225743  0.26742764  1.02371016  1
  H+  H354  1  0.33293675  0.66181894  0.06729592  1
  H+  H355  1  0.22370325  0.51293002  0.27649309  1
  H+  H356  1  0.89518583  0.53586160  0.17083608  1
  H+  H357  1  0.29545321  0.62143952  0.75409042  1
  H+  H358  1  0.17161084  0.34368268  0.26967421  1
  H+  H359  1  0.12801266  0.52617826  0.83941344  1
  H+  H360  1  0.92132823  0.08153751  0.89207069  1
  H+  H361  1  0.88073564  0.23647374  0.27579850  1
  H+  H362  1  0.86621292  0.39741120  0.34880220  1
  H+  H363  1  0.32952310  0.92151706  0.10708579  1
  H+  H364  1  0.17319921  0.33967215  0.92677196  1
  H+  H365  1  0.18031199  0.83111013  0.93285898  1
  H+  H366  1  0.66727878  0.33743822  0.92670605  1
  H+  H367  1  0.90459062  0.59423505  0.57281669  1
  H+  H368  1  0.91466516  0.32484924  0.87771659  1
  H+  H369  1  0.26411113  0.26735006  0.90040993  1
  H+  H370  1  0.59065293  0.42444065  0.09844538  1
  H+  H371  1  0.15540292  0.57928369  0.93535020  1
  H+  H372  1  0.84290817  0.91937521  0.04864674  1
  H+  H373  1  0.15436712  0.27052009  0.52774118  1
  H+  H374  1  0.39941775  0.14275738  0.51002293  1
  H+  H375  1  0.83540706  0.43150180  0.76520348  1
  H+  H376  1  0.08473271  0.66998355  0.06405164  1
  H+  H377  1  0.93275094  0.83402555  0.92714899  1
  H+  H378  1  0.43123301  0.94918337  0.60424806  1
  H+  H379  1  0.36885858  0.72496660  0.15609446  1
  H+  H380  1  0.81991971  0.13693933  0.10790550  1
  H+  H381  1  0.23433445  0.13138210  0.19044971  1
  H+  H382  1  0.83262513  0.91679285  0.39600459  1
  H+  H383  1  0.06919901  0.91192789  0.43277373  1
  O2-  O384  1  0.09257232  0.17734407  0.16366229  1
  O2-  O385  1  0.12038043  0.16676224  0.52620236  1
  O2-  O386  1  0.08813089  0.16718814  0.81934613  1
  O2-  O387  1  0.09293430  0.43161906  0.14340788  1
  O2-  O388  1  0.09530933  0.41684682  0.48728752  1
  O2-  O389  1  0.09109355  0.42330207  0.80945681  1
  O2-  O390  1  0.09026923  0.67254366  0.14221205  1
  O2-  O391  1  0.07876948  0.66525397  0.49038405  1
  O2-  O392  1  0.06984487  0.66612944  0.80571471  1
  O2-  O393  1  0.07962950  0.92372310  0.14077542  1
  O2-  O394  1  0.06478409  0.90342308  0.47810937  1
  O2-  O395  1  0.04733670  0.90408549  0.82669635  1
  O2-  O396  1  0.33333951  0.17088544  0.14256166  1
  O2-  O397  1  0.37095504  0.22543083  0.48942201  1
  O2-  O398  1  0.32588510  0.14687915  0.81333923  1
  O2-  O399  1  0.33886246  0.43160788  0.14901662  1
  O2-  O400  1  0.33633984  0.40195129  0.47732020  1
  O2-  O401  1  0.34588309  0.41845159  0.81665415  1
  O2-  O402  1  0.34026510  0.66490958  0.14107532  1
  O2-  O403  1  0.34203646  0.66541970  0.46879389  1
  O2-  O404  1  0.31814888  0.66121636  0.85927694  1
  O2-  O405  1  0.33027488  0.92192798  0.15299020  1
  O2-  O406  1  0.32930609  0.92978570  0.48348101  1
  O2-  O407  1  0.35566374  0.89916330  0.78958599  1
  O2-  O408  1  0.58731539  0.18043934  0.14337096  1
  O2-  O409  1  0.59050107  0.16510781  0.47808591  1
  O2-  O410  1  0.59156532  0.17352472  0.80153381  1
  O2-  O411  1  0.58695635  0.42556072  0.14392686  1
  O2-  O412  1  0.58956192  0.42669328  0.48077776  1
  O2-  O413  1  0.58573525  0.42003845  0.80834117  1
  O2-  O414  1  0.57983567  0.67106530  0.14101580  1
  O2-  O415  1  0.57584338  0.64435498  0.47055547  1
  O2-  O416  1  0.58596352  0.71113970  0.81681013  1
  O2-  O417  1  0.57486807  0.92298696  0.15125751  1
  O2-  O418  1  0.57351812  0.91135949  0.47349396  1
  O2-  O419  1  0.59325264  0.86000655  0.83959054  1
  O2-  O420  1  0.82764731  0.15693840  0.15110196  1
  O2-  O421  1  0.93249288  0.19869323  0.46233509  1
  O2-  O422  1  0.81194316  0.20305729  0.77543849  1
  O2-  O423  1  0.83452756  0.42964323  0.14080887  1
  O2-  O424  1  0.82921346  0.40764974  0.53716386  1
  O2-  O425  1  0.83263428  0.42839339  0.81072907  1
  O2-  O426  1  0.81191939  0.62738159  0.11816388  1
  O2-  O427  1  0.82583720  0.64680406  0.45902039  1
  O2-  O428  1  0.80331109  0.65582280  0.80397743  1
  O2-  O429  1  0.86314782  0.93165382  0.12113719  1
  O2-  O430  1  0.83030245  0.90966568  0.47294532  1
  O2-  O431  1  0.83899157  0.90520561  0.81594548  1
  O2-  O432  1  0.18404609  0.11449099  0.21682121  1
  O2-  O433  1  0.18905382  0.06594989  0.50567472  1
  O2-  O434  1  0.16071966  0.07426263  0.87672670  1
  O2-  O435  1  0.18073954  0.35477030  0.19390808  1
  O2-  O436  1  0.18161626  0.33399589  0.53677984  1
  O2-  O437  1  0.17512023  0.33817234  0.84798292  1
  O2-  O438  1  0.18179746  0.59440488  0.17651139  1
  O2-  O439  1  0.17673862  0.59004317  0.51030104  1
  O2-  O440  1  0.14798234  0.58490282  0.85592471  1
  O2-  O441  1  0.16087240  0.83362789  0.18674744  1
  O2-  O442  1  0.16314329  0.83521517  0.52461135  1
  O2-  O443  1  0.19115767  0.82514045  0.85631788  1
  O2-  O444  1  0.41993704  0.09567771  0.18497430  1
  O2-  O445  1  0.41991890  0.10394387  0.52488318  1
  O2-  O446  1  0.41898928  0.05662890  0.82170981  1
  O2-  O447  1  0.41732361  0.34148969  0.18227498  1
  O2-  O448  1  0.41702319  0.31618932  0.50962270  1
  O2-  O449  1  0.42604177  0.32552022  0.82546988  1
  O2-  O450  1  0.42088305  0.59275595  0.17398699  1
  O2-  O451  1  0.42328302  0.57541765  0.50420827  1
  O2-  O452  1  0.42570464  0.59082864  0.86201409  1
  O2-  O453  1  0.41218290  0.83511087  0.18758616  1
  O2-  O454  1  0.41461612  0.83655995  0.50595331  1
  O2-  O455  1  0.43645088  0.83743187  0.87589310  1
  O2-  O456  1  0.65744558  0.09041934  0.18843513  1
  O2-  O457  1  0.65839165  0.06834026  0.52430087  1
  O2-  O458  1  0.67405785  0.09838212  0.85058966  1
  O2-  O459  1  0.67415153  0.34463620  0.18536508  1
  O2-  O460  1  0.67772385  0.33330176  0.46923666  1
  O2-  O461  1  0.66387054  0.33406368  0.84719908  1
  O2-  O462  1  0.66429872  0.59404699  0.17892935  1
  O2-  O463  1  0.66911417  0.59226958  0.52631044  1
  O2-  O464  1  0.65565918  0.57098745  0.85243863  1
  O2-  O465  1  0.65108543  0.83203716  0.19472516  1
  O2-  O466  1  0.67445816  0.84464082  0.52146151  1
  O2-  O467  1  0.71732616  0.78541908  0.88603639  1
  O2-  O468  1  0.92149074  0.08704080  0.20326627  1
  O2-  O469  1  0.94394126  0.07171335  0.52284402  1
  O2-  O470  1  0.92524847  0.08213808  0.84676382  1
  O2-  O471  1  0.92986776  0.34587776  0.16514544  1
  O2-  O472  1  0.93205266  0.33374764  0.53182148  1
  O2-  O473  1  0.91861734  0.34041632  0.83491252  1
  O2-  O474  1  0.92645228  0.59565352  0.18676107  1
  O2-  O475  1  0.91511895  0.58450374  0.52972241  1
  O2-  O476  1  0.90579774  0.59480507  0.84708563  1
  O2-  O477  1  0.94009376  0.84418855  0.16421154  1
  O2-  O478  1  0.90381734  0.83210986  0.53739635  1
  O2-  O479  1  0.95624685  0.85236135  0.84461042  1
  O2-  O480  1  0.18720658  0.11516019  0.33299220  1
  O2-  O481  1  0.17160640  0.11839612  0.63194318  1
  O2-  O482  1  0.16442719  0.07762764  0.94413449  1
  O2-  O483  1  0.17128693  0.34488986  0.31545156  1
  O2-  O484  1  0.17711490  0.33736730  0.66045129  1
  O2-  O485  1  0.17129747  0.33300947  0.97203299  1
  O2-  O486  1  0.20523207  0.55186575  0.29217494  1
  O2-  O487  1  0.20069513  0.58145667  0.63175442  1
  O2-  O488  1  0.16000102  0.57737934  0.98062536  1
  O2-  O489  1  0.15513217  0.84224754  0.31217991  1
  O2-  O490  1  0.13113482  0.85232308  0.64502763  1
  O2-  O491  1  0.17319306  0.83080499  0.97817145  1
  O2-  O492  1  0.41887378  0.10338466  0.31529072  1
  O2-  O493  1  0.40436183  0.09862392  0.64743909  1
  O2-  O494  1  0.41363685  0.08630231  0.98735668  1
  O2-  O495  1  0.41715489  0.34488317  0.30477793  1
  O2-  O496  1  0.42946558  0.34697845  0.64173057  1
  O2-  O497  1  0.41231066  0.33642368  1.01971069  1
  O2-  O498  1  0.43376681  0.58239246  0.31248161  1
  O2-  O499  1  0.43109449  0.58683032  0.69562965  1
  O2-  O500  1  0.42133850  0.58701312  0.98338823  1
  O2-  O501  1  0.41869368  0.82844557  0.30651202  1
  O2-  O502  1  0.43315512  0.84380616  0.70200850  1
  O2-  O503  1  0.41420743  0.83512165  0.99760036  1
  O2-  O504  1  0.65649419  0.07716716  0.30533819  1
  O2-  O505  1  0.67287569  0.05692913  0.66170946  1
  O2-  O506  1  0.66756156  0.09142664  0.98000631  1
  O2-  O507  1  0.66955030  0.32407987  0.30736244  1
  O2-  O508  1  0.67339260  0.35326809  0.64341024  1
  O2-  O509  1  0.66728211  0.33846947  0.97216714  1
  O2-  O510  1  0.67792280  0.59591303  0.29559639  1
  O2-  O511  1  0.68328076  0.60410278  0.65232773  1
  O2-  O512  1  0.66642124  0.58465547  0.96742269  1
  O2-  O513  1  0.67213460  0.83834730  0.31094130  1
  O2-  O514  1  0.66585425  0.82592081  0.65024491  1
  O2-  O515  1  0.68926527  0.82286952  0.93471317  1
  O2-  O516  1  0.92044383  0.09513697  0.33382004  1
  O2-  O517  1  0.92958479  0.06701415  0.64951141  1
  O2-  O518  1  0.92428144  0.07752677  0.96990596  1
  O2-  O519  1  0.91434755  0.34906033  0.39017028  1
  O2-  O520  1  0.93505325  0.35974758  0.65137199  1
  O2-  O521  1  0.91324387  0.32767771  1.03590718  1
  O2-  O522  1  0.91801169  0.59159883  0.30823750  1
  O2-  O523  1  0.88132392  0.59079176  0.64966536  1
  O2-  O524  1  0.92203998  0.59205221  0.96928593  1
  O2-  O525  1  0.93349759  0.85764811  0.30278290  1
  O2-  O526  1  0.87662780  0.80228884  0.65190221  1
  O2-  O527  1  0.92580370  0.83369785  0.97164376  1
  O2-  O528  1  0.09664200  0.15870107  -0.01415326  1
  O2-  O529  1  0.09709786  0.19374190  0.36516327  1
  O2-  O530  1  0.08340872  0.16963352  0.69795180  1
  O2-  O531  1  0.09330742  0.41661415  0.02168462  1
  O2-  O532  1  0.08664193  0.41488388  0.36531384  1
  O2-  O533  1  0.10517404  0.43166355  0.68609076  1
  O2-  O534  1  0.08308923  0.66652634  0.01843980  1
  O2-  O535  1  0.03696161  0.70539901  0.37932581  1
  O2-  O536  1  0.04624789  0.68685559  0.69139023  1
  O2-  O537  1  0.08996374  0.91737294  0.00998394  1
  O2-  O538  1  0.08719516  0.93910866  0.35781375  1
  O2-  O539  1  0.02939163  0.90020033  0.71057488  1
  O2-  O540  1  0.32348211  0.15915364  0.01672401  1
  O2-  O541  1  0.34793792  0.19571002  0.36739364  1
  O2-  O542  1  0.32589897  0.18442759  0.68928201  1
  O2-  O543  1  0.33223371  0.42520711  0.02499961  1
  O2-  O544  1  0.33354054  0.41873673  0.35620055  1
  O2-  O545  1  0.34614962  0.42161419  0.69170200  1
  O2-  O546  1  0.33314762  0.66456094  0.02116462  1
  O2-  O547  1  0.34781727  0.66612687  0.34589671  1
  O2-  O548  1  0.37801504  0.67871967  0.64435799  1
  O2-  O549  1  0.33086704  0.91899500  0.03140329  1
  O2-  O550  1  0.30079035  0.86034680  0.37153827  1
  O2-  O551  1  0.29726669  0.93215351  0.68597383  1
  O2-  O552  1  0.59060193  0.17551076  0.01953793  1
  O2-  O553  1  0.57715383  0.16279355  0.35361486  1
  O2-  O554  1  0.57149939  0.17803181  0.67427106  1
  O2-  O555  1  0.59139654  0.42398253  0.02089843  1
  O2-  O556  1  0.56099299  0.37780828  0.36077024  1
  O2-  O557  1  0.59258033  0.43701352  0.68458690  1
  O2-  O558  1  0.59170011  0.67033354  0.00915781  1
  O2-  O559  1  0.59271905  0.66279767  0.35539941  1
  O2-  O560  1  0.59170197  0.66423069  0.70171342  1
  O2-  O561  1  0.58329469  0.92365959  0.03057025  1
  O2-  O562  1  0.58399174  0.91208903  0.35172319  1
  O2-  O563  1  0.59837179  0.90313287  0.72150082  1
  O2-  O564  1  0.79582234  0.09030527  0.03754805  1
  O2-  O565  1  0.86898653  0.12861856  0.36065946  1
  O2-  O566  1  0.84456957  0.14230677  0.66875020  1
  O2-  O567  1  0.83137221  0.42729158  0.01802480  1
  O2-  O568  1  0.83334466  0.41565550  0.32235958  1
  O2-  O569  1  0.83784215  0.43365044  0.68784965  1
  O2-  O570  1  0.83089129  0.66973376  0.00478212  1
  O2-  O571  1  0.84312559  0.68185924  0.34071080  1
  O2-  O572  1  0.77234178  0.64473516  0.67944272  1
  O2-  O573  1  0.83788565  0.91460217  0.00247865  1
  O2-  O574  1  0.83845247  0.92731410  0.35083896  1
  O2-  O575  1  0.82736003  0.90902753  0.69417543  1
