# generated using pymatgen
data_H2O
_symmetry_space_group_name_H-M   'P 1'
_cell_length_a   17.98736322
_cell_length_b   17.98287443
_cell_length_c   21.99538549
_cell_angle_alpha   89.99526994
_cell_angle_beta   90.02081897
_cell_angle_gamma   120.00531894
_symmetry_Int_Tables_number   1
_chemical_formula_structural   H2O
_chemical_formula_sum   'H384 O192'
_cell_volume   6161.20294910
_cell_formula_units_Z   192
loop_
 _symmetry_equiv_pos_site_id
 _symmetry_equiv_pos_as_xyz
  1  'x, y, z'
loop_
 _atom_type_symbol
 _atom_type_oxidation_number
  H+  1.0
  O2-  -2.0
loop_
 _atom_site_type_symbol
 _atom_site_label
 _atom_site_symmetry_multiplicity
 _atom_site_fract_x
 _atom_site_fract_y
 _atom_site_fract_z
 _atom_site_occupancy
  H+  H0  1  0.22654543  0.86088172  0.83707855  1
  H+  H1  1  0.88053894  0.10977191  0.83625532  1
  H+  H2  1  0.60242077  0.38708614  0.83989915  1
  H+  H3  1  0.12957783  0.01743488  0.85045773  1
  H+  H4  1  0.52768698  0.89089131  0.82010211  1
  H+  H5  1  0.11493887  0.77839702  0.64572574  1
  H+  H6  1  0.10898936  0.73044820  0.81979231  1
  H+  H7  1  0.87745135  0.27918647  0.51690556  1
  H+  H8  1  0.87836086  0.23100949  0.16788106  1
  H+  H9  1  0.39048327  0.83146309  0.99251420  1
  H+  H10  1  0.84722729  0.71948879  0.68048373  1
  H+  H11  1  0.14959741  0.25926283  0.84791612  1
  H+  H12  1  0.09267104  -0.02952659  0.69090622  1
  H+  H13  1  0.38530141  0.52512779  0.65351728  1
  H+  H14  1  0.28362428  0.39983120  0.81256449  1
  H+  H15  1  0.78518720  0.64548821  0.35857089  1
  H+  H16  1  0.65938936  0.83249261  0.23404596  1
  H+  H17  1  0.61151588  0.48019907  0.83516967  1
  H+  H18  1  0.35719730  0.96377165  0.80494795  1
  H+  H19  1  0.47393143  0.77663285  0.20776202  1
  H+  H20  1  0.88924974  0.62147667  0.51143530  1
  H+  H21  1  0.88559046  0.60593337  0.33249631  1
  H+  H22  1  0.94787079  0.34017792  0.87632321  1
  H+  H23  1  0.33141307  0.86064137  0.65815714  1
  H+  H24  1  0.47318647  0.14057829  0.65585672  1
  H+  H25  1  0.78935031  0.91289057  0.00648843  1
  H+  H26  1  0.39697484  0.62080910  0.50913609  1
  H+  H27  1  0.14629350  0.33353701  0.59800901  1
  H+  H28  1  0.60921775  0.14159196  0.82029182  1
  H+  H29  1  0.90376243  0.45679962  1.01245542  1
  H+  H30  1  0.17158675  0.83524188  0.89930547  1
  H+  H31  1  0.34193240  0.94054508  0.10345394  1
  H+  H32  1  0.79959068  0.43824313  0.75682479  1
  H+  H33  1  0.86290944  0.27092286  0.66642568  1
  H+  H34  1  0.87745773  0.54433546  0.82973072  1
  H+  H35  1  0.51307359  0.63064199  0.35115597  1
  H+  H36  1  0.04230190  0.66973181  0.49529275  1
  H+  H37  1  0.37929793  0.28326793  0.83457654  1
  H+  H38  1  0.09971321  0.91666028  0.26331673  1
  H+  H39  1  0.56811130  0.17974142  0.44222303  1
  H+  H40  1  0.84599518  0.38591753  0.67953472  1
  H+  H41  1  0.59785398  0.13717466  0.35411563  1
  H+  H42  1  0.10668808  0.87564568  0.16482568  1
  H+  H43  1  0.15006708  0.27868283  0.32685022  1
  H+  H44  1  0.45158122  0.12890567  -0.00678801  1
  H+  H45  1  0.58747965  0.86952947  0.35235096  1
  H+  H46  1  0.74507954  0.08368814  -0.01915164  1
  H+  H47  1  0.67782096  0.84312492  0.93086896  1
  H+  H48  1  0.38010509  0.01770454  0.34262593  1
  H+  H49  1  0.34116512  0.14436189  0.67546977  1
  H+  H50  1  0.24959663  0.40577355  0.34972119  1
  H+  H51  1  0.97382207  0.86259419  0.17430818  1
  H+  H52  1  0.71226356  0.37008831  0.84491867  1
  H+  H53  1  0.14308704  0.13567666  0.48133269  1
  H+  H54  1  0.88101350  0.60588430  0.17214879  1
  H+  H55  1  0.21816459  0.60443871  0.17416913  1
  H+  H56  1  0.89554345  0.55548440  0.98045371  1
  H+  H57  1  0.10310582  0.62590530  0.15819704  1
  H+  H58  1  0.37725226  0.21953282  0.33673510  1
  H+  H59  1  0.35297915  0.88922622  0.15987113  1
  H+  H60  1  0.87323168  0.13639966  0.36633154  1
  H+  H61  1  0.16259746  0.56905510  1.02514113  1
  H+  H62  1  0.20704611  0.10484033  0.67512667  1
  H+  H63  1  0.35878558  0.72070955  0.50909996  1
  H+  H64  1  0.64410762  0.53280258  0.49682346  1
  H+  H65  1  0.89863863  0.88861430  -0.00028034  1
  H+  H66  1  0.12718110  0.10701462  0.84727839  1
  H+  H67  1  0.38692946  0.61470499  0.65857115  1
  H+  H68  1  0.72243810  0.11485922  0.83100948  1
  H+  H69  1  0.10800816  0.62521014  0.34020272  1
  H+  H70  1  0.91932775  1.03495540  0.33000094  1
  H+  H71  1  1.01282141  0.62314952  0.15779029  1
  H+  H72  1  0.85843981  0.97532043  0.68469058  1
  H+  H73  1  0.36879965  0.21302635  0.16734633  1
  H+  H74  1  0.97692858  0.62472886  0.82754340  1
  H+  H75  1  0.67156748  0.32620905  0.94034008  1
  H+  H76  1  0.64459063  0.03496001  0.15112505  1
  H+  H77  1  0.73967022  0.63258586  0.50237761  1
  H+  H78  1  0.23875076  0.33102282  1.01957084  1
  H+  H79  1  0.97609831  0.11777161  0.67117742  1
  H+  H80  1  0.62092998  0.73387849  0.50209981  1
  H+  H81  1  0.29856795  0.30359074  0.36492842  1
  H+  H82  1  0.87059420  0.21549346  0.81991610  1
  H+  H83  1  0.87989471  0.51407027  0.32917189  1
  H+  H84  1  0.27556444  0.63924561  0.34616273  1
  H+  H85  1  0.48834533  0.85282464  0.99099311  1
  H+  H86  1  0.73534523  0.13750016  0.50749888  1
  H+  H87  1  0.72287863  0.86219928  0.66758219  1
  H+  H88  1  0.11966381  0.76111957  0.16960796  1
  H+  H89  1  0.77907753  0.89645590  0.16367606  1
  H+  H90  1  0.63858409  0.62662028  0.50282125  1
  H+  H91  1  0.85011880  0.05327060  0.99744963  1
  H+  H92  1  0.68998490  0.84957103  0.33990759  1
  H+  H93  1  0.13893561  0.02053991  0.17476858  1
  H+  H94  1  0.38728816  0.62535058  0.33192097  1
  H+  H95  1  0.14163432  0.52131709  0.33606694  1
  H+  H96  1  0.97913775  0.35955651  0.19267530  1
  H+  H97  1  0.63018549  0.27471636  0.33218301  1
  H+  H98  1  0.85828984  0.46407897  0.16804470  1
  H+  H99  1  0.13270125  0.96983121  0.54423854  1
  H+  H100  1  0.61726363  0.49279370  0.67887794  1
  H+  H101  1  0.53442032  0.89372536  0.16029886  1
  H+  H102  1  0.06442237  0.43915704  0.01662530  1
  H+  H103  1  0.15246017  0.81473838  0.23083029  1
  H+  H104  1  1.05489460  0.13570552  0.47253648  1
  H+  H105  1  0.61107993  0.75701633  0.33393075  1
  H+  H106  1  0.61378487  0.02421648  0.51240324  1
  H+  H107  1  0.13361903  0.61572297  0.65346880  1
  H+  H108  1  0.80502785  0.28956212  0.04434401  1
  H+  H109  1  0.63834394  0.86626746  0.83668806  1
  H+  H110  1  0.11544065  0.10215284  -0.00490194  1
  H+  H111  1  0.14098245  0.78289950  -0.00358351  1
  H+  H112  1  0.38496074  0.71482497  -0.00322310  1
  H+  H113  1  0.36426706  0.39550937  0.65577453  1
  H+  H114  1  -0.01744588  0.34541267  0.02860750  1
  H+  H115  1  0.15122754  0.27730702  0.17544337  1
  H+  H116  1  0.13098332  0.51502244  0.17841748  1
  H+  H117  1  0.58163144  0.90864364  0.06440622  1
  H+  H118  1  0.37739249  0.85008562  0.32588125  1
  H+  H119  1  0.52342309  0.63717103  -0.00554650  1
  H+  H120  1  0.53374815  0.39391226  0.33233692  1
  H+  H121  1  0.36634302  0.48836168  0.49929316  1
  H+  H122  1  0.39564974  0.52604189  0.81812778  1
  H+  H123  1  0.37869666  0.72814559  0.82617800  1
  H+  H124  1  0.73591766  0.86798387  0.51214519  1
  H+  H125  1  0.87106419  0.20579789  1.00351065  1
  H+  H126  1  0.79902901  0.14971234  0.13868916  1
  H+  H127  1  0.43800210  0.53425740  0.99924214  1
  H+  H128  1  0.57499594  0.66703568  0.41143948  1
  H+  H129  1  0.35000036  0.21207927  0.05714423  1
  H+  H130  1  0.61405062  -0.03362234  0.35707710  1
  H+  H131  1  0.28614138  0.92011048  0.42388718  1
  H+  H132  1  0.13390471  0.84697178  0.32183111  1
  H+  H133  1  0.62402878  0.89859189  0.15833044  1
  H+  H134  1  0.39297125  0.34355927  0.30437244  1
  H+  H135  1  0.35617339  0.13759597  0.81478234  1
  H+  H136  1  0.62029737  0.63312565  0.67582224  1
  H+  H137  1  0.48313964  0.38624989  0.65469044  1
  H+  H138  1  0.28410951  0.13589249  0.34091957  1
  H+  H139  1  0.14925417  0.53430393  0.82985928  1
  H+  H140  1  0.25679715  0.31588557  -0.00541802  1
  H+  H141  1  0.01550735  0.63932889  0.66446626  1
  H+  H142  1  0.46856303  0.37085762  0.83628697  1
  H+  H143  1  0.60346973  0.24153726  0.50020784  1
  H+  H144  1  0.77259040  0.37993071  0.34390531  1
  H+  H145  1  0.86359123  0.89127742  0.83622536  1
  H+  H146  1  -0.00685484  0.08768714  0.02235243  1
  H+  H147  1  -0.01401928  0.11595493  0.17751172  1
  H+  H148  1  0.47627769  0.45404110  0.03684568  1
  H+  H149  1  0.63748727  0.65593111  1.00259784  1
  H+  H150  1  0.01580628  0.62115623  0.33713592  1
  H+  H151  1  0.13959946  0.52925523  0.66536191  1
  H+  H152  1  0.32380547  0.30773260  0.39316723  1
  H+  H153  1  0.63273186  0.27265839  0.84716851  1
  H+  H154  1  0.60980708  0.88361661  0.66729521  1
  H+  H155  1  0.89310459  0.88981015  0.34199971  1
  H+  H156  1  0.98743589  0.86030545  0.31652837  1
  H+  H157  1  0.63123739  0.47931901  0.15587126  1
  H+  H158  1  0.26765872  0.63394373  0.67076711  1
  H+  H159  1  0.87624840  0.72928471  0.34715702  1
  H+  H160  1  0.63920825  0.78037728  0.17187256  1
  H+  H161  1  0.35053407  0.00784013  1.01143698  1
  H+  H162  1  0.06904052  0.38336366  0.83310474  1
  H+  H163  1  0.73663216  0.62833499  -0.00755974  1
  H+  H164  1  0.24840626  0.84727276  0.33947059  1
  H+  H165  1  0.77565583  0.64130705  0.15485983  1
  H+  H166  1  0.30290705  0.62154286  -0.00750429  1
  H+  H167  1  0.11582207  0.86328454  0.66734968  1
  H+  H168  1  0.36423084  0.12388963  0.16861040  1
  H+  H169  1  0.10535723  0.64045038  0.81234800  1
  H+  H170  1  0.15572788  0.12117803  0.32378233  1
  H+  H171  1  0.61923968  0.48632745  0.33891437  1
  H+  H172  1  0.72296410  0.11424997  0.34389176  1
  H+  H173  1  0.63547763  0.62329116  0.34829327  1
  H+  H174  1  0.60312995  0.22499757  0.16219563  1
  H+  H175  1  0.05156616  0.18339840  0.99798812  1
  H+  H176  1  0.23051341  0.10760279  0.17236886  1
  H+  H177  1  0.63618308  0.74740878  1.00072817  1
  H+  H178  1  0.75681076  0.12698427  0.67012842  1
  H+  H179  1  0.11516875  0.88223771  0.57532810  1
  H+  H180  1  0.60747753  0.49944818  1.00934328  1
  H+  H181  1  0.60640472  0.13894067  0.14924231  1
  H+  H182  1  0.11385393  0.88721245  0.83824308  1
  H+  H183  1  0.17809726  0.34293740  0.26922379  1
  H+  H184  1  0.87407849  0.61226020  0.66353761  1
  H+  H185  1  0.31541846  0.88712914  0.75823193  1
  H+  H186  1  0.87943714  0.98982181  0.49006952  1
  H+  H187  1  0.49987214  0.36759534  0.15927121  1
  H+  H188  1  0.62066100  0.89894870  0.50715706  1
  H+  H189  1  0.63364923  0.02542239  0.83024905  1
  H+  H190  1  0.04691490  0.14787413  0.33248041  1
  H+  H191  1  0.74935739  0.48019170  0.78608318  1
  H+  H192  1  0.72785109  0.62086793  0.84096926  1
  H+  H193  1  0.02253326  0.88638181  0.84185049  1
  H+  H194  1  0.61435779  0.26028455  0.99719996  1
  H+  H195  1  0.72678261  0.37403539  0.50904031  1
  H+  H196  1  0.64644186  0.86811696  0.99182541  1
  H+  H197  1  -0.03824308  0.85763983  0.67763962  1
  H+  H198  1  0.72537967  0.35134660  0.18097730  1
  H+  H199  1  0.58845777  0.13914826  0.00031322  1
  H+  H200  1  0.12274460  0.75100730  0.32676746  1
  H+  H201  1  0.23910248  0.36802354  0.17528381  1
  H+  H202  1  0.36952825  0.39483395  0.81258402  1
  H+  H203  1  0.87150648  0.66257071  0.00008162  1
  H+  H204  1  0.06957974  0.39811366  0.11335089  1
  H+  H205  1  0.60398583  0.11130312  0.51219283  1
  H+  H206  1  0.36115504  0.71576796  0.15847581  1
  H+  H207  1  0.12717162  -0.01859777  0.31698887  1
  H+  H208  1  0.62257636  1.02180117  0.66141058  1
  H+  H209  1  0.22814174  0.87526009  0.99718469  1
  H+  H210  1  0.48542404  0.38287444  0.49569239  1
  H+  H211  1  0.98334308  0.36707968  0.34455083  1
  H+  H212  1  0.16825599  0.80765385  0.46803640  1
  H+  H213  1  0.85107666  0.35328236  0.81677965  1
  H+  H214  1  0.89947809  0.12030243  0.17492264  1
  H+  H215  1  0.81747468  0.13263569  0.52500901  1
  H+  H216  1  0.11488568  0.38543398  0.34784780  1
  H+  H217  1  0.46062575  0.15021101  0.50181344  1
  H+  H218  1  0.12517210  0.39937799  0.67660496  1
  H+  H219  1  0.02356160  0.65776184  0.00065343  1
  H+  H220  1  0.52609832  0.64554594  0.15563807  1
  H+  H221  1  0.91926777  0.32628845  0.25218494  1
  H+  H222  1  0.71594669  0.32279573  0.01330341  1
  H+  H223  1  0.64155689  0.36857408  0.32902765  1
  H+  H224  1  0.86374499  0.37802525  0.18072449  1
  H+  H225  1  0.47042794  0.11234750  0.80237261  1
  H+  H226  1  0.75411766  0.62987451  0.68110757  1
  H+  H227  1  0.41640097  0.31503319  0.12019332  1
  H+  H228  1  0.07604010  0.66880934  0.06282244  1
  H+  H229  1  0.86509793  0.72857790  0.16034279  1
  H+  H230  1  0.98760641  0.86564873  0.53288205  1
  H+  H231  1  0.40002159  0.53083407  0.18103563  1
  H+  H232  1  0.82519618  0.67453685  0.76876570  1
  H+  H233  1  0.93126811  0.13961365  0.44740254  1
  H+  H234  1  0.36431705  0.72956582  0.34358852  1
  H+  H235  1  0.87384274  0.46709299  0.02991693  1
  H+  H236  1  0.24755877  0.86819091  0.66518328  1
  H+  H237  1  0.89120524  0.39517334  0.82396924  1
  H+  H238  1  0.86261668  0.38087153  0.34914236  1
  H+  H239  1  0.38798545  0.61240808  0.17497013  1
  H+  H240  1  0.33482890  0.66215678  0.77148179  1
  H+  H241  1  0.18669787  0.37802138  0.49801146  1
  H+  H242  1  0.58856560  0.68023388  0.09563349  1
  H+  H243  1  0.12230975  0.13801676  0.16220659  1
  H+  H244  1  0.52974593  0.63876471  0.67398221  1
  H+  H245  1  0.90461979  0.87581153  0.51722688  1
  H+  H246  1  0.63318501  0.61887867  0.15786404  1
  H+  H247  1  0.40644241  0.08189329  0.74715405  1
  H+  H248  1  0.89199840  0.53445221  0.50921687  1
  H+  H249  1  0.61459386  0.73001551  0.82236741  1
  H+  H250  1  0.41851805  0.61547668  -0.00850642  1
  H+  H251  1  0.22751795  0.58892462  0.51231452  1
  H+  H252  1  0.83237362  -0.07980055  0.77686690  1
  H+  H253  1  0.39269723  0.01333601  0.18109396  1
  H+  H254  1  0.60570985  0.14572644  0.67168306  1
  H+  H255  1  0.17245157  0.89436393  0.48493039  1
  H+  H256  1  0.25998440  0.12218981  0.51576274  1
  H+  H257  1  0.63012072  0.37350703  0.65982351  1
  H+  H258  1  0.93161493  0.09151178  0.27081239  1
  H+  H259  1  0.40438100  0.28944903  0.50008730  1
  H+  H260  1  0.59029866  0.67150852  0.76013687  1
  H+  H261  1  0.84188575  0.94199932  0.06875617  1
  H+  H262  1  0.27014384  0.13646448  0.83640667  1
  H+  H263  1  1.01895862  0.13736012  0.83471640  1
  H+  H264  1  0.89063598  0.79476056  1.00146772  1
  H+  H265  1  0.16447864  0.40606134  0.83909027  1
  H+  H266  1  0.88418565  0.77973926  0.84557569  1
  H+  H267  1  0.37763503  0.93835821  0.00899297  1
  H+  H268  1  0.65660035  0.10153794  0.91784415  1
  H+  H269  1  0.34515857  0.50349405  0.35090079  1
  H+  H270  1  0.63649139  0.77063152  0.66273507  1
  H+  H271  1  0.48707049  0.34077655  0.00654943  1
  H+  H272  1  0.48671814  0.11247414  0.18523601  1
  H+  H273  1  0.85549589  0.88455199  0.68454932  1
  H+  H274  1  0.81788477  0.90868203  0.33337302  1
  H+  H275  1  0.38716204  0.86009381  0.83128526  1
  H+  H276  1  0.12876048  1.01573047  -0.00261984  1
  H+  H277  1  0.61424302  0.96745618  0.00576305  1
  H+  H278  1  0.38230058  0.39649334  0.16672969  1
  H+  H279  1  0.31338645  0.44208679  0.41947456  1
  H+  H280  1  0.22138251  0.36161542  0.64784046  1
  H+  H281  1  0.11732867  0.89457014  0.00688643  1
  H+  H282  1  0.86552525  0.39649534  0.50083360  1
  H+  H283  1  0.50867109  0.13250600  0.34634339  1
  H+  H284  1  0.84889412  0.13012540  0.66969166  1
  H+  H285  1  0.62995088  0.38762288  0.15938148  1
  H+  H286  1  -0.02521513  0.35626288  0.51639407  1
  H+  H287  1  0.10347055  0.13760052  0.68191038  1
  H+  H288  1  0.83429857  0.42094258  0.43999157  1
  H+  H289  1  0.08408534  0.91677509  0.10760447  1
  H+  H290  1  0.58018634  0.42242505  0.73373654  1
  H+  H291  1  0.57492555  0.91405926  0.45100573  1
  H+  H292  1  0.22466444  0.16168671  0.56095182  1
  H+  H293  1  0.67513296  0.83559313  0.57137276  1
  H+  H294  1  0.52069942  0.88149007  0.66220221  1
  H+  H295  1  0.09184840  0.41093449  0.41202053  1
  H+  H296  1  0.96013671  0.15456036  0.51536698  1
  H+  H297  1  0.08649208  0.16524913  0.10494876  1
  H+  H298  1  0.12719497  0.46497960  0.50953050  1
  H+  H299  1  0.58773935  0.18264691  0.76300002  1
  H+  H300  1  0.90801384  0.58713270  0.60273508  1
  H+  H301  1  0.42504653  0.59048655  0.56936958  1
  H+  H302  1  0.49319543  0.62052262  0.82236554  1
  H+  H303  1  0.42949472  0.82037366  0.24095663  1
  H+  H304  1  0.02783791  0.89667690  0.00958531  1
  H+  H305  1  0.20047360  0.61938280  0.86729913  1
  H+  H306  1  0.38357440  0.10182315  0.94046420  1
  H+  H307  1  0.83992809  0.67979595  0.06455226  1
  H+  H308  1  0.83953041  0.16560224  0.42651487  1
  H+  H309  1  0.55914597  0.16341852  0.06349994  1
  H+  H310  1  0.86140256  0.27218927  0.96457887  1
  H+  H311  1  0.63756533  0.61754784  0.83932313  1
  H+  H312  1  0.79188094  0.34858692  0.09317663  1
  H+  H313  1  0.64588194  0.08283984  0.60370254  1
  H+  H314  1  0.88419112  0.02492758  0.84897619  1
  H+  H315  1  0.35816007  0.71837662  0.66713670  1
  H+  H316  1  0.36006589  0.16003749  0.44105655  1
  H+  H317  1  0.42349414  0.83476855  0.89051393  1
  H+  H318  1  0.38299906  0.10749727  0.33057468  1
  H+  H319  1  0.16691983  0.57630769  0.27396049  1
  H+  H320  1  0.86669947  0.73864232  0.50610465  1
  H+  H321  1  0.82531218  0.15989194  0.75981068  1
  H+  H322  1  0.18521148  0.09087449  0.26529198  1
  H+  H323  1  0.07041543  0.91071043  0.74969371  1
  H+  H324  1  0.10735542  0.22926888  0.67649123  1
  H+  H325  1  0.73427621  0.05684475  0.29659494  1
  H+  H326  1  0.84301407  0.68218222  0.44368516  1
  H+  H327  1  0.67439235  0.59615214  0.93285273  1
  H+  H328  1  0.88591861  0.86541454  0.17394779  1
  H+  H329  1  0.58466794  0.43814035  0.06858165  1
  H+  H330  1  0.85190029  0.92140376  0.43853690  1
  H+  H331  1  0.62493216  0.40603268  0.49361436  1
  H+  H332  1  0.85332833  0.47985557  0.67177992  1
  H+  H333  1  0.47345247  0.86480094  0.33256461  1
  H+  H334  1  0.87153242  0.09643698  0.93249780  1
  H+  H335  1  0.40634523  0.11413426  0.60159113  1
  H+  H336  1  0.69533286  0.62855671  0.29471471  1
  H+  H337  1  0.23271178  0.31141621  0.88984977  1
  H+  H338  1  0.07827549  0.16703689  0.77458811  1
  H+  H339  1  0.61175450  0.23882485  0.66938285  1
  H+  H340  1  0.90858565  0.83295839  0.61528630  1
  H+  H341  1  0.66344917  0.34784059  0.56701949  1
  H+  H342  1  0.71882306  0.37236991  0.65886472  1
  H+  H343  1  0.33822022  0.67445919  0.44372633  1
  H+  H344  1  0.91429207  0.82579796  0.26685070  1
  H+  H345  1  0.39619593  0.62284875  0.82609789  1
  H+  H346  1  0.15371368  0.07814806  0.93082062  1
  H+  H347  1  0.08621554  0.67725883  0.43228364  1
  H+  H348  1  0.14260653  0.06567078  0.61822139  1
  H+  H349  1  0.64645301  0.57518598  0.21522603  1
  H+  H350  1  0.72710544  0.86574373  0.84058457  1
  H+  H351  1  0.58485993  0.91778214  0.76035291  1
  H+  H352  1  0.43044779  0.35972274  0.59210483  1
  H+  H353  1  0.36720546  0.43813997  0.11010056  1
  H+  H354  1  0.66535076  0.58700169  0.61646454  1
  H+  H355  1  0.52882321  0.64285283  0.50383492  1
  H+  H356  1  0.92055115  0.07450357  0.61211535  1
  H+  H357  1  0.92294621  0.61079846  0.92000438  1
  H+  H358  1  0.68951685  0.10929857  0.19932068  1
  H+  H359  1  0.86990939  0.98405120  0.16584254  1
  H+  H360  1  0.30859018  0.16735234  0.73651458  1
  H+  H361  1  0.90206974  0.33858167  0.61304552  1
  H+  H362  1  0.11595685  0.38197422  0.16965613  1
  H+  H363  1  0.90817973  0.57583560  0.23284093  1
  H+  H364  1  0.11337787  0.17309396  0.38876788  1
  H+  H365  1  0.66051374  0.32597834  0.23664147  1
  H+  H366  1  0.37937095  0.40055126  0.01576742  1
  H+  H367  1  0.86453260  0.65327109  0.82691456  1
  H+  H368  1  0.90302346  0.27569015  0.35315366  1
  H+  H369  1  0.91595401  0.83995860  0.90617498  1
  H+  H370  1  0.32886868  0.41978779  0.71471807  1
  H+  H371  1  0.41710645  0.59015000  0.27351288  1
  H+  H372  1  0.11011381  0.29335786  0.93229819  1
  H+  H373  1  0.09687113  0.58855207  0.99602757  1
  H+  H374  1  0.08032599  0.67700565  0.71937500  1
  H+  H375  1  0.33510106  0.65808261  0.09815605  1
  H+  H376  1  0.06445808  0.31485667  -0.01266604  1
  H+  H377  1  0.12218621  0.43770929  0.74043081  1
  H+  H378  1  0.42026689  0.07109129  0.25173955  1
  H+  H379  1  0.35968408  0.39686674  0.48735515  1
  H+  H380  1  0.98954638  0.28491500  0.89904244  1
  H+  H381  1  0.16570250  0.56376284  0.57070650  1
  H+  H382  1  0.43250278  0.32127830  0.24905623  1
  H+  H383  1  0.59596147  0.43241879  0.43097424  1
  O2-  O384  1  0.09347411  0.17106436  0.14954420  1
  O2-  O385  1  0.11547750  0.16365041  0.45973767  1
  O2-  O386  1  0.07986652  0.16343664  0.82013205  1
  O2-  O387  1  0.08019513  0.40792216  0.15795061  1
  O2-  O388  1  0.08942230  0.39891053  0.49120244  1
  O2-  O389  1  0.12857012  0.42792393  0.82243995  1
  O2-  O390  1  0.07227522  0.65409961  0.14066468  1
  O2-  O391  1  0.09801775  0.69959944  0.47436901  1
  O2-  O392  1  0.07541453  0.67279889  0.80051449  1
  O2-  O393  1  0.08091935  0.91344310  0.15263780  1
  O2-  O394  1  0.09823237  0.90734857  0.54061596  1
  O2-  O395  1  0.08360209  0.91963664  0.82711686  1
  O2-  O396  1  0.33544973  0.15372227  0.15196971  1
  O2-  O397  1  0.36423428  0.17286606  0.48559384  1
  O2-  O398  1  0.32657072  0.17186751  0.81675614  1
  O2-  O399  1  0.35335536  0.42898321  0.15413617  1
  O2-  O400  1  0.32932934  0.42992260  0.48037407  1
  O2-  O401  1  0.34190916  0.42955337  0.79561574  1
  O2-  O402  1  0.32818173  0.65585500  0.14282611  1
  O2-  O403  1  0.33693810  0.66476636  0.48829629  1
  O2-  O404  1  0.35006041  0.66568434  0.81529837  1
  O2-  O405  1  0.34590421  0.93784355  0.14894865  1
  O2-  O406  1  0.33568210  0.94075782  0.39244084  1
  O2-  O407  1  0.32610055  0.89997700  0.80346319  1
  O2-  O408  1  0.56772638  0.16419863  0.14641069  1
  O2-  O409  1  0.56438133  0.18046501  0.48724471  1
  O2-  O410  1  0.58158874  0.17582376  0.80857373  1
  O2-  O411  1  0.60118535  0.41880750  0.14193421  1
  O2-  O412  1  0.59819878  0.43979437  0.47613116  1
  O2-  O413  1  0.57921316  0.42010010  0.81940582  1
  O2-  O414  1  0.58711216  0.67611991  0.14098524  1
  O2-  O415  1  0.58977145  0.67223264  0.48681209  1
  O2-  O416  1  0.58621017  0.66945218  0.80713731  1
  O2-  O417  1  0.59204391  0.92609695  0.14091987  1
  O2-  O418  1  0.58898386  0.92800658  0.49438555  1
  O2-  O419  1  0.58860955  0.92143454  0.80579921  1
  O2-  O420  1  0.86155630  0.17807959  0.14361123  1
  O2-  O421  1  0.79980211  0.16481149  0.49884600  1
  O2-  O422  1  0.82733356  0.15777584  0.80576308  1
  O2-  O423  1  0.82830073  0.40055254  0.16151321  1
  O2-  O424  1  0.83389137  0.42509116  0.48525463  1
  O2-  O425  1  0.78467184  0.45535369  0.79772433  1
  O2-  O426  1  0.83680128  0.66925648  0.14258928  1
  O2-  O427  1  0.83173226  0.67879238  0.48873573  1
  O2-  O428  1  0.82916847  0.67964854  0.81499974  1
  O2-  O429  1  0.83876939  0.92444254  0.14794848  1
  O2-  O430  1  0.84981837  0.92715810  0.48335663  1
  O2-  O431  1  0.83251566  0.92156692  0.82258756  1
  O2-  O432  1  0.17044387  0.08198015  0.18828859  1
  O2-  O433  1  0.20518494  0.11033444  0.53594934  1
  O2-  O434  1  0.15784664  0.07901526  0.86628202  1
  O2-  O435  1  0.17955078  0.33751748  0.19135438  1
  O2-  O436  1  0.12831290  0.34906914  0.51535919  1
  O2-  O437  1  0.18758704  0.31650851  0.86877932  1
  O2-  O438  1  0.15969949  0.57652747  0.19179851  1
  O2-  O439  1  0.16809222  0.55007394  0.52649647  1
  O2-  O440  1  0.16080416  0.59403215  0.83349915  1
  O2-  O441  1  0.14641064  0.82030057  0.18634557  1
  O2-  O442  1  0.20399796  0.87140538  0.46282624  1
  O2-  O443  1  0.16685996  0.83393830  0.85418527  1
  O2-  O444  1  0.42561154  0.07507394  0.20366102  1
  O2-  O445  1  0.39789642  0.12080555  0.51379797  1
  O2-  O446  1  0.40772251  0.07944377  0.79169880  1
  O2-  O447  1  0.43497493  0.33426393  0.16332029  1
  O2-  O448  1  0.42390167  0.35068310  0.50752692  1
  O2-  O449  1  0.40613765  0.34518327  0.84493432  1
  O2-  O450  1  0.42657222  0.59298823  0.19283312  1
  O2-  O451  1  0.42797546  0.59028843  0.52313499  1
  O2-  O452  1  0.42844650  0.58722898  0.83543316  1
  O2-  O453  1  0.44340943  0.80742301  0.19823047  1
  O2-  O454  1  0.41103192  0.81879421  0.56068097  1
  O2-  O455  1  0.42292349  0.83453504  0.84564552  1
  O2-  O456  1  0.67438565  0.09902339  0.15638098  1
  O2-  O457  1  0.63874282  0.08592096  0.52692716  1
  O2-  O458  1  0.66125987  0.08652684  0.84481344  1
  O2-  O459  1  0.66236170  0.32443939  0.19107820  1
  O2-  O460  1  0.66490511  0.34818008  0.52096223  1
  O2-  O461  1  0.66051001  0.32952141  0.86893944  1
  O2-  O462  1  0.66298307  0.58702984  0.17267537  1
  O2-  O463  1  0.67336841  0.59587419  0.51305332  1
  O2-  O464  1  0.66754027  0.58877255  0.85761978  1
  O2-  O465  1  0.66712117  0.83960297  0.18939138  1
  O2-  O466  1  0.67525940  0.83517053  0.52548922  1
  O2-  O467  1  0.66531934  0.83393538  0.85413407  1
  O2-  O468  1  0.92552854  0.08630636  0.19240054  1
  O2-  O469  1  0.94449709  0.11267593  0.48267655  1
  O2-  O470  1  0.91178649  0.08714692  0.86099758  1
  O2-  O471  1  0.91817729  0.32888114  0.20682314  1
  O2-  O472  1  0.91533459  0.33991868  0.52857557  1
  O2-  O473  1  0.96877134  0.30226500  0.86273541  1
  O2-  O474  1  0.90834429  0.57308107  0.18737626  1
  O2-  O475  1  0.92169534  0.59401250  0.52598718  1
  O2-  O476  1  0.91856203  0.60151621  0.84740644  1
  O2-  O477  1  0.91297473  0.83195863  0.18928219  1
  O2-  O478  1  0.92348191  0.83744708  0.53573153  1
  O2-  O479  1  0.91799337  0.84054985  0.86089097  1
  O2-  O480  1  0.18620130  0.08937538  0.31091618  1
  O2-  O481  1  0.14197281  0.07185017  0.66240706  1
  O2-  O482  1  0.15221775  0.07778914  0.97966120  1
  O2-  O483  1  0.17365485  0.34113663  0.31474349  1
  O2-  O484  1  0.15741724  0.32840179  0.64136750  1
  O2-  O485  1  0.05761268  0.26944642  0.95765327  1
  O2-  O486  1  0.17106340  0.58087787  0.31915024  1
  O2-  O487  1  0.16691566  0.58670247  0.64350139  1
  O2-  O488  1  0.11865001  0.54718118  0.99368328  1
  O2-  O489  1  0.15920125  0.81132301  0.30966420  1
  O2-  O490  1  0.14196147  0.84142570  0.63731874  1
  O2-  O491  1  0.16886060  0.84340425  0.98063034  1
  O2-  O492  1  0.41138515  0.07270710  0.31779489  1
  O2-  O493  1  0.41106187  0.11392875  0.64626772  1
  O2-  O494  1  0.38873752  0.09872894  0.98435989  1
  O2-  O495  1  0.43312479  0.32388842  0.29393298  1
  O2-  O496  1  0.42469529  0.36063927  0.63655279  1
  O2-  O497  1  0.43873315  0.28117188  1.00015345  1
  O2-  O498  1  0.41484668  0.59003126  0.31896518  1
  O2-  O499  1  0.42055445  0.58807443  0.64315681  1
  O2-  O500  1  0.45809368  0.59324437  0.97895096  1
  O2-  O501  1  0.41772673  0.83003515  0.31039253  1
  O2-  O502  1  0.41225353  0.82080347  0.61929729  1
  O2-  O503  1  0.42809683  0.81410622  0.97302844  1
  O2-  O504  1  0.71680207  0.05764865  0.33841301  1
  O2-  O505  1  0.65238780  0.08352253  0.64901605  1
  O2-  O506  1  0.66151071  0.12246604  0.96153004  1
  O2-  O507  1  0.66641142  0.33299906  0.31460088  1
  O2-  O508  1  0.65858698  0.34194558  0.64230761  1
  O2-  O509  1  0.66457240  0.32051659  0.98692544  1
  O2-  O510  1  0.67432848  0.60073596  0.33397716  1
  O2-  O511  1  0.66325155  0.58787830  0.66069352  1
  O2-  O512  1  0.67501536  0.59867985  0.97886796  1
  O2-  O513  1  0.63727903  0.81729845  0.31657658  1
  O2-  O514  1  0.66526037  0.83194386  0.64765608  1
  O2-  O515  1  0.68285797  0.84450762  0.97663311  1
  O2-  O516  1  0.93788317  0.09411802  0.31621619  1
  O2-  O517  1  0.91498562  0.08237819  0.65533848  1
  O2-  O518  1  0.84915259  0.09957769  0.97365751  1
  O2-  O519  1  0.92171831  0.33090648  0.33177071  1
  O2-  O520  1  0.88932068  0.33278998  0.65701353  1
  O2-  O521  1  0.87764623  0.26401539  1.00528873  1
  O2-  O522  1  0.91001703  0.57376880  0.31197054  1
  O2-  O523  1  0.90578638  0.58330744  0.64829157  1
  O2-  O524  1  0.92351674  0.61501966  0.96624812  1
  O2-  O525  1  0.92310077  0.82779044  0.31218855  1
  O2-  O526  1  0.90206240  0.82998605  0.66035693  1
  O2-  O527  1  0.92576881  0.85503022  0.98570372  1
  O2-  O528  1  0.05230426  0.13560859  0.02153203  1
  O2-  O529  1  0.10958736  0.17789133  0.34281865  1
  O2-  O530  1  0.07567293  0.17107641  0.69617527  1
  O2-  O531  1  0.04566967  0.38134220  0.03455060  1
  O2-  O532  1  0.08853529  0.41693995  0.36692361  1
  O2-  O533  1  0.10814034  0.43752893  0.69715493  1
  O2-  O534  1  0.08179543  0.67631583  0.01750358  1
  O2-  O535  1  0.07605046  0.65508922  0.35219711  1
  O2-  O536  1  0.07813524  0.67374509  0.67412734  1
  O2-  O537  1  0.08967010  0.92734409  0.02332428  1
  O2-  O538  1  0.09391157  0.91810071  0.30742083  1
  O2-  O539  1  0.06372861  0.90909073  0.70450738  1
  O2-  O540  1  0.37783733  0.27408670  0.04862810  1
  O2-  O541  1  0.34524154  0.16256573  0.35631774  1
  O2-  O542  1  0.29824790  0.15865495  0.69213216  1
  O2-  O543  1  0.41959511  0.45468055  0.03586995  1
  O2-  O544  1  0.29719306  0.45542390  0.37542026  1
  O2-  O545  1  0.32624057  0.41993361  0.66965956  1
  O2-  O546  1  0.35783786  0.65420832  0.01360031  1
  O2-  O547  1  0.33669270  0.66997525  0.36063784  1
  O2-  O548  1  0.32833631  0.66149404  0.68692629  1
  O2-  O549  1  0.33360541  0.94741590  0.02760076  1
  O2-  O550  1  0.30630607  0.86155729  0.35824216  1
  O2-  O551  1  0.30204364  0.88066738  0.68529667  1
  O2-  O552  1  0.55547902  0.16535525  0.01842733  1
  O2-  O553  1  0.56904329  0.16978981  0.36226586  1
  O2-  O554  1  0.57884138  0.17926841  0.68670594  1
  O2-  O555  1  0.56082808  0.44765809  0.03033354  1
  O2-  O556  1  0.59108783  0.42534508  0.35203852  1
  O2-  O557  1  0.58507320  0.42741441  0.68900434  1
  O2-  O558  1  0.60491621  0.68599380  0.01727390  1
  O2-  O559  1  0.57438854  0.66317005  0.36562716  1
  O2-  O560  1  0.58962985  0.66947567  0.68960383  1
  O2-  O561  1  0.58035335  0.90543634  0.01883390  1
  O2-  O562  1  0.56753600  0.90820401  0.36833007  1
  O2-  O563  1  0.57800482  0.91313501  0.68137013  1
  O2-  O564  1  0.68708990  0.06972717  -0.00319229  1
  O2-  O565  1  0.88661718  0.18197475  0.39638588  1
  O2-  O566  1  0.81767744  0.15848749  0.68539539  1
  O2-  O567  1  0.76448675  0.30794906  0.05846206  1
  O2-  O568  1  0.83215229  0.41273749  0.36027689  1
  O2-  O569  1  0.81737659  0.42115697  0.69000258  1
  O2-  O570  1  0.83880045  0.68784708  0.01944890  1
  O2-  O571  1  0.84699193  0.67220796  0.36837681  1
  O2-  O572  1  0.81879856  0.65937312  0.69569833  1
  O2-  O573  1  0.84778924  0.95124348  0.02368873  1
  O2-  O574  1  0.86888950  0.92657879  0.35812505  1
  O2-  O575  1  0.82558838  0.91556735  0.70019316  1
