# generated using pymatgen
data_H2O
_symmetry_space_group_name_H-M   'P 1'
_cell_length_a   17.99088022
_cell_length_b   17.99925798
_cell_length_c   22.00841043
_cell_angle_alpha   89.97009910
_cell_angle_beta   89.99680399
_cell_angle_gamma   119.97794571
_symmetry_Int_Tables_number   1
_chemical_formula_structural   H2O
_chemical_formula_sum   'H384 O192'
_cell_volume   6173.37567096
_cell_formula_units_Z   192
loop_
 _symmetry_equiv_pos_site_id
 _symmetry_equiv_pos_as_xyz
  1  'x, y, z'
loop_
 _atom_type_symbol
 _atom_type_oxidation_number
  H+  1.0
  O2-  -2.0
loop_
 _atom_site_type_symbol
 _atom_site_label
 _atom_site_symmetry_multiplicity
 _atom_site_fract_x
 _atom_site_fract_y
 _atom_site_fract_z
 _atom_site_occupancy
  H+  H0  1  0.36979066  0.64050294  0.65607219  1
  H+  H1  1  0.66784913  0.82298925  0.49634758  1
  H+  H2  1  0.39682230  0.03272241  0.98992652  1
  H+  H3  1  0.09942828  -0.01939370  0.66750984  1
  H+  H4  1  0.64112678  0.03517637  0.51290103  1
  H+  H5  1  0.16066521  0.32118179  0.92912637  1
  H+  H6  1  0.07686554  0.39078027  0.09925437  1
  H+  H7  1  0.89752706  0.74515077  0.83289582  1
  H+  H8  1  0.89700753  0.52702569  0.16115883  1
  H+  H9  1  0.47969447  0.86023457  0.27229595  1
  H+  H10  1  0.64875777  0.78233032  0.98993345  1
  H+  H11  1  0.89522461  0.89530102  0.50164346  1
  H+  H12  1  0.08966971  0.58527552  0.65809001  1
  H+  H13  1  0.87951525  0.35519111  0.31711130  1
  H+  H14  1  0.26304892  0.41815451  0.12880308  1
  H+  H15  1  0.94596236  1.11272225  0.32806284  1
  H+  H16  1  0.83273661  0.65786267  0.40354261  1
  H+  H17  1  0.87181253  0.72944743  0.34335885  1
  H+  H18  1  0.63702885  0.64871526  0.99257110  1
  H+  H19  1  0.89522100  0.85181886  0.33174873  1
  H+  H20  1  0.54846267  0.14090411  0.82314623  1
  H+  H21  1  0.76828074  0.90259298  0.32197938  1
  H+  H22  1  0.31143637  0.72471867  0.69184156  1
  H+  H23  1  0.98331098  0.36900935  0.83761391  1
  H+  H24  1  0.11894870  0.99267152  0.49594179  1
  H+  H25  1  0.34583460  0.09933389  0.67649621  1
  H+  H26  1  0.37946331  0.63689016  0.34526033  1
  H+  H27  1  0.63825813  0.90833827  0.35249455  1
  H+  H28  1  0.10746925  0.62751241  0.13705957  1
  H+  H29  1  0.20822707  0.08905419  0.16613027  1
  H+  H30  1  0.17067227  0.84264094  -0.07454839  1
  H+  H31  1  0.65270677  0.86893263  0.64969629  1
  H+  H32  1  0.11247386  0.37714236  0.00253892  1
  H+  H33  1  0.12740283  0.16099253  0.66272910  1
  H+  H34  1  0.11498076  0.74295118  0.51823375  1
  H+  H35  1  0.27480276  0.37807811  0.67094094  1
  H+  H36  1  0.87555267  0.84845794  0.65818855  1
  H+  H37  1  0.77844818  0.38819249  0.67232544  1
  H+  H38  1  0.39006487  0.89692908  -0.00209651  1
  H+  H39  1  0.38384383  0.53506768  0.17164269  1
  H+  H40  1  0.89534833  0.92493859  0.15700248  1
  H+  H41  1  0.23980922  0.86565996  0.33339349  1
  H+  H42  1  0.77697938  0.38656544  0.82962405  1
  H+  H43  1  0.12097092  0.25178350  0.81602372  1
  H+  H44  1  0.25826666  0.12012400  0.33698421  1
  H+  H45  1  0.60491090  0.13226875  0.50435982  1
  H+  H46  1  0.64975099  0.11642317  0.84192071  1
  H+  H47  1  0.23974049  0.63010834  0.52285980  1
  H+  H48  1  0.14521442  0.88102059  0.83395809  1
  H+  H49  1  0.87268860  0.63052841  0.66550663  1
  H+  H50  1  0.00468886  0.62384653  0.35089380  1
  H+  H51  1  0.90064372  0.81262390  0.48729401  1
  H+  H52  1  0.43233653  0.83387586  0.68008309  1
  H+  H53  1  0.87453540  0.12761480  0.16971925  1
  H+  H54  1  0.61459239  0.69158938  0.49812210  1
  H+  H55  1  0.38735562  0.35397586  0.98648889  1
  H+  H56  1  0.30503227  0.40699571  0.40701777  1
  H+  H57  1  1.01105442  0.88834012  0.66621457  1
  H+  H58  1  0.22532922  0.60382358  0.85284480  1
  H+  H59  1  0.14949469  0.86335504  0.34017558  1
  H+  H60  1  0.11353584  0.47521372  0.67553580  1
  H+  H61  1  0.36574377  0.73377188  0.84165414  1
  H+  H62  1  0.06397824  0.38177626  0.38538530  1
  H+  H63  1  0.73030761  0.91698475  0.14642849  1
  H+  H64  1  0.42246267  0.32541004  0.93028070  1
  H+  H65  1  0.63419573  0.51185698  0.98397083  1
  H+  H66  1  0.28504684  0.08031145  0.84235853  1
  H+  H67  1  0.15573641  0.58663168  0.60886033  1
  H+  H68  1  0.75743632  0.62495545  0.65966597  1
  H+  H69  1  0.48121311  0.87570790  0.83854952  1
  H+  H70  1  0.07805353  0.17136438  0.35196826  1
  H+  H71  1  0.54977619  0.42318762  0.15505176  1
  H+  H72  1  0.54248326  0.89315351  0.35313288  1
  H+  H73  1  0.61559276  0.72328910  0.81539365  1
  H+  H74  1  0.73531869  0.63758226  0.17443904  1
  H+  H75  1  0.11898977  0.47291100  0.82935583  1
  H+  H76  1  0.64984977  0.37660101  0.16659375  1
  H+  H77  1  0.38490816  0.63675986  0.68734590  1
  H+  H78  1  0.10263978  0.33528213  0.18844276  1
  H+  H79  1  -0.01927320  0.61790805  0.51293160  1
  H+  H80  1  0.87952956  0.50372938  0.83692775  1
  H+  H81  1  0.13889624  0.26582199  -0.00852637  1
  H+  H82  1  0.87436449  0.23256918  0.84166342  1
  H+  H83  1  0.37934651  0.14046767  0.00660818  1
  H+  H84  1  0.63436761  0.22964020  0.82532741  1
  H+  H85  1  0.36115934  0.47765813  0.82763684  1
  H+  H86  1  0.77900128  0.39601071  1.00302201  1
  H+  H87  1  0.79873514  0.68339485  0.00671147  1
  H+  H88  1  0.15398072  0.63604350  0.52193094  1
  H+  H89  1  0.20044585  0.11712172  0.81238543  1
  H+  H90  1  0.88269431  0.60084787  0.83015689  1
  H+  H91  1  0.39688838  0.10925006  0.17267776  1
  H+  H92  1  0.37644220  1.00129605  0.50389827  1
  H+  H93  1  0.39755315  0.50837071  -0.02233682  1
  H+  H94  1  0.87549841  0.00023151  0.48335475  1
  H+  H95  1  0.43006200  0.33441004  0.20416825  1
  H+  H96  1  0.23501688  0.88025687  0.83660126  1
  H+  H97  1  -0.04951952  0.10272250  0.16702887  1
  H+  H98  1  0.38587271  0.36183151  0.83933387  1
  H+  H99  1  -0.02945620  0.35761374  0.16750367  1
  H+  H100  1  0.54529053  0.63742911  -0.00932863  1
  H+  H101  1  0.64561538  0.11812072  0.33354926  1
  H+  H102  1  0.38422082  0.27223575  0.83741489  1
  H+  H103  1  0.18436548  0.31641336  0.34812442  1
  H+  H104  1  0.58778343  0.35825966  0.49358159  1
  H+  H105  1  0.13484688  0.12122118  0.51193459  1
  H+  H106  1  0.61187528  0.73217730  0.17151853  1
  H+  H107  1  0.40215971  0.62620012  0.51176005  1
  H+  H108  1  0.86719673  0.23759585  1.00351008  1
  H+  H109  1  0.87466426  0.14554596  0.85619268  1
  H+  H110  1  0.38470911  0.62225340  0.17566972  1
  H+  H111  1  0.35254500  0.18759007  0.69426184  1
  H+  H112  1  0.73265660  0.12227771  -0.00519301  1
  H+  H113  1  0.03200888  0.87744812  0.34569227  1
  H+  H114  1  0.53520568  0.90494226  0.01227856  1
  H+  H115  1  0.61738214  0.14217354  0.16574468  1
  H+  H116  1  0.21333731  0.60920427  0.00215920  1
  H+  H117  1  0.27482298  0.87635423  0.48489588  1
  H+  H118  1  0.62264967  0.48122012  0.34049459  1
  H+  H119  1  0.15891730  0.39028324  0.65014132  1
  H+  H120  1  0.52762046  0.38576939  0.81739108  1
  H+  H121  1  0.10623658  0.45767494  0.15317879  1
  H+  H122  1  0.64602256  0.29035348  0.32201399  1
  H+  H123  1  0.55689593  0.91077426  0.65708052  1
  H+  H124  1  0.02486843  0.88212779  0.82293588  1
  H+  H125  1  0.41470425  0.54607126  0.65573773  1
  H+  H126  1  0.14561508  0.88685171  0.50721136  1
  H+  H127  1  0.30259720  0.65494192  0.35146737  1
  H+  H128  1  0.80982137  0.38835764  0.41687720  1
  H+  H129  1  0.64147655  0.63073517  0.18053252  1
  H+  H130  1  0.22703798  0.36422539  0.83844126  1
  H+  H131  1  0.15967413  0.30407412  0.63970136  1
  H+  H132  1  0.60039757  0.84135252  0.83834710  1
  H+  H133  1  0.05911804  0.28122187  0.43696229  1
  H+  H134  1  0.11686395  0.72169251  0.14924498  1
  H+  H135  1  0.78328299  0.13087494  0.33083947  1
  H+  H136  1  0.03414040  0.13396302  0.00703128  1
  H+  H137  1  0.34951148  0.34759723  0.35203587  1
  H+  H138  1  0.86863143  0.21968470  0.32894283  1
  H+  H139  1  -0.02860478  0.09674902  0.89312769  1
  H+  H140  1  0.77258078  0.63560150  0.33967916  1
  H+  H141  1  0.63899486  1.02621606  0.33430261  1
  H+  H142  1  0.70140289  0.29717975  0.56644062  1
  H+  H143  1  0.03110835  0.90428913  0.49543857  1
  H+  H144  1  0.36816586  1.00129607  0.66053506  1
  H+  H145  1  0.37454686  0.36519942  0.49878695  1
  H+  H146  1  0.52608273  0.64132632  0.17498114  1
  H+  H147  1  0.89589025  0.28182659  0.67992056  1
  H+  H148  1  0.11404871  0.86272317  0.66407908  1
  H+  H149  1  0.13616472  0.36575538  0.83600739  1
  H+  H150  1  0.88582100  0.03414956  0.98727413  1
  H+  H151  1  0.64154628  0.86896255  0.99473223  1
  H+  H152  1  0.86904140  0.38774470  0.82830538  1
  H+  H153  1  0.34190629  0.10898343  0.49679511  1
  H+  H154  1  0.09364680  0.68711845  0.45912706  1
  H+  H155  1  0.04803099  0.57660060  0.28096613  1
  H+  H156  1  0.13670798  0.74799934  0.36359836  1
  H+  H157  1  0.88467559  0.53100284  0.99008337  1
  H+  H158  1  0.59930127  0.21670285  0.65044525  1
  H+  H159  1  0.34085878  0.45764575  0.34398895  1
  H+  H160  1  0.86212774  0.62205039  0.49377287  1
  H+  H161  1  0.21503062  0.10396892  0.66325198  1
  H+  H162  1  0.10706635  0.14879607  0.79936604  1
  H+  H163  1  0.38892717  0.73453201  0.50483146  1
  H+  H164  1  0.37529618  0.22747897  0.00920002  1
  H+  H165  1  0.24739454  0.87095595  0.68144837  1
  H+  H166  1  0.84402842  0.82938184  0.83517707  1
  H+  H167  1  0.40672334  0.59996344  0.98474118  1
  H+  H168  1  1.12423214  0.75037907  0.81403510  1
  H+  H169  1  0.02485327  0.64432936  -0.00671582  1
  H+  H170  1  0.10930053  0.36412126  0.47418332  1
  H+  H171  1  0.11249774  0.23607720  0.51705054  1
  H+  H172  1  0.30531148  0.95531484  0.06080629  1
  H+  H173  1  0.76345620  0.86810482  0.67101850  1
  H+  H174  1  0.42020854  0.78579506  0.32157860  1
  H+  H175  1  0.63938283  0.36376467  0.99246603  1
  H+  H176  1  0.38347021  0.60968327  0.83524609  1
  H+  H177  1  0.64661121  0.11919759  0.65320082  1
  H+  H178  1  0.36033711  0.85606084  0.66308408  1
  H+  H179  1  0.93212977  0.61873619  0.30750716  1
  H+  H180  1  0.85031467  0.23350353  0.15744718  1
  H+  H181  1  0.98701575  0.61885514  0.15337795  1
  H+  H182  1  0.11123400  0.46553156  0.01125122  1
  H+  H183  1  -0.02113332  0.36632110  -0.00630390  1
  H+  H184  1  1.02238688  0.15361969  0.50971437  1
  H+  H185  1  0.67262670  0.33919504  0.89798915  1
  H+  H186  1  0.87452841  0.15618114  0.68781859  1
  H+  H187  1  0.08894858  0.46708042  0.34854827  1
  H+  H188  1  0.34299215  0.72065359  0.14114697  1
  H+  H189  1  0.60974513  0.85992340  0.18913802  1
  H+  H190  1  0.35477031  0.13293450  0.33907985  1
  H+  H191  1  0.73508809  0.11063402  0.84947954  1
  H+  H192  1  0.76727080  0.89821386  0.00090192  1
  H+  H193  1  0.20035144  0.88551512  0.56326244  1
  H+  H194  1  0.51560547  0.60492405  0.64588313  1
  H+  H195  1  0.13543953  0.65842321  0.37986841  1
  H+  H196  1  0.65709811  0.53274353  0.65941591  1
  H+  H197  1  0.26004013  0.89646345  0.00311348  1
  H+  H198  1  1.04773743  0.17837539  0.65697586  1
  H+  H199  1  0.14951987  0.11274521  1.02965530  1
  H+  H200  1  0.51549367  0.12391042  0.65065213  1
  H+  H201  1  0.35126278  0.24736975  0.35325693  1
  H+  H202  1  0.63346364  0.73380054  0.65600311  1
  H+  H203  1  0.12622060  0.61001926  0.99630047  1
  H+  H204  1  0.17814929  0.32632077  0.21818484  1
  H+  H205  1  0.86480789  0.13194806  0.50021026  1
  H+  H206  1  0.89139577  0.62489405  0.98528280  1
  H+  H207  1  0.13792845  0.00874140  0.32285624  1
  H+  H208  1  0.87003272  0.39330805  0.15547974  1
  H+  H209  1  0.78301772  0.58650576  0.12233909  1
  H+  H210  1  0.49080956  0.11851889  0.99266444  1
  H+  H211  1  0.64372109  0.36565307  0.83585520  1
  H+  H212  1  0.77168912  0.15127948  0.47985950  1
  H+  H213  1  0.82777343  0.68699642  0.50422975  1
  H+  H214  1  0.68691368  0.23194854  0.38505480  1
  H+  H215  1  0.27183225  0.37546253  -0.01102174  1
  H+  H216  1  0.43031361  0.30801355  0.63807398  1
  H+  H217  1  0.63761046  0.50733730  0.15858620  1
  H+  H218  1  0.47030193  0.59464277  0.32851969  1
  H+  H219  1  0.22202353  0.11305647  0.50915818  1
  H+  H220  1  0.50489494  0.36866078  0.48415440  1
  H+  H221  1  0.88753444  0.52802027  0.50580133  1
  H+  H222  1  0.71488287  0.11046489  0.17227363  1
  H+  H223  1  0.24295620  0.11506208  1.02862460  1
  H+  H224  1  0.74942633  0.41654937  0.51911860  1
  H+  H225  1  0.02779006  0.85637151  0.16587163  1
  H+  H226  1  0.89355974  0.37482361  0.99194639  1
  H+  H227  1  0.64994363  0.62215980  0.32829773  1
  H+  H228  1  0.22541863  0.83642277  0.17345981  1
  H+  H229  1  0.64104339  0.37686425  0.32023149  1
  H+  H230  1  0.48790747  0.86983638  0.51627511  1
  H+  H231  1  0.78008171  0.40064452  0.32455418  1
  H+  H232  1  0.78241334  0.39614575  0.15650964  1
  H+  H233  1  0.39967160  0.02932650  0.32629005  1
  H+  H234  1  0.11126350  0.02898441  0.80594266  1
  H+  H235  1  0.87713424  0.47874187  0.33668104  1
  H+  H236  1  0.08973424  0.11485681  0.16152249  1
  H+  H237  1  0.60520476  0.71846267  0.34303102  1
  H+  H238  1  0.61588761  0.48931298  0.49014105  1
  H+  H239  1  0.62326112  0.14175570  0.00588443  1
  H+  H240  1  0.88714993  0.52450476  0.66261903  1
  H+  H241  1  0.61597952  0.47539487  0.81813800  1
  H+  H242  1  0.58359603  0.40860766  0.39157798  1
  H+  H243  1  0.35262754  0.81171380  0.21194447  1
  H+  H244  1  0.13995645  0.65410931  0.27721756  1
  H+  H245  1  0.90597889  0.80480940  1.01245200  1
  H+  H246  1  0.61891140  0.68322926  0.71970480  1
  H+  H247  1  0.41426910  0.12169569  0.83802186  1
  H+  H248  1  0.86214277  0.90791642  0.18209509  1
  H+  H249  1  0.63702036  0.81515410  0.89421554  1
  H+  H250  1  0.88249981  0.61923452  0.14778963  1
  H+  H251  1  0.70692787  0.57725414  0.48992406  1
  H+  H252  1  0.90532068  0.97613584  0.33824569  1
  H+  H253  1  0.82985931  1.01753256  0.15023938  1
  H+  H254  1  0.74638487  0.96582575  0.28932769  1
  H+  H255  1  0.31693422  0.90734141  0.73640032  1
  H+  H256  1  0.48004802  0.29313933  0.23320146  1
  H+  H257  1  0.40030977  0.37327020  0.65796673  1
  H+  H258  1  0.07053380  0.74319296  0.71727865  1
  H+  H259  1  0.77555995  0.62097557  0.81616844  1
  H+  H260  1  0.14337117  0.00750928  1.01687170  1
  H+  H261  1  0.13627866  0.77827194  0.98390623  1
  H+  H262  1  0.84615854  0.94679204  0.70100554  1
  H+  H263  1  0.39534785  0.81211462  0.99584938  1
  H+  H264  1  0.92489692  0.07263526  0.64953920  1
  H+  H265  1  0.38544990  0.89882352  0.33278439  1
  H+  H266  1  0.65486525  0.61976521  0.82502360  1
  H+  H267  1  0.63468399  0.91003261  0.50846507  1
  H+  H268  1  0.21336584  0.59706259  0.15446545  1
  H+  H269  1  0.54618661  0.41427708  0.66463377  1
  H+  H270  1  0.66149828  0.62867293  0.65531290  1
  H+  H271  1  0.64388868  0.37237697  0.64506089  1
  H+  H272  1  0.09366174  0.20366248  0.74519351  1
  H+  H273  1  0.89090445  0.82567002  0.18102219  1
  H+  H274  1  0.37949575  0.69587221  -0.04892979  1
  H+  H275  1  0.48160246  0.12329689  0.33045780  1
  H+  H276  1  0.88421339  0.73507951  0.17745172  1
  H+  H277  1  0.22208843  0.64233522  0.70245122  1
  H+  H278  1  0.64280823  0.99599180  0.66844567  1
  H+  H279  1  0.03207206  0.38193287  0.67638999  1
  H+  H280  1  0.36648617  0.89114544  0.82672033  1
  H+  H281  1  0.49397371  0.88431276  0.17756311  1
  H+  H282  1  0.90331375  0.37148111  0.66759247  1
  H+  H283  1  0.35557772  0.19528916  0.17110391  1
  H+  H284  1  0.32859314  0.39045919  0.14818795  1
  H+  H285  1  0.12637322  0.89792007  -0.00905117  1
  H+  H286  1  0.62027445  0.23544201  0.16244856  1
  H+  H287  1  0.10665042  0.95034529  0.16159568  1
  H+  H288  1  0.07940997  0.16338317  0.07147779  1
  H+  H289  1  0.61869533  -0.01806619  0.82645583  1
  H+  H290  1  0.70664969  0.74538761  0.79860335  1
  H+  H291  1  0.22322110  0.38636828  0.55391900  1
  H+  H292  1  0.34138312  0.47534126  0.49672623  1
  H+  H293  1  0.09134260  0.92194201  0.40391863  1
  H+  H294  1  0.83980404  0.65307554  0.75767150  1
  H+  H295  1  0.12206123  0.08692437  0.32187072  1
  H+  H296  1  0.59034921  0.92775446  0.76422620  1
  H+  H297  1  0.41697226  0.83431590  0.57018954  1
  H+  H298  1  0.39394688  0.05856775  0.59943579  1
  H+  H299  1  0.59731017  0.17835588  0.41328367  1
  H+  H300  1  0.10697279  0.28789198  0.30350579  1
  H+  H301  1  0.91058891  0.57645572  0.89719436  1
  H+  H302  1  0.36123373  0.67382665  0.44530407  1
  H+  H303  1  0.87142635  0.72321806  0.66570402  1
  H+  H304  1  0.85957200  0.90970524  0.02424729  1
  H+  H305  1  0.42788980  0.86112717  0.90038483  1
  H+  H306  1  0.34431838  0.15657331  0.10373834  1
  H+  H307  1  0.31213872  0.12199132  0.77575892  1
  H+  H308  1  0.33495811  0.86142448  0.10254624  1
  H+  H309  1  0.12664894  0.08419829  0.91629712  1
  H+  H310  1  0.84070211  0.16882054  0.75230237  1
  H+  H311  1  0.13967029  0.84270780  0.17169246  1
  H+  H312  1  0.67898412  0.85619420  0.23033475  1
  H+  H313  1  0.36293197  0.87269045  0.48959418  1
  H+  H314  1  0.14100642  0.57195264  0.20658671  1
  H+  H315  1  0.59137492  0.17162956  0.06451883  1
  H+  H316  1  0.85589070  0.92361067  0.39764777  1
  H+  H317  1  0.58766709  0.42474637  0.06060916  1
  H+  H318  1  0.40788941  0.57399929  0.27167187  1
  H+  H319  1  0.78474271  0.91141702  0.49199129  1
  H+  H320  1  0.92561106  0.12898554  0.59567190  1
  H+  H321  1  0.83368930  0.41818231  0.73348698  1
  H+  H322  1  0.46021452  0.09300503  0.50994369  1
  H+  H323  1  0.42589503  0.57951332  0.88544644  1
  H+  H324  1  0.44028707  0.57743669  0.56993338  1
  H+  H325  1  0.73082537  0.57045520  -0.03003809  1
  H+  H326  1  0.58295285  0.65629748  0.39994236  1
  H+  H327  1  0.43920551  0.08967184  0.89730937  1
  H+  H328  1  0.68382305  0.59797281  0.26804697  1
  H+  H329  1  0.68880516  0.85063904  0.58611186  1
  H+  H330  1  0.82857331  0.04932593  0.54438150  1
  H+  H331  1  0.82449779  0.17374392  0.09826769  1
  H+  H332  1  0.92397943  0.87426876  0.96190836  1
  H+  H333  1  0.92576618  0.34564874  0.89863080  1
  H+  H334  1  0.50450022  0.13062521  0.17389315  1
  H+  H335  1  0.96934091  0.35692421  0.31700844  1
  H+  H336  1  0.59424991  0.92867700  0.45030634  1
  H+  H337  1  0.60587465  0.59861446  0.48537188  1
  H+  H338  1  0.09134063  0.41576845  0.76682637  1
  H+  H339  1  0.83383068  0.16791587  0.42136770  1
  H+  H340  1  0.66325975  0.08781691  0.23536496  1
  H+  H341  1  0.94097195  0.78628486  0.89493837  1
  H+  H342  1  0.85143286  0.67888256  0.06326051  1
  H+  H343  1  0.16250868  0.08836760  0.60045021  1
  H+  H344  1  0.28351980  0.30795714  0.70702389  1
  H+  H345  1  0.67013731  0.08567631  0.93713475  1
  H+  H346  1  0.68247772  0.10208475  0.56706497  1
  H+  H347  1  0.67070382  0.57889700  0.88613113  1
  H+  H348  1  0.43556844  0.09238652  0.23776823  1
  H+  H349  1  0.81224198  0.85976465  0.77846511  1
  H+  H350  1  0.15723314  0.56345737  0.90601186  1
  H+  H351  1  0.79475120  0.95308753  0.08398215  1
  H+  H352  1  0.15611097  0.06488502  0.22792490  1
  H+  H353  1  0.42525587  0.36160277  0.55613212  1
  H+  H354  1  0.33394356  0.41427657  0.04604086  1
  H+  H355  1  0.73965753  0.12917414  0.67028753  1
  H+  H356  1  0.67359877  0.34438427  0.22750603  1
  H+  H357  1  0.52146028  0.38280813  0.00367364  1
  H+  H358  1  0.58253019  0.96816063  0.19453184  1
  H+  H359  1  0.08053047  0.07287504  0.91372299  1
  H+  H360  1  0.83977301  0.42817098  0.06196622  1
  H+  H361  1  0.33716638  0.65995254  0.08755751  1
  H+  H362  1  0.91043309  0.83388883  0.59446115  1
  H+  H363  1  0.40339730  0.31913805  0.30174275  1
  H+  H364  1  0.91922632  0.80854976  0.27482815  1
  H+  H365  1  0.59996324  0.42816002  0.72578096  1
  H+  H366  1  0.58425361  0.20790286  0.51202150  1
  H+  H367  1  0.04034988  0.90837882  0.00510105  1
  H+  H368  1  0.87060993  0.15061998  0.00295002  1
  H+  H369  1  0.62708468  0.98336230  0.01278623  1
  H+  H370  1  0.32971819  0.40800398  0.77330692  1
  H+  H371  1  0.64451540  0.27751749  0.99273867  1
  H+  H372  1  0.91064732  0.33313192  0.22733414  1
  H+  H373  1  0.07599368  0.91652630  0.76063695  1
  H+  H374  1  0.08280277  0.67406934  0.05362045  1
  H+  H375  1  0.48617255  0.60574592  0.50043130  1
  H+  H376  1  0.45797142  0.73558475  -0.00556615  1
  H+  H377  1  0.31465157  0.14166685  0.43825518  1
  H+  H378  1  0.91525962  0.58099444  0.60160510  1
  H+  H379  1  0.11541511  0.78922949  0.62293294  1
  H+  H380  1  0.31337585  0.67418668  0.78747913  1
  H+  H381  1  0.35005998  0.91945258  0.39300263  1
  H+  H382  1  0.37519528  0.98362551  0.82413690  1
  H+  H383  1  0.08495276  0.20058971  0.17094527  1
  O2-  O384  1  0.06055434  0.14644544  0.14694009  1
  O2-  O385  1  0.08240491  0.18026848  0.49698972  1
  O2-  O386  1  0.08562766  0.19341567  0.79106306  1
  O2-  O387  1  0.07613386  0.39450598  0.14468788  1
  O2-  O388  1  0.05564128  0.33076063  0.45142498  1
  O2-  O389  1  0.08735553  0.41175940  0.81234906  1
  O2-  O390  1  0.08140201  0.66353064  0.12675148  1
  O2-  O391  1  0.08783288  0.68244201  0.50464176  1
  O2-  O392  1  0.09536963  0.69759618  0.78842508  1
  O2-  O393  1  0.08535639  0.89043495  0.14806244  1
  O2-  O394  1  0.09143725  0.93118161  0.48073220  1
  O2-  O395  1  0.08218297  0.92364403  0.80582080  1
  O2-  O396  1  0.33501773  0.14146799  0.14834185  1
  O2-  O397  1  0.31284757  0.14055526  0.48299163  1
  O2-  O398  1  0.31373563  0.13487128  0.82048549  1
  O2-  O399  1  0.32378804  0.43518112  0.12649173  1
  O2-  O400  1  0.30592464  0.41415472  0.48451874  1
  O2-  O401  1  0.33029166  0.41247017  0.81817288  1
  O2-  O402  1  0.32565037  0.66006459  0.13102312  1
  O2-  O403  1  0.36208968  0.67254746  0.49057227  1
  O2-  O404  1  0.33308880  0.67214131  0.83013388  1
  O2-  O405  1  0.33887257  0.87419064  0.14650028  1
  O2-  O406  1  0.33448013  0.90173587  0.46939455  1
  O2-  O407  1  0.33722831  0.92281828  0.81119767  1
  O2-  O408  1  0.58651071  0.17316288  0.15017157  1
  O2-  O409  1  0.56750669  0.15586934  0.48833033  1
  O2-  O410  1  0.60955790  0.16973251  0.81115949  1
  O2-  O411  1  0.60867980  0.44708290  0.14101092  1
  O2-  O412  1  0.56612140  0.38926960  0.46995540  1
  O2-  O413  1  0.58769547  0.41500592  0.80228688  1
  O2-  O414  1  0.58784189  0.66977283  0.16496161  1
  O2-  O415  1  0.57812593  0.63905749  0.47536921  1
  O2-  O416  1  0.64551106  0.69759589  0.79156686  1
  O2-  O417  1  0.54611270  0.90544232  0.20275918  1
  O2-  O418  1  0.59247092  0.92973730  0.49553840  1
  O2-  O419  1  0.58171834  0.92313819  0.80870342  1
  O2-  O420  1  0.81898522  0.17201406  0.14353698  1
  O2-  O421  1  0.83200357  0.17497333  0.46652320  1
  O2-  O422  1  0.84625733  0.16995365  0.83151739  1
  O2-  O423  1  0.84187293  0.42631718  0.13985746  1
  O2-  O424  1  0.78506126  0.44222603  0.48251147  1
  O2-  O425  1  0.83821896  0.41884606  0.81407110  1
  O2-  O426  1  0.83506893  0.64172401  0.12897689  1
  O2-  O427  1  0.82268284  0.64300885  0.47595671  1
  O2-  O428  1  0.83758119  0.64799296  0.80324019  1
  O2-  O429  1  0.77461791  0.96892342  0.12285057  1
  O2-  O430  1  0.84765896  0.93875357  0.47245907  1
  O2-  O431  1  0.79521618  0.83332056  0.81899494  1
  O2-  O432  1  0.14960644  0.06251151  0.18265368  1
  O2-  O433  1  0.16098211  0.08694127  0.52637044  1
  O2-  O434  1  0.14074742  0.09256877  0.79868475  1
  O2-  O435  1  0.11616704  0.29592016  0.21270765  1
  O2-  O436  1  0.21941585  0.38721136  0.50828377  1
  O2-  O437  1  0.16409828  0.33046294  0.84969375  1
  O2-  O438  1  0.15085146  0.56480701  0.16275836  1
  O2-  O439  1  0.18010067  0.60228532  0.53698886  1
  O2-  O440  1  0.16379776  0.56338652  0.86164919  1
  O2-  O441  1  0.16407398  0.80525770  0.18363040  1
  O2-  O442  1  0.17787252  0.85832886  0.52394514  1
  O2-  O443  1  0.17400471  0.85049045  0.85122162  1
  O2-  O444  1  0.43899940  0.09265716  0.19142630  1
  O2-  O445  1  0.39916464  0.05876515  0.52328718  1
  O2-  O446  1  0.43963818  0.08726850  0.85173089  1
  O2-  O447  1  0.42313131  0.28755467  0.23040491  1
  O2-  O448  1  0.41587829  0.34811076  0.51235978  1
  O2-  O449  1  0.41848849  0.33184200  0.85112613  1
  O2-  O450  1  0.41108264  0.59019511  0.19374615  1
  O2-  O451  1  0.42820321  0.58516049  0.52221756  1
  O2-  O452  1  0.41142402  0.57446934  0.84172352  1
  O2-  O453  1  0.37478065  0.82173387  0.16997715  1
  O2-  O454  1  0.42460751  0.83356526  0.52534851  1
  O2-  O455  1  0.42175703  0.84727340  0.85641069  1
  O2-  O456  1  0.65559524  0.08285809  0.19013130  1
  O2-  O457  1  0.67043928  0.09825850  0.52249113  1
  O2-  O458  1  0.67312040  0.08027712  0.86041328  1
  O2-  O459  1  0.67372136  0.34091740  0.18161640  1
  O2-  O460  1  0.66893282  0.32790232  0.56852079  1
  O2-  O461  1  0.67709654  0.33982331  0.85269515  1
  O2-  O462  1  0.67759774  0.60150094  0.19160720  1
  O2-  O463  1  0.64603476  0.55204712  0.50156600  1
  O2-  O464  1  0.67371712  0.57894773  0.84101895  1
  O2-  O465  1  0.65559170  0.84380721  0.18822278  1
  O2-  O466  1  0.70024081  0.87468493  0.52047579  1
  O2-  O467  1  0.59981012  0.79167306  0.85822034  1
  O2-  O468  1  0.89065831  0.08306964  0.18103118  1
  O2-  O469  1  0.88360981  0.09414280  0.52830205  1
  O2-  O470  1  0.91532619  0.08750167  0.90651104  1
  O2-  O471  1  0.91012915  0.33556806  0.18116126  1
  O2-  O472  1  0.78390557  0.36521039  0.45795812  1
  O2-  O473  1  0.92271247  0.34144018  0.85318772  1
  O2-  O474  1  0.92642950  0.59042349  0.17090088  1
  O2-  O475  1  0.91757089  0.58737288  0.52232782  1
  O2-  O476  1  0.91002095  0.56929544  0.85128806  1
  O2-  O477  1  0.91369538  0.79107167  0.19879783  1
  O2-  O478  1  0.92316597  0.86025376  0.51589641  1
  O2-  O479  1  0.92878288  0.80165251  0.85523679  1
  O2-  O480  1  0.16328990  0.06878144  0.30650291  1
  O2-  O481  1  0.15776582  0.08807468  0.64646651  1
  O2-  O482  1  0.18006945  0.08001937  1.03882474  1
  O2-  O483  1  0.12300084  0.27500835  0.34321593  1
  O2-  O484  1  0.19444115  0.36673263  0.63073983  1
  O2-  O485  1  0.16685025  0.32529107  0.97434674  1
  O2-  O486  1  0.10851931  0.59157713  0.27517307  1
  O2-  O487  1  0.13786398  0.57537340  0.65323197  1
  O2-  O488  1  0.15357842  0.57329813  0.99042929  1
  O2-  O489  1  0.17673885  0.82825474  0.33041410  1
  O2-  O490  1  0.13985707  0.82408918  0.65918295  1
  O2-  O491  1  0.16794390  0.84053869  0.97152125  1
  O2-  O492  1  0.42532820  0.09088122  0.31099362  1
  O2-  O493  1  0.39693993  0.06175647  0.64514601  1
  O2-  O494  1  0.43126802  0.09236198  0.97467034  1
  O2-  O495  1  0.38330323  0.31401151  0.34461926  1
  O2-  O496  1  0.44625154  0.36825708  0.63527181  1
  O2-  O497  1  0.42159666  0.32561979  0.97577074  1
  O2-  O498  1  0.40883968  0.56849501  0.31697970  1
  O2-  O499  1  0.46047259  0.55908368  0.62650021  1
  O2-  O500  1  0.43451180  0.57028032  0.96665813  1
  O2-  O501  1  0.44803050  0.84769563  0.31144878  1
  O2-  O502  1  0.39254793  0.82689833  0.64762374  1
  O2-  O503  1  0.42410054  0.87195386  0.98195700  1
  O2-  O504  1  0.66645475  0.08289180  0.31299130  1
  O2-  O505  1  0.68533390  0.09454926  0.64684309  1
  O2-  O506  1  0.67085717  0.09018994  0.98283660  1
  O2-  O507  1  0.67209558  0.34710487  0.30225225  1
  O2-  O508  1  0.66956911  0.33514979  0.63629123  1
  O2-  O509  1  0.67372982  0.33803991  0.97737152  1
  O2-  O510  1  0.68498243  0.59657974  0.31382887  1
  O2-  O511  1  0.69138297  0.59463479  0.64359364  1
  O2-  O512  1  0.67660902  0.57009432  0.96650133  1
  O2-  O513  1  0.71940059  0.90589041  0.30216563  1
  O2-  O514  1  0.67971770  0.83658431  0.63303980  1
  O2-  O515  1  0.67634619  0.84421795  0.97740593  1
  O2-  O516  1  0.97263312  0.07894200  0.31464495  1
  O2-  O517  1  0.94316329  0.13218073  0.63991604  1
  O2-  O518  1  0.92541932  0.09553665  0.97328732  1
  O2-  O519  1  0.90846267  0.32450749  0.30069496  1
  O2-  O520  1  0.93201281  0.33782404  0.65962525  1
  O2-  O521  1  0.91961602  0.34091468  0.97644793  1
  O2-  O522  1  0.95778115  0.58551822  0.32219959  1
  O2-  O523  1  0.91559684  0.58459968  0.64662968  1
  O2-  O524  1  0.91533986  0.58945199  0.96977854  1
  O2-  O525  1  0.91981606  0.81360708  0.32034530  1
  O2-  O526  1  0.91047023  0.82526405  0.63913286  1
  O2-  O527  1  0.93315709  0.86839350  1.00501269  1
  O2-  O528  1  0.09140191  0.16446157  0.02659539  1
  O2-  O529  1  0.04698709  0.10644664  0.35554273  1
  O2-  O530  1  0.10759286  0.20305344  0.67334029  1
  O2-  O531  1  0.08101326  0.40345920  0.02207425  1
  O2-  O532  1  0.06606864  0.40574897  0.34364123  1
  O2-  O533  1  0.09555719  0.41507671  0.68806815  1
  O2-  O534  1  0.08543872  0.67495738  0.00752429  1
  O2-  O535  1  0.10219651  0.68729884  0.38524254  1
  O2-  O536  1  0.03523033  0.71376759  0.75339229  1
  O2-  O537  1  0.10292704  0.93858238  -0.00521365  1
  O2-  O538  1  0.09229003  0.91375991  0.35880607  1
  O2-  O539  1  0.07124891  0.91997584  0.68244859  1
  O2-  O540  1  0.34992974  0.16850318  0.02740303  1
  O2-  O541  1  0.31776864  0.15434278  0.35582294  1
  O2-  O542  1  0.31461569  0.12608859  0.69931786  1
  O2-  O543  1  0.33418807  0.40583215  0.00176089  1
  O2-  O544  1  0.30845494  0.39906470  0.36210495  1
  O2-  O545  1  0.31709954  0.36860245  0.69613896  1
  O2-  O546  1  0.39511520  0.70273406  -0.00575854  1
  O2-  O547  1  0.36284365  0.67868283  0.36253280  1
  O2-  O548  1  0.27358705  0.68702135  0.72384170  1
  O2-  O549  1  0.31764682  0.93266973  0.02425992  1
  O2-  O550  1  0.35464998  0.92806882  0.34778886  1
  O2-  O551  1  0.30984737  0.90173988  0.69094129  1
  O2-  O552  1  0.59135734  0.17234506  0.01961089  1
  O2-  O553  1  0.62701349  0.19551789  0.37261490  1
  O2-  O554  1  0.57784160  0.15551672  0.64271301  1
  O2-  O555  1  0.58373970  0.41656809  0.01593909  1
  O2-  O556  1  0.58978920  0.41861627  0.34690003  1
  O2-  O557  1  0.60586073  0.43678547  0.68032737  1
  O2-  O558  1  0.60430103  0.67610522  0.00538016  1
  O2-  O559  1  0.58215006  0.65835728  0.35419326  1
  O2-  O560  1  0.61069418  0.67458323  0.67381078  1
  O2-  O561  1  0.59396442  0.92200714  0.02516052  1
  O2-  O562  1  0.60099539  0.92823041  0.37096507  1
  O2-  O563  1  0.61025266  0.93251154  0.67979183  1
  O2-  O564  1  0.83824205  0.17735606  0.01953167  1
  O2-  O565  1  0.84369379  0.15979548  0.34470333  1
  O2-  O566  1  0.83705598  0.17472395  0.70743693  1
  O2-  O567  1  0.84030275  0.43095393  0.01639054  1
  O2-  O568  1  0.83636139  0.41678692  0.34381212  1
  O2-  O569  1  0.83748458  0.42147542  0.68839209  1
  O2-  O570  1  0.85687368  0.69760731  0.01838261  1
  O2-  O571  1  0.83514897  0.66338180  0.35738874  1
  O2-  O572  1  0.84017942  0.66267521  0.68119585  1
  O2-  O573  1  0.82598568  0.93935876  0.02137250  1
  O2-  O574  1  0.86122531  0.91714223  0.35258801  1
  O2-  O575  1  0.81825844  0.88500340  0.69568957  1
