# generated using pymatgen
data_H2O
_symmetry_space_group_name_H-M   'P 1'
_cell_length_a   17.99577630
_cell_length_b   17.99046383
_cell_length_c   22.00118939
_cell_angle_alpha   89.99187010
_cell_angle_beta   89.99177466
_cell_angle_gamma   120.00612154
_symmetry_Int_Tables_number   1
_chemical_formula_structural   H2O
_chemical_formula_sum   'H384 O192'
_cell_volume   6168.26363362
_cell_formula_units_Z   192
loop_
 _symmetry_equiv_pos_site_id
 _symmetry_equiv_pos_as_xyz
  1  'x, y, z'
loop_
 _atom_type_symbol
 _atom_type_oxidation_number
  H+  1.0
  O2-  -2.0
loop_
 _atom_site_type_symbol
 _atom_site_label
 _atom_site_symmetry_multiplicity
 _atom_site_fract_x
 _atom_site_fract_y
 _atom_site_fract_z
 _atom_site_occupancy
  H+  H0  1  0.86987743  0.13647647  0.82765966  1
  H+  H1  1  0.61511341  0.13208364  0.34405317  1
  H+  H2  1  0.32971173  0.42050161  0.10556432  1
  H+  H3  1  0.31243836  0.65830247  0.83902704  1
  H+  H4  1  0.77654420  0.38896271  0.67894610  1
  H+  H5  1  0.86235299  0.12726882  0.99707031  1
  H+  H6  1  0.36734644  0.98710003  0.00571867  1
  H+  H7  1  0.86973462  0.48463029  0.49111419  1
  H+  H8  1  0.40713634  1.02982102  0.17526172  1
  H+  H9  1  0.46745892  0.36057195  0.16876811  1
  H+  H10  1  0.91902210  0.10393079  0.46698608  1
  H+  H11  1  0.01106342  0.63337993  0.83800129  1
  H+  H12  1  0.16845908  0.83429754  0.93522431  1
  H+  H13  1  0.60478329  0.49342659  0.83459891  1
  H+  H14  1  0.38759568  0.52257067  0.50088175  1
  H+  H15  1  0.52579463  0.13597704  0.68282077  1
  H+  H16  1  0.88718225  0.52674360  0.66064616  1
  H+  H17  1  0.16795841  0.57605832  0.56778206  1
  H+  H18  1  0.64645559  0.61811836  0.50495388  1
  H+  H19  1  0.36874496  0.25479105  0.33517742  1
  H+  H20  1  0.22937375  0.62165910  0.16736924  1
  H+  H21  1  0.39381744  0.86906800  0.17014485  1
  H+  H22  1  0.63294801  0.86684196  0.51027731  1
  H+  H23  1  0.51087680  0.89334508  0.15718332  1
  H+  H24  1  0.38936883  0.86631862  0.66379246  1
  H+  H25  1  0.85906258  0.37332403  0.15115480  1
  H+  H26  1  0.92460142  0.08532579  0.89465120  1
  H+  H27  1  0.60059483  0.72492162  0.34271460  1
  H+  H28  1  0.86911296  0.38993278  0.82869317  1
  H+  H29  1  0.97088985  0.11016626  0.32438213  1
  H+  H30  1  -0.01569409  0.10999019  0.83376745  1
  H+  H31  1  0.62331447  0.38738840  -0.00409767  1
  H+  H32  1  0.12357473  0.63569913  0.99632115  1
  H+  H33  1  0.08927769  0.92429177  0.11042063  1
  H+  H34  1  0.22233684  0.86316913  -0.00382403  1
  H+  H35  1  0.35827860  0.39329300  0.16632848  1
  H+  H36  1  0.11241201  0.97765532  0.17132304  1
  H+  H37  1  0.40685973  0.61618622  0.84094679  1
  H+  H38  1  0.14001305  0.61206060  0.66440770  1
  H+  H39  1  0.86122055  -0.02424433  0.67004052  1
  H+  H40  1  0.08007204  0.65733698  0.07934761  1
  H+  H41  1  0.97384681  0.35759393  0.17065816  1
  H+  H42  1  0.02069904  0.88887759  0.49359286  1
  H+  H43  1  0.27369785  0.39888639  0.82535278  1
  H+  H44  1  0.03366917  0.12755504  0.49775217  1
  H+  H45  1  0.02016289  0.63107916  0.67725303  1
  H+  H46  1  0.35960729  0.22227756  0.67849713  1
  H+  H47  1  0.10377764  0.46425372  0.33247596  1
  H+  H48  1  0.63779107  0.86572065  0.66540868  1
  H+  H49  1  0.71571587  0.60849632  0.15814073  1
  H+  H50  1  0.13851874  0.77859382  0.84313825  1
  H+  H51  1  0.63400469  0.76962153  0.18006683  1
  H+  H52  1  0.91640954  0.83439802  0.56535783  1
  H+  H53  1  0.16431018  0.07489809  0.60624029  1
  H+  H54  1  0.49941063  0.87855142  0.83772827  1
  H+  H55  1  0.97754397  0.11337582  0.99304896  1
  H+  H56  1  0.61512920  0.72808947  0.67376982  1
  H+  H57  1  0.86276679  0.13541322  0.67211555  1
  H+  H58  1  0.30769805  0.67439703  0.40420067  1
  H+  H59  1  0.11441170  0.48094616  0.15601236  1
  H+  H60  1  0.83267758  0.91906009  0.73065982  1
  H+  H61  1  0.12012680  0.63168414  0.49887470  1
  H+  H62  1  0.37406962  0.39518181  0.49510325  1
  H+  H63  1  0.07438402  0.92417100  0.39727920  1
  H+  H64  1  0.12451482  0.18816122  0.81696263  1
  H+  H65  1  0.13245314  0.35493890  0.32420630  1
  H+  H66  1  0.36065554  0.63261665  0.48979388  1
  H+  H67  1  0.64067078  0.27158552  0.98491789  1
  H+  H68  1  0.38072615  0.53087312  0.17647798  1
  H+  H69  1  0.65566298  0.83432331  0.27229179  1
  H+  H70  1  0.47825481  0.36476334  0.51282674  1
  H+  H71  1  0.16979527  0.57177319  0.92828670  1
  H+  H72  1  0.88864684  1.02252574  -0.00777507  1
  H+  H73  1  0.76964461  0.13014731  0.34670175  1
  H+  H74  1  0.14179109  1.03494430  0.32630861  1
  H+  H75  1  1.01133621  0.38041105  1.00922499  1
  H+  H76  1  0.20866767  0.60225755  0.31818611  1
  H+  H77  1  0.51319820  0.87983437  0.50171660  1
  H+  H78  1  0.39787480  0.52303903  0.84064922  1
  H+  H79  1  1.02474006  0.38139548  0.49528487  1
  H+  H80  1  0.60276104  0.87970196  0.35118758  1
  H+  H81  1  0.67668961  0.58762288  0.60550521  1
  H+  H82  1  0.28874241  0.90154672  0.16485896  1
  H+  H83  1  0.88371682  0.28058065  0.50684510  1
  H+  H84  1  0.60318050  0.63628650  0.34647844  1
  H+  H85  1  0.47529584  0.11873883  0.51201466  1
  H+  H86  1  0.61214719  0.72867964  0.49470588  1
  H+  H87  1  0.11988309  0.64742133  0.33737142  1
  H+  H88  1  0.36127994  0.47759835  0.66886571  1
  H+  H89  1  0.72593419  0.11240780  0.65964506  1
  H+  H90  1  0.60621656  -0.00398231  0.15720351  1
  H+  H91  1  0.36107197  0.47916425  0.01086524  1
  H+  H92  1  0.86761560  0.10217094  0.17220381  1
  H+  H93  1  0.88404747  0.61564692  0.84619402  1
  H+  H94  1  0.73263378  0.61764186  0.66619382  1
  H+  H95  1  0.71999562  0.44994215  0.21270121  1
  H+  H96  1  0.72256250  0.62506111  0.99684303  1
  H+  H97  1  0.40955622  0.08374328  0.93004753  1
  H+  H98  1  0.46989669  0.11287011  0.84118724  1
  H+  H99  1  0.12163393  0.72498451  0.99802813  1
  H+  H100  1  0.39771466  0.03280763  0.33659184  1
  H+  H101  1  0.36103044  0.14200460  0.49176578  1
  H+  H102  1  0.62943892  0.89667376  0.83352690  1
  H+  H103  1  0.88076557  0.35674508  0.32374041  1
  H+  H104  1  0.28041342  0.88996053  0.48759465  1
  H+  H105  1  0.52352579  0.13308880  -0.01031511  1
  H+  H106  1  0.97613957  0.11029155  0.65808976  1
  H+  H107  1  0.88070701  0.52393005  0.84577853  1
  H+  H108  1  0.88282370  0.01241316  0.49716809  1
  H+  H109  1  0.14915013  0.87541360  0.18097596  1
  H+  H110  1  0.11636668  0.47591359  0.67229784  1
  H+  H111  1  0.77411105  0.38385973  0.34042744  1
  H+  H112  1  -0.02533564  0.86614398  0.66102863  1
  H+  H113  1  0.77310885  0.88856843  0.01005974  1
  H+  H114  1  0.12833227  0.35477813  0.66245244  1
  H+  H115  1  0.39764916  0.78008729  0.16974431  1
  H+  H116  1  0.88622173  0.26838047  0.83900293  1
  H+  H117  1  0.60849800  0.38946843  0.15379468  1
  H+  H118  1  0.86481762  0.21885019  0.15469827  1
  H+  H119  1  0.64762918  1.02507470  0.86450509  1
  H+  H120  1  0.88453519  0.86348268  0.65957157  1
  H+  H121  1  0.09950326  0.13871125  0.15975746  1
  H+  H122  1  0.19325185  0.60268552  0.81232113  1
  H+  H123  1  0.64318787  0.27076103  0.84139700  1
  H+  H124  1  0.27319635  0.38780208  0.67098406  1
  H+  H125  1  0.42261761  0.58175670  0.93705421  1
  H+  H126  1  0.10665694  0.13045765  0.67217859  1
  H+  H127  1  0.72580303  0.86390476  0.66170598  1
  H+  H128  1  0.60943497  0.64088816  0.01142240  1
  H+  H129  1  0.34338551  0.32820358  0.84162393  1
  H+  H130  1  0.72332768  0.85590511  0.18104568  1
  H+  H131  1  0.96954257  0.86629693  0.32579795  1
  H+  H132  1  0.12894969  0.86557563  0.69331773  1
  H+  H133  1  0.36868284  0.64431355  0.16911087  1
  H+  H134  1  0.10948273  0.23088417  0.00556234  1
  H+  H135  1  0.47434764  0.61484090  0.50311075  1
  H+  H136  1  0.87444709  0.39865148  0.49123863  1
  H+  H137  1  0.14106107  0.02446194  0.50730765  1
  H+  H138  1  0.66555588  0.83737451  0.56822900  1
  H+  H139  1  0.63555895  0.77556959  0.99974640  1
  H+  H140  1  0.38958694  0.12020726  -0.00918628  1
  H+  H141  1  0.13293170  0.38186275  0.84001248  1
  H+  H142  1  0.86983307  1.00515292  0.17361625  1
  H+  H143  1  0.85845224  0.63451410  0.33280598  1
  H+  H144  1  0.96560961  0.60056172  0.15637021  1
  H+  H145  1  0.88304756  0.34522166  0.99179949  1
  H+  H146  1  0.28522743  0.90338233  0.34834828  1
  H+  H147  1  0.20443582  0.11560030  0.17194738  1
  H+  H148  1  0.53481461  0.38767420  -0.00783342  1
  H+  H149  1  0.22141617  0.36770241  0.17212798  1
  H+  H150  1  0.74028631  0.38989366  0.17342656  1
  H+  H151  1  0.22385475  0.36122249  -0.00290019  1
  H+  H152  1  -0.03261225  0.35211684  0.32368960  1
  H+  H153  1  0.14029615  0.76720927  0.49449021  1
  H+  H154  1  0.77174803  0.13561082  0.15341577  1
  H+  H155  1  0.36316548  0.39300237  0.00838663  1
  H+  H156  1  0.61941634  0.22200343  0.50192950  1
  H+  H157  1  0.05173729  0.90978786  0.74247917  1
  H+  H158  1  0.98343104  0.61642631  0.50630860  1
  H+  H159  1  0.39020419  1.02776857  0.66599560  1
  H+  H160  1  0.47467870  0.86406378  0.33645423  1
  H+  H161  1  0.11469596  0.39043564  0.15768112  1
  H+  H162  1  0.12751215  0.29288251  0.84323108  1
  H+  H163  1  0.62358014  0.52347052  0.33875092  1
  H+  H164  1  0.11884105  0.61497956  0.83975225  1
  H+  H165  1  0.16011532  0.79296178  0.19135435  1
  H+  H166  1  0.86889720  0.88924555  0.16080267  1
  H+  H167  1  0.36041518  0.62484541  0.01034930  1
  H+  H168  1  0.07390504  0.71427388  0.13121727  1
  H+  H169  1  0.12660144  0.13573991  0.49902267  1
  H+  H170  1  0.13880996  0.61923484  0.16038605  1
  H+  H171  1  0.70705979  0.10986078  0.50742735  1
  H+  H172  1  0.51688008  0.63829195  0.16407096  1
  H+  H173  1  0.78834589  0.65573224  0.83144407  1
  H+  H174  1  0.97704487  0.36304418  0.66000576  1
  H+  H175  1  0.73454820  0.61663282  0.50344441  1
  H+  H176  1  0.74075335  0.35283698  0.51428828  1
  H+  H177  1  0.86731938  0.98409738  0.82324963  1
  H+  H178  1  0.19528863  0.15154299  0.93060885  1
  H+  H179  1  0.64090510  0.36184631  0.67043524  1
  H+  H180  1  0.16016467  0.79308014  0.33913957  1
  H+  H181  1  0.35794282  0.72038924  0.49603746  1
  H+  H182  1  0.58404025  0.93416147  0.09461301  1
  H+  H183  1  0.65775286  0.63679045  0.84084659  1
  H+  H184  1  0.71372885  0.86292728  0.33222584  1
  H+  H185  1  0.63930437  0.27095499  0.32858275  1
  H+  H186  1  0.85622443  0.22289754  0.34137899  1
  H+  H187  1  0.14168055  0.14159443  -0.00927512  1
  H+  H188  1  0.39959744  0.33009561  0.92290393  1
  H+  H189  1  0.73211393  0.11194947  0.96205119  1
  H+  H190  1  -0.02244938  0.88266261  -0.01158040  1
  H+  H191  1  0.10796453  0.47651329  1.00404796  1
  H+  H192  1  0.53693056  0.64167655  0.82942642  1
  H+  H193  1  0.11050575  0.89538138  0.34244031  1
  H+  H194  1  0.88154501  0.52206602  0.31875969  1
  H+  H195  1  0.61288156  0.13240457  0.68112445  1
  H+  H196  1  0.33368201  0.23408490  0.84619131  1
  H+  H197  1  0.86620085  0.39101615  0.67404536  1
  H+  H198  1  0.09999045  0.07842338  0.82605525  1
  H+  H199  1  0.39628142  0.74431002  0.82469833  1
  H+  H200  1  0.60170572  0.93219355  0.77539835  1
  H+  H201  1  0.11191250  0.13346823  0.33707525  1
  H+  H202  1  0.22216532  0.10783169  0.66584260  1
  H+  H203  1  0.60403740  0.38234541  0.34225500  1
  H+  H204  1  0.87059251  0.89719918  0.81955842  1
  H+  H205  1  0.86852498  0.73229617  0.67500290  1
  H+  H206  1  0.83275183  0.16404992  0.73171615  1
  H+  H207  1  0.34000814  0.73871815  0.34649765  1
  H+  H208  1  0.10683913  0.71924991  0.69093582  1
  H+  H209  1  0.62843970  0.00584518  0.34499751  1
  H+  H210  1  0.42286770  0.12470774  0.18682815  1
  H+  H211  1  0.63995169  0.12933559  0.15122649  1
  H+  H212  1  0.22804082  0.59775977  0.98942233  1
  H+  H213  1  0.85842091  0.74345325  1.00234426  1
  H+  H214  1  0.88476846  0.86239922  0.50610292  1
  H+  H215  1  0.27473529  0.37816257  0.33865712  1
  H+  H216  1  0.61174263  0.13169621  -0.01977206  1
  H+  H217  1  0.85844561  0.63661756  0.15169897  1
  H+  H218  1  0.38865238  1.02899079  0.51300228  1
  H+  H219  1  0.97622755  0.86078384  0.17518345  1
  H+  H220  1  0.52762847  0.89070175  0.68144918  1
  H+  H221  1  0.54164241  0.14561519  0.14293275  1
  H+  H222  1  0.83946452  0.13835211  0.50238796  1
  H+  H223  1  0.61627012  -0.02105578  0.67812442  1
  H+  H224  1  0.28077097  0.16043564  -0.00341736  1
  H+  H225  1  0.47836062  0.61442976  0.99877931  1
  H+  H226  1  0.76821536  0.88640134  0.49590633  1
  H+  H227  1  0.85449149  0.88369180  0.33943735  1
  H+  H228  1  0.12174151  0.35116885  0.50948267  1
  H+  H229  1  0.32098608  0.12479878  0.14490123  1
  H+  H230  1  0.61627232  0.47352873  0.68026563  1
  H+  H231  1  0.61738314  0.10691293  0.51005928  1
  H+  H232  1  0.37204146  -0.10206620  0.34271486  1
  H+  H233  1  0.37541377  0.27695267  0.17071739  1
  H+  H234  1  0.64012864  0.53041437  0.99215780  1
  H+  H235  1  0.38914322  0.36028213  0.66627558  1
  H+  H236  1  0.23076429  0.86141992  0.84120066  1
  H+  H237  1  0.89964095  0.78329180  0.83247173  1
  H+  H238  1  0.41698117  0.58485997  0.59484962  1
  H+  H239  1  0.64177065  0.27335869  0.67411321  1
  H+  H240  1  0.37427085  0.24193109  0.00229658  1
  H+  H241  1  0.52801044  0.38495331  0.68054708  1
  H+  H242  1  0.89035580  0.25975263  0.99183251  1
  H+  H243  1  0.60898143  0.13018530  0.84098260  1
  H+  H244  1  0.46660218  0.42398924  0.94073860  1
  H+  H245  1  0.11283756  0.00772682  1.00940450  1
  H+  H246  1  0.46647151  0.60690926  0.32833369  1
  H+  H247  1  0.85841571  0.72379547  0.33621623  1
  H+  H248  1  0.09680623  0.47817013  0.82523757  1
  H+  H249  1  0.88515343  0.77297410  0.17114938  1
  H+  H250  1  0.62420964  0.98265201  -0.00323139  1
  H+  H251  1  0.10613350  0.97579818  0.68690919  1
  H+  H252  1  0.35924903  0.71168875  0.00930716  1
  H+  H253  1  0.73404825  0.86919845  0.84365427  1
  H+  H254  1  0.37645743  0.89188806  0.82816446  1
  H+  H255  1  0.60955892  0.47482580  0.49289379  1
  H+  H256  1  0.23594128  0.12655978  0.33262050  1
  H+  H257  1  0.61678923  0.63980268  0.67549228  1
  H+  H258  1  0.86354952  0.44320620  -0.02566313  1
  H+  H259  1  0.10771731  0.23090574  0.15532958  1
  H+  H260  1  0.10777244  0.88626275  0.48362025  1
  H+  H261  1  0.89576188  0.61959184  0.50379173  1
  H+  H262  1  0.36162614  0.37387403  0.33864344  1
  H+  H263  1  0.40958881  0.58477375  0.23909023  1
  H+  H264  1  0.38321873  0.86000625  0.50909674  1
  H+  H265  1  0.88756083  0.27430144  0.66026700  1
  H+  H266  1  0.12646771  0.26328494  0.66405720  1
  H+  H267  1  0.50091689  0.85712342  0.99168846  1
  H+  H268  1  0.64488533  0.78034130  0.84190126  1
  H+  H269  1  0.36973697  0.63969716  0.66831773  1
  H+  H270  1  0.34863076  0.14029915  0.34583922  1
  H+  H271  1  0.73277318  0.36042305  0.83909713  1
  H+  H272  1  0.22716623  0.60405539  0.50807767  1
  H+  H273  1  0.62884122  0.89692873  0.00948181  1
  H+  H274  1  0.78117626  0.13562954  0.83579359  1
  H+  H275  1  0.62614432  0.51967378  0.15345730  1
  H+  H276  1  0.60355851  0.63245044  0.15690246  1
  H+  H277  1  0.87100514  0.72880072  0.48920189  1
  H+  H278  1  0.52887300  0.13766010  0.34457021  1
  H+  H279  1  0.76665878  0.37080609  0.99102960  1
  H+  H280  1  0.85545966  0.53583361  1.00631500  1
  H+  H281  1  0.12628102  0.25633817  0.51111692  1
  H+  H282  1  0.39115593  0.77785588  0.66238339  1
  H+  H283  1  0.42048094  0.08833064  0.60693979  1
  H+  H284  1  0.59986430  0.97306114  0.50149941  1
  H+  H285  1  0.11720534  0.46655638  0.49596781  1
  H+  H286  1  0.27673360  0.89178310  0.68568071  1
  H+  H287  1  0.86967276  0.64373752  0.67571131  1
  H+  H288  1  0.83990116  0.41989922  0.39600150  1
  H+  H289  1  0.87791254  0.51289656  0.15832361  1
  H+  H290  1  0.71356783  0.61066956  0.33896691  1
  H+  H291  1  0.67141891  0.04198561  0.28272675  1
  H+  H292  1  0.31050488  0.14332746  0.76653873  1
  H+  H293  1  0.24197590  0.09582828  0.82018782  1
  H+  H294  1  0.58318715  0.15636006  0.77754233  1
  H+  H295  1  0.15638908  0.57180934  0.25604252  1
  H+  H296  1  0.08055613  0.41648655  0.73141696  1
  H+  H297  1  0.82527518  0.91030165  0.43453144  1
  H+  H298  1  0.82319528  0.16806720  0.43744858  1
  H+  H299  1  0.84094917  0.66814972  0.42977150  1
  H+  H300  1  0.85368323  0.65220529  0.00486219  1
  H+  H301  1  0.20508123  0.70274266  0.36979590  1
  H+  H302  1  0.13045047  0.26545210  0.32268391  1
  H+  H303  1  0.15997104  0.08815511  0.23777283  1
  H+  H304  1  0.91727225  0.08374413  0.59835819  1
  H+  H305  1  0.37438556  0.10333487  0.83716629  1
  H+  H306  1  0.36475282  0.89751179  0.00625152  1
  H+  H307  1  0.67327545  0.33216902  0.92507171  1
  H+  H308  1  0.66953862  0.83470185  0.93910575  1
  H+  H309  1  0.08110182  0.17048281  0.06619261  1
  H+  H310  1  0.33344010  0.42095759  0.76673253  1
  H+  H311  1  0.07257012  0.14926686  0.73399481  1
  H+  H312  1  0.59174179  0.67557848  0.76793963  1
  H+  H313  1  0.34695870  0.67069477  0.73015139  1
  H+  H314  1  0.31693180  0.17682885  0.08969665  1
  H+  H315  1  0.86212902  0.88979791  0.00316197  1
  H+  H316  1  0.34402007  0.41878366  0.43318848  1
  H+  H317  1  0.41148763  0.82969305  0.56938247  1
  H+  H318  1  0.10339772  0.66756426  0.43727623  1
  H+  H319  1  0.16613237  0.33912968  0.93786913  1
  H+  H320  1  0.33957010  0.66829731  0.10649135  1
  H+  H321  1  0.83256702  0.67864819  0.09699856  1
  H+  H322  1  0.82443898  0.15304501  0.05386570  1
  H+  H323  1  0.23192716  0.11406537  0.50778890  1
  H+  H324  1  0.34505907  0.92214844  0.73805078  1
  H+  H325  1  0.59148995  0.16543438  0.07857456  1
  H+  H326  1  0.18269119  0.85453381  0.28129467  1
  H+  H327  1  0.57240813  0.90855092  0.41332765  1
  H+  H328  1  0.83008522  0.40065453  0.08986906  1
  H+  H329  1  0.15877254  0.33269272  0.22967496  1
  H+  H330  1  0.53638444  0.55531277  0.58329057  1
  H+  H331  1  0.85474133  0.97264691  0.34097509  1
  H+  H332  1  0.47666895  0.77269320  0.95777749  1
  H+  H333  1  0.43393228  0.08870942  0.27677309  1
  H+  H334  1  0.57970412  0.66937991  0.43506925  1
  H+  H335  1  0.34340383  0.92801384  0.10247992  1
  H+  H336  1  0.47660021  0.61410201  0.65517817  1
  H+  H337  1  0.42706484  0.84238343  0.27191751  1
  H+  H338  1  0.83685383  0.91936250  0.10147389  1
  H+  H339  1  0.84138610  0.42211338  0.76937433  1
  H+  H340  1  0.51138925  0.37482682  0.34096584  1
  H+  H341  1  0.68125587  0.60447579  0.90168883  1
  H+  H342  1  0.08063142  0.16074421  0.39673876  1
  H+  H343  1  0.66003922  0.08069504  0.60299928  1
  H+  H344  1  0.92691865  0.84861051  0.92548491  1
  H+  H345  1  0.07758358  0.42104333  0.07399622  1
  H+  H346  1  0.17555066  0.84056031  0.54382402  1
  H+  H347  1  0.12474691  0.04019796  0.88778079  1
  H+  H348  1  0.38768309  0.27702542  0.51135596  1
  H+  H349  1  0.89527109  0.58261859  0.94239308  1
  H+  H350  1  0.84620599  0.67805268  0.77074489  1
  H+  H351  1  0.91945524  0.33829654  0.56644331  1
  H+  H352  1  0.23043658  0.61393705  0.66465008  1
  H+  H353  1  0.04018000  0.99672804  0.05211785  1
  H+  H354  1  0.91845592  0.32585905  0.89941536  1
  H+  H355  1  0.41897320  0.32974524  0.60801221  1
  H+  H356  1  0.58257721  0.16811708  0.43927345  1
  H+  H357  1  0.38353194  0.51466735  0.32397603  1
  H+  H358  1  0.89779025  0.07279751  0.23838324  1
  H+  H359  1  0.05280560  0.93834967  0.83332927  1
  H+  H360  1  0.88280541  0.11361528  0.32845957  1
  H+  H361  1  0.14850082  0.31798853  0.57694136  1
  H+  H362  1  0.43783418  0.83771653  0.89487093  1
  H+  H363  1  0.40737955  0.31811052  0.27371569  1
  H+  H364  1  0.35125386  0.92915538  0.43693670  1
  H+  H365  1  0.57767010  0.66978863  0.07142964  1
  H+  H366  1  0.36032627  0.13364277  0.67561684  1
  H+  H367  1  0.91103171  0.32371849  0.22841823  1
  H+  H368  1  0.91962215  0.58717474  0.60122289  1
  H+  H369  1  0.90966928  0.83483918  0.26682208  1
  H+  H370  1  0.07981453  0.40957412  0.39431255  1
  H+  H371  1  0.68557229  0.32142793  0.57631104  1
  H+  H372  1  0.90522104  0.57726942  0.25822287  1
  H+  H373  1  0.15026921  0.83146014  0.63569381  1
  H+  H374  1  0.36816582  0.97677510  0.82978699  1
  H+  H375  1  0.66256966  0.11054618  0.21791224  1
  H+  H376  1  0.67013370  0.33818459  0.27238096  1
  H+  H377  1  0.32549880  0.16878854  0.43141272  1
  H+  H378  1  0.57085964  0.41373807  0.43545809  1
  H+  H379  1  0.52429976  0.50920080  0.58219064  1
  H+  H380  1  0.06652296  0.65672746  0.77563644  1
  H+  H381  1  0.56596154  0.42502798  0.78416541  1
  H+  H382  1  0.57618196  0.40477552  0.08931976  1
  H+  H383  1  0.01320313  0.38345758  0.82583414  1
  O2-  O384  1  0.07753496  0.17192811  0.13792211  1
  O2-  O385  1  0.09373696  0.16513189  0.48426804  1
  O2-  O386  1  0.07454315  0.13466598  0.80416181  1
  O2-  O387  1  0.08280015  0.41990978  0.14139061  1
  O2-  O388  1  0.08579909  0.40562457  0.48104059  1
  O2-  O389  1  0.07397249  0.41837531  0.81005524  1
  O2-  O390  1  0.07212059  0.65952749  0.12683281  1
  O2-  O391  1  0.09306694  0.66459691  0.48214870  1
  O2-  O392  1  0.07095959  0.66117936  0.82105997  1
  O2-  O393  1  0.09029896  0.91745075  0.15488237  1
  O2-  O394  1  0.08013568  0.92108228  0.47582597  1
  O2-  O395  1  0.01557157  0.87728075  0.81735619  1
  O2-  O396  1  0.30744204  0.16939025  0.13495656  1
  O2-  O397  1  0.32773406  0.16946444  0.47865191  1
  O2-  O398  1  0.30398784  0.13472473  0.81187024  1
  O2-  O399  1  0.32723340  0.42257244  0.15082940  1
  O2-  O400  1  0.34618269  0.42630741  0.47816988  1
  O2-  O401  1  0.33381754  0.42073376  0.81219730  1
  O2-  O402  1  0.34136307  0.67781639  0.15115854  1
  O2-  O403  1  0.32649539  0.66121137  0.47855680  1
  O2-  O404  1  0.36372636  0.68102809  0.81375947  1
  O2-  O405  1  0.34823229  0.92854344  0.14805762  1
  O2-  O406  1  0.34370311  0.92268147  0.48231881  1
  O2-  O407  1  0.34210342  0.91726676  0.81282241  1
  O2-  O408  1  0.59897601  0.17245061  0.12369205  1
  O2-  O409  1  0.57690234  0.16342729  0.48426430  1
  O2-  O410  1  0.57856365  0.15777707  0.82309219  1
  O2-  O411  1  0.56833058  0.40487064  0.13430238  1
  O2-  O412  1  0.57198723  0.41439659  0.48071569  1
  O2-  O413  1  0.55253073  0.43926993  0.82441048  1
  O2-  O414  1  0.57566090  0.66760087  0.14577872  1
  O2-  O415  1  0.58279446  0.66810656  0.48095523  1
  O2-  O416  1  0.59605311  0.67962465  0.81352552  1
  O2-  O417  1  0.57560338  0.93482175  0.14031277  1
  O2-  O418  1  0.57417194  0.91222000  0.48671355  1
  O2-  O419  1  0.60270789  0.93198352  0.82110082  1
  O2-  O420  1  0.83225791  0.15765367  0.14007852  1
  O2-  O421  1  0.81663328  0.17150056  0.48272191  1
  O2-  O422  1  0.83671349  0.16533352  0.81429253  1
  O2-  O423  1  0.83003517  0.40410792  0.13467673  1
  O2-  O424  1  0.84149793  0.42491165  0.47455423  1
  O2-  O425  1  0.84037947  0.42203235  0.81503532  1
  O2-  O426  1  0.83245716  0.67297374  0.14232885  1
  O2-  O427  1  0.84302923  0.66797383  0.47556111  1
  O2-  O428  1  0.84972983  0.68319334  0.81627179  1
  O2-  O429  1  0.83867777  0.92090261  0.14717154  1
  O2-  O430  1  0.82899609  0.91409083  0.48011871  1
  O2-  O431  1  0.83475789  0.92288416  0.80846852  1
  O2-  O432  1  0.14847642  0.07930422  0.19213761  1
  O2-  O433  1  0.17120682  0.08330708  0.52529276  1
  O2-  O434  1  0.12507908  0.03754801  0.84350933  1
  O2-  O435  1  0.15922373  0.33766362  0.18409716  1
  O2-  O436  1  0.14717624  0.31650924  0.52950684  1
  O2-  O437  1  0.16463347  0.35239136  0.85547321  1
  O2-  O438  1  0.16651666  0.58761044  0.17666979  1
  O2-  O439  1  0.16571959  0.57198797  0.52254433  1
  O2-  O440  1  0.15434227  0.58454113  0.84704222  1
  O2-  O441  1  0.18737832  0.85454675  0.19893747  1
  O2-  O442  1  0.16873090  0.83201691  0.50020266  1
  O2-  O443  1  0.17231077  0.83803946  0.85804263  1
  O2-  O444  1  0.44810769  0.08834759  0.19243107  1
  O2-  O445  1  0.41541765  0.08877323  0.52877764  1
  O2-  O446  1  0.40913717  0.07960756  0.85580469  1
  O2-  O447  1  0.40931241  0.33525203  0.18772443  1
  O2-  O448  1  0.41814961  0.33449041  0.53100241  1
  O2-  O449  1  0.33716783  0.28271651  0.87013948  1
  O2-  O450  1  0.41104965  0.59075392  0.19229232  1
  O2-  O451  1  0.41322722  0.58405008  0.51714625  1
  O2-  O452  1  0.43142945  0.58235961  0.85854442  1
  O2-  O453  1  0.42931140  0.84288493  0.18300328  1
  O2-  O454  1  0.40963540  0.82568102  0.52392561  1
  O2-  O455  1  0.43695206  0.84333555  0.85004231  1
  O2-  O456  1  0.66501606  0.09528247  0.17566782  1
  O2-  O457  1  0.64854515  0.07612038  0.52483265  1
  O2-  O458  1  0.67593636  0.08628727  0.88017073  1
  O2-  O459  1  0.69389370  0.39111966  0.19773484  1
  O2-  O460  1  0.69223868  0.30379881  0.53499905  1
  O2-  O461  1  0.67435889  0.33022918  0.85727322  1
  O2-  O462  1  0.65400120  0.57950779  0.16829387  1
  O2-  O463  1  0.67613315  0.58851443  0.52177769  1
  O2-  O464  1  0.69033995  0.60953223  0.85684029  1
  O2-  O465  1  0.66483199  0.82862985  0.19771028  1
  O2-  O466  1  0.66712419  0.83928242  0.52273056  1
  O2-  O467  1  0.67416651  0.83963823  0.86024897  1
  O2-  O468  1  0.89248483  0.06754693  0.19187295  1
  O2-  O469  1  0.91743962  0.07725558  0.50593869  1
  O2-  O470  1  0.92283710  0.08656874  0.84940051  1
  O2-  O471  1  0.91246187  0.32266292  0.18274941  1
  O2-  O472  1  0.92291477  0.34025408  0.52085853  1
  O2-  O473  1  0.91630447  0.32924450  0.85430508  1
  O2-  O474  1  0.90598321  0.57354436  0.17234472  1
  O2-  O475  1  0.92353246  0.58803983  0.52185482  1
  O2-  O476  1  0.90914798  0.58224771  0.86491530  1
  O2-  O477  1  0.91469159  0.83407499  0.18658259  1
  O2-  O478  1  0.91854445  0.83525468  0.51981437  1
  O2-  O479  1  0.93024220  0.84759091  0.84406546  1
  O2-  O480  1  0.17160275  0.09524242  0.31180247  1
  O2-  O481  1  0.16100004  0.07513204  0.65156861  1
  O2-  O482  1  0.17972661  0.12101424  0.96943215  1
  O2-  O483  1  0.16218253  0.32547066  0.30701814  1
  O2-  O484  1  0.15601064  0.32262216  0.64548881  1
  O2-  O485  1  0.16390234  0.32875948  0.98204832  1
  O2-  O486  1  0.15059856  0.56462344  0.30096739  1
  O2-  O487  1  0.17016455  0.58212871  0.64887591  1
  O2-  O488  1  0.16792160  0.56622777  0.97313479  1
  O2-  O489  1  0.18047089  0.85373911  0.32629604  1
  O2-  O490  1  0.15987190  0.83447721  0.67926551  1
  O2-  O491  1  0.16382813  0.82743480  0.98062868  1
  O2-  O492  1  0.42977019  0.09338214  0.32109901  1
  O2-  O493  1  0.42104528  0.08907600  0.65261361  1
  O2-  O494  1  0.41521646  0.08592417  0.97599479  1
  O2-  O495  1  0.40763351  0.31886970  0.31852015  1
  O2-  O496  1  0.41779430  0.32778978  0.65391392  1
  O2-  O497  1  0.43372994  0.36735214  0.95958798  1
  O2-  O498  1  0.40850032  0.57494439  0.30946870  1
  O2-  O499  1  0.41595616  0.58491258  0.64081901  1
  O2-  O500  1  0.41783275  0.58268995  0.98244601  1
  O2-  O501  1  0.41703859  0.84036999  0.31608850  1
  O2-  O502  1  0.42205145  0.83870332  0.64816164  1
  O2-  O503  1  0.45168369  0.80767661  0.97015776  1
  O2-  O504  1  0.66430979  0.06274116  0.32197859  1
  O2-  O505  1  0.66390367  0.08043436  0.64846468  1
  O2-  O506  1  0.67080852  0.07919758  0.94738208  1
  O2-  O507  1  0.66836515  0.33298853  0.31717142  1
  O2-  O508  1  0.67343506  0.33264515  0.65740659  1
  O2-  O509  1  0.67378452  0.33304834  0.97254884  1
  O2-  O510  1  0.65214777  0.58554556  0.32880892  1
  O2-  O511  1  0.67247091  0.58725921  0.65072532  1
  O2-  O512  1  0.66244053  0.59143934  0.98058639  1
  O2-  O513  1  0.65319649  0.83570562  0.31826769  1
  O2-  O514  1  0.66479009  0.83400252  0.64732394  1
  O2-  O515  1  0.66725618  0.83671905  0.98465327  1
  O2-  O516  1  0.90957372  0.08168180  0.30985878  1
  O2-  O517  1  0.91479158  0.08177666  0.64288744  1
  O2-  O518  1  0.91790153  0.08236166  0.97568525  1
  O2-  O519  1  0.90699057  0.32202010  0.30818078  1
  O2-  O520  1  0.91678633  0.33453463  0.64462790  1
  O2-  O521  1  0.92173955  0.32240719  0.97985938  1
  O2-  O522  1  0.90529961  0.58136764  0.30296169  1
  O2-  O523  1  0.91973662  0.58797816  0.64675954  1
  O2-  O524  1  0.89218778  0.59104369  0.98713002  1
  O2-  O525  1  0.90824697  0.83538817  0.31212687  1
  O2-  O526  1  0.91557024  0.83425878  0.64356915  1
  O2-  O527  1  0.91983194  0.84720052  0.97043294  1
  O2-  O528  1  0.08063798  0.16861520  0.01959651  1
  O2-  O529  1  0.07470438  0.15797516  0.35200078  1
  O2-  O530  1  0.07482450  0.15901668  0.68746911  1
  O2-  O531  1  0.07198582  0.41935261  0.02638859  1
  O2-  O532  1  0.07436492  0.40442070  0.34953717  1
  O2-  O533  1  0.08368547  0.41458629  0.68607162  1
  O2-  O534  1  0.09258147  0.66341921  0.01263277  1
  O2-  O535  1  0.14637878  0.69682254  0.36555657  1
  O2-  O536  1  0.07811536  0.65615617  0.69728760  1
  O2-  O537  1  0.06611421  0.96490631  0.03501323  1
  O2-  O538  1  0.07559416  0.92272735  0.35184708  1
  O2-  O539  1  0.07212166  0.91411510  0.69987431  1
  O2-  O540  1  0.33889233  0.18233372  0.01573480  1
  O2-  O541  1  0.31731183  0.16870103  0.35992234  1
  O2-  O542  1  0.32638078  0.16024362  0.69090657  1
  O2-  O543  1  0.33076057  0.41874085  0.02635683  1
  O2-  O544  1  0.33469497  0.40868668  0.35301739  1
  O2-  O545  1  0.33227065  0.41888963  0.68730282  1
  O2-  O546  1  0.32652503  0.65235217  0.02483601  1
  O2-  O547  1  0.28981219  0.68734410  0.36428590  1
  O2-  O548  1  0.33943227  0.66948847  0.68556381  1
  O2-  O549  1  0.33959671  0.92852826  0.02547493  1
  O2-  O550  1  0.34683874  0.93126687  0.36134593  1
  O2-  O551  1  0.33964035  0.92120571  0.69233314  1
  O2-  O552  1  0.58561707  0.16147473  0.00146065  1
  O2-  O553  1  0.59098773  0.16752420  0.35823185  1
  O2-  O554  1  0.58487549  0.16248736  0.70041907  1
  O2-  O555  1  0.59216227  0.41679187  0.01145501  1
  O2-  O556  1  0.57211010  0.41097913  0.35566610  1
  O2-  O557  1  0.58815201  0.41385475  0.69591388  1
  O2-  O558  1  0.57933203  0.67215204  0.02516975  1
  O2-  O559  1  0.57062091  0.66614527  0.36012992  1
  O2-  O560  1  0.58414072  0.66808983  0.68996277  1
  O2-  O561  1  0.59815854  0.92931497  0.02151037  1
  O2-  O562  1  0.57271105  0.91055938  0.36727229  1
  O2-  O563  1  0.58781361  0.92026427  0.69707975  1
  O2-  O564  1  0.82813492  0.15598393  0.00886462  1
  O2-  O565  1  0.83056455  0.16405307  0.36048853  1
  O2-  O566  1  0.83300103  0.16644097  0.68652112  1
  O2-  O567  1  0.83064853  0.39925714  0.00468061  1
  O2-  O568  1  0.83672702  0.41382091  0.35060581  1
  O2-  O569  1  0.83893567  0.42291236  0.69114723  1
  O2-  O570  1  0.82543516  0.68510079  0.02029130  1
  O2-  O571  1  0.83096501  0.66480665  0.35324747  1
  O2-  O572  1  0.84020549  0.67347026  0.69325283  1
  O2-  O573  1  0.83447307  0.91961817  0.02349541  1
  O2-  O574  1  0.82406287  0.91306611  0.35690107  1
  O2-  O575  1  0.83171834  0.91537464  0.68512597  1
