# generated using pymatgen
data_H2O
_symmetry_space_group_name_H-M   'P 1'
_cell_length_a   18.00058904
_cell_length_b   17.99932036
_cell_length_c   22.01532747
_cell_angle_alpha   89.99196329
_cell_angle_beta   90.00998174
_cell_angle_gamma   119.97611760
_symmetry_Int_Tables_number   1
_chemical_formula_structural   H2O
_chemical_formula_sum   'H384 O192'
_cell_volume   6178.78470331
_cell_formula_units_Z   192
loop_
 _symmetry_equiv_pos_site_id
 _symmetry_equiv_pos_as_xyz
  1  'x, y, z'
loop_
 _atom_type_symbol
 _atom_type_oxidation_number
  H+  1.0
  O2-  -2.0
loop_
 _atom_site_type_symbol
 _atom_site_label
 _atom_site_symmetry_multiplicity
 _atom_site_fract_x
 _atom_site_fract_y
 _atom_site_fract_z
 _atom_site_occupancy
  H+  H0  1  0.61805694  0.48474277  0.80765921  1
  H+  H1  1  0.11077631  0.73226479  1.00885225  1
  H+  H2  1  0.78199563  0.42574585  0.17304368  1
  H+  H3  1  0.60022316  0.14506161  0.17132031  1
  H+  H4  1  0.39338184  0.22928762  0.84194602  1
  H+  H5  1  0.15695132  0.02880465  0.32026825  1
  H+  H6  1  0.61159443  0.99638843  0.17256934  1
  H+  H7  1  0.11766695  0.38366390  0.65219326  1
  H+  H8  1  0.39698474  0.27994300  0.15505095  1
  H+  H9  1  0.85405001  0.96783053  0.68160751  1
  H+  H10  1  0.70954429  0.31659133  0.17249670  1
  H+  H11  1  0.84653729  -0.04639061  0.83593067  1
  H+  H12  1  0.98583731  0.37792864  1.01508362  1
  H+  H13  1  0.38432214  0.13040065  0.82631852  1
  H+  H14  1  0.35396515  0.96478209  0.66733735  1
  H+  H15  1  0.84733953  -0.03202314  1.01203623  1
  H+  H16  1  0.52825515  0.90682030  0.16465004  1
  H+  H17  1  0.62338168  0.86790457  0.85627542  1
  H+  H18  1  0.06675023  0.64992471  0.76039670  1
  H+  H19  1  0.39017989  0.87979001  0.33442505  1
  H+  H20  1  0.59859071  0.23320247  0.16773942  1
  H+  H21  1  0.64203429  0.27581772  0.83908464  1
  H+  H22  1  0.38175023  0.11944337  0.17426517  1
  H+  H23  1  0.07789975  0.30950485  0.33890032  1
  H+  H24  1  0.17907372  0.08958324  0.56600051  1
  H+  H25  1  0.40345957  0.35905969  0.84751188  1
  H+  H26  1  0.15444598  0.11362678  0.32076673  1
  H+  H27  1  -0.06597090  0.32726789  0.32792886  1
  H+  H28  1  0.92624270  0.10701162  0.58374062  1
  H+  H29  1  0.93926750  0.83356354  0.25671175  1
  H+  H30  1  0.76130107  0.87705632  1.01141698  1
  H+  H31  1  0.85780579  0.45851987  0.65937784  1
  H+  H32  1  0.97658789  0.87060909  0.66185706  1
  H+  H33  1  0.85910340  0.63819726  -0.00481028  1
  H+  H34  1  0.83820816  0.10995085  0.83020198  1
  H+  H35  1  0.96851312  0.19192460  0.62003511  1
  H+  H36  1  0.92553407  0.10572878  0.36277951  1
  H+  H37  1  0.84141266  0.74327279  0.50456197  1
  H+  H38  1  0.61479941  0.22325739  0.67142102  1
  H+  H39  1  0.60188063  0.63011350  1.01159738  1
  H+  H40  1  0.21979919  0.86430590  0.00201512  1
  H+  H41  1  0.39931288  0.62076019  0.83769745  1
  H+  H42  1  0.91316109  0.08243125  0.24373523  1
  H+  H43  1  -0.01491506  0.41151574  0.49665941  1
  H+  H44  1  0.87853372  0.51222510  0.83760577  1
  H+  H45  1  1.02077214  0.90879332  0.49345792  1
  H+  H46  1  0.22732038  0.38091686  0.99428945  1
  H+  H47  1  0.38590998  0.01498555  0.50536221  1
  H+  H48  1  0.84645634  0.48140720  0.34362121  1
  H+  H49  1  0.66648940  0.11861508  0.49239434  1
  H+  H50  1  0.21927399  0.33292874  0.31516127  1
  H+  H51  1  0.23361756  0.10425129  0.65625401  1
  H+  H52  1  0.10163427  0.71953882  0.66562813  1
  H+  H53  1  0.77333759  0.16900408  0.00928481  1
  H+  H54  1  0.85790544  0.72600081  0.99617034  1
  H+  H55  1  0.87781772  0.00533183  0.33870897  1
  H+  H56  1  0.74664651  0.60239562  0.84148045  1
  H+  H57  1  0.90578736  0.63719623  0.17903459  1
  H+  H58  1  0.24534272  0.31228644  0.51086407  1
  H+  H59  1  0.27418776  0.63319977  0.36251830  1
  H+  H60  1  0.38771052  0.35478469  0.66271631  1
  H+  H61  1  -0.01339128  0.63852227  0.52064030  1
  H+  H62  1  0.24641117  0.52256387  0.50176935  1
  H+  H63  1  0.86460219  0.41162450  0.16918431  1
  H+  H64  1  0.86218953  0.98355617  0.48791793  1
  H+  H65  1  0.67031240  0.31879717  0.60093135  1
  H+  H66  1  0.38488363  0.36013925  0.34290448  1
  H+  H67  1  0.82600363  0.11280018  0.35322379  1
  H+  H68  1  0.95661009  0.11299223  1.00467410  1
  H+  H69  1  0.12518501  0.35862782  0.17543194  1
  H+  H70  1  0.17533167  0.12039477  0.82757502  1
  H+  H71  1  0.11239671  0.47858570  0.01596867  1
  H+  H72  1  0.48226131  0.35201720  0.50827525  1
  H+  H73  1  0.31540706  0.38251769  -0.01772136  1
  H+  H74  1  0.14907654  0.88850130  0.32324770  1
  H+  H75  1  0.71816700  0.10916005  0.84609377  1
  H+  H76  1  0.47957111  0.10674877  0.66038615  1
  H+  H77  1  0.71658991  0.12300791  0.18076206  1
  H+  H78  1  0.42634950  0.37215812  1.00742869  1
  H+  H79  1  0.52098146  0.63081129  0.68448132  1
  H+  H80  1  0.88351147  0.86323408  -0.00883155  1
  H+  H81  1  0.72250590  0.61268094  0.99615237  1
  H+  H82  1  0.09802662  0.22673819  0.48295495  1
  H+  H83  1  0.25925160  0.37315928  0.15017162  1
  H+  H84  1  0.87087911  0.11851976  1.00342514  1
  H+  H85  1  0.38907755  0.02804941  0.32731064  1
  H+  H86  1  0.87069665  0.73423185  0.16395360  1
  H+  H87  1  0.10576354  0.87972493  0.67311575  1
  H+  H88  1  0.24533289  0.89260593  0.49147836  1
  H+  H89  1  0.73440195  0.36193976  0.51497782  1
  H+  H90  1  0.13946069  0.57998505  0.50024091  1
  H+  H91  1  0.22748481  0.62229279  1.00048891  1
  H+  H92  1  0.37470536  0.47438786  0.83278757  1
  H+  H93  1  0.13821599  0.87362841  0.16734688  1
  H+  H94  1  0.33652313  0.39948209  0.74313748  1
  H+  H95  1  0.62645861  0.47253973  1.00849469  1
  H+  H96  1  0.36986856  0.80162610  0.18932429  1
  H+  H97  1  0.76559074  0.37308882  0.66823987  1
  H+  H98  1  0.36650081  0.52351968  -0.01561575  1
  H+  H99  1  0.10734080  0.63932925  0.82252889  1
  H+  H100  1  0.74754111  0.37261110  0.99736390  1
  H+  H101  1  0.37906856  0.60070296  0.68474519  1
  H+  H102  1  0.90557764  0.54911884  0.17873571  1
  H+  H103  1  0.40473887  0.66931716  0.46993982  1
  H+  H104  1  0.27102622  0.89404488  0.33581211  1
  H+  H105  1  0.28399320  0.66395816  0.84203407  1
  H+  H106  1  0.73728475  0.56400672  0.29595863  1
  H+  H107  1  0.63337740  0.35304185  0.32199671  1
  H+  H108  1  0.38431652  0.89355350  0.17561271  1
  H+  H109  1  0.28496107  0.63577063  0.14035125  1
  H+  H110  1  0.10565216  0.78385724  0.50904424  1
  H+  H111  1  0.98260387  0.59476961  0.63416070  1
  H+  H112  1  0.23275500  0.86296501  0.85367845  1
  H+  H113  1  0.87007682  0.41190316  0.49696311  1
  H+  H114  1  0.11658194  0.64841824  0.52169993  1
  H+  H115  1  0.76772719  0.37990618  0.82105980  1
  H+  H116  1  0.07644656  0.42672594  0.33452619  1
  H+  H117  1  0.08963107  0.93798112  0.39969105  1
  H+  H118  1  0.64313709  0.78189669  0.31941272  1
  H+  H119  1  0.08482881  0.68070158  0.10136399  1
  H+  H120  1  0.36252962  0.12739736  0.66544051  1
  H+  H121  1  0.63690278  0.87936654  0.17646185  1
  H+  H122  1  0.37444705  0.14061776  0.34258299  1
  H+  H123  1  0.78645872  0.64189438  0.15798067  1
  H+  H124  1  0.55749980  0.12897478  0.08085167  1
  H+  H125  1  0.37845519  0.37120530  0.50204384  1
  H+  H126  1  0.30602129  0.85660998  0.47784931  1
  H+  H127  1  0.14589908  0.10778788  0.65462468  1
  H+  H128  1  0.84486956  0.22212795  0.64974340  1
  H+  H129  1  0.53033749  0.39729574  0.80910909  1
  H+  H130  1  0.14541378  0.12063207  0.98569268  1
  H+  H131  1  0.65442857  0.26504132  0.51107915  1
  H+  H132  1  0.76689620  0.89055110  0.33783950  1
  H+  H133  1  0.59690846  0.60136379  0.82300186  1
  H+  H134  1  0.86380788  0.34746442  0.81311444  1
  H+  H135  1  0.28613658  0.13452020  0.84027094  1
  H+  H136  1  0.86964242  0.63246365  0.82431545  1
  H+  H137  1  0.87425658  0.52343724  0.53608249  1
  H+  H138  1  0.29117127  0.38029152  0.83836251  1
  H+  H139  1  0.63199374  0.59437216  0.15570411  1
  H+  H140  1  0.11359816  0.97202518  0.67119030  1
  H+  H141  1  -0.02740750  0.35672317  0.64440187  1
  H+  H142  1  0.60578218  0.46341746  0.33608014  1
  H+  H143  1  0.50920947  0.36429016  0.00051506  1
  H+  H144  1  0.35503218  0.88670300  0.00915754  1
  H+  H145  1  0.28427404  0.13698608  0.34057126  1
  H+  H146  1  0.61736518  0.89525894  0.33459918  1
  H+  H147  1  0.08870511  0.60445009  0.34152384  1
  H+  H148  1  0.84118607  0.13289037  0.65559001  1
  H+  H149  1  0.52755097  0.13242314  0.81521668  1
  H+  H150  1  0.91323560  0.62348953  0.33284827  1
  H+  H151  1  0.51535283  0.37682243  0.34133825  1
  H+  H152  1  0.47711878  0.35519988  0.65495771  1
  H+  H153  1  0.02765217  0.10772272  0.33464917  1
  H+  H154  1  0.53728969  0.57174883  0.50812293  1
  H+  H155  1  0.63002531  0.77236992  1.00057460  1
  H+  H156  1  0.89165151  0.53166393  -0.00268886  1
  H+  H157  1  0.53941103  0.12787289  0.49418259  1
  H+  H158  1  0.86170840  0.88371811  0.67635482  1
  H+  H159  1  0.60380439  -0.01562672  0.84848913  1
  H+  H160  1  0.23279198  0.11801367  0.98769009  1
  H+  H161  1  0.40566451  0.05145286  0.76843475  1
  H+  H162  1  0.37513668  0.21844905  0.49743917  1
  H+  H163  1  0.47225698  0.12100633  0.17679427  1
  H+  H164  1  0.07660328  0.76349087  0.34190765  1
  H+  H165  1  0.71883461  0.86678700  0.17395847  1
  H+  H166  1  0.87615707  0.37163107  0.33085007  1
  H+  H167  1  0.87742411  0.10227416  0.18217460  1
  H+  H168  1  0.24829078  0.70855816  0.49944639  1
  H+  H169  1  0.05904418  0.11515534  0.80641501  1
  H+  H170  1  0.35981410  0.63836982  -0.01026439  1
  H+  H171  1  0.96258202  0.37812387  0.17528110  1
  H+  H172  1  0.82031365  0.90012000  0.77443020  1
  H+  H173  1  0.01313439  0.13043746  0.16722046  1
  H+  H174  1  0.63567745  0.35201227  0.65649055  1
  H+  H175  1  -0.01859012  0.87351211  0.16643014  1
  H+  H176  1  0.23822392  0.35850579  0.66284574  1
  H+  H177  1  0.71489898  0.11166518  0.64748303  1
  H+  H178  1  0.37667215  0.77606903  -0.01316338  1
  H+  H179  1  0.86169121  0.97394935  0.16420860  1
  H+  H180  1  0.51344214  0.63059267  0.00805258  1
  H+  H181  1  0.10844339  0.63395902  0.66950246  1
  H+  H182  1  0.10887309  0.88193979  0.82928403  1
  H+  H183  1  0.99229472  0.35395379  0.79499983  1
  H+  H184  1  0.44578720  0.70159915  0.48523223  1
  H+  H185  1  0.58214136  0.65045567  0.76826108  1
  H+  H186  1  0.70391850  0.69751158  0.46925724  1
  H+  H187  1  0.74213731  0.60024338  0.52506167  1
  H+  H188  1  0.86861604  0.23978607  0.02252588  1
  H+  H189  1  0.65205849  0.35080919  0.99248173  1
  H+  H190  1  0.11099089  0.97964557  -0.00093659  1
  H+  H191  1  0.77803606  0.89172710  0.49620730  1
  H+  H192  1  0.12017674  0.46132399  0.46036344  1
  H+  H193  1  0.39162346  0.58994138  0.16892151  1
  H+  H194  1  0.13050309  0.86480590  0.99933139  1
  H+  H195  1  0.07878297  0.43983372  0.80099757  1
  H+  H196  1  0.75986915  0.05225853  0.13033069  1
  H+  H197  1  0.08254572  0.64251545  0.33828293  1
  H+  H198  1  0.63598726  0.13939658  1.00413139  1
  H+  H199  1  0.27246556  0.13995898  0.15333503  1
  H+  H200  1  0.38504332  0.27187859  0.33927042  1
  H+  H201  1  0.84344216  0.63971643  0.66426469  1
  H+  H202  1  0.88263849  0.84898417  0.84001151  1
  H+  H203  1  0.88996174  0.87807011  0.50794337  1
  H+  H204  1  0.17187233  0.21624118  0.04955993  1
  H+  H205  1  0.64884960  0.86075781  0.50616609  1
  H+  H206  1  0.66719898  0.78322528  0.50205774  1
  H+  H207  1  0.86681658  0.75342051  0.34721870  1
  H+  H208  1  0.60158630  0.87808066  0.00324882  1
  H+  H209  1  0.37122972  0.49016017  0.53330984  1
  H+  H210  1  0.11133703  0.47651516  0.15999199  1
  H+  H211  1  0.59436412  0.96018771  0.02258824  1
  H+  H212  1  0.38025657  0.49787907  0.17057807  1
  H+  H213  1  0.36286605  0.46624558  0.68953065  1
  H+  H214  1  0.38767603  0.76774388  0.67406342  1
  H+  H215  1  0.76742672  0.38756659  0.34765891  1
  H+  H216  1  0.02278495  0.64065069  0.00587324  1
  H+  H217  1  0.60649908  0.72071805  0.67876649  1
  H+  H218  1  0.37536546  0.22763675  1.00309816  1
  H+  H219  1  0.11969934  0.87931596  0.50689561  1
  H+  H220  1  0.03895824  0.90137046  0.33559018  1
  H+  H221  1  0.62207764  0.44296255  0.49732580  1
  H+  H222  1  0.61882878  0.14129440  0.82799603  1
  H+  H223  1  0.60449611  0.41140251  0.06729964  1
  H+  H224  1  0.89004187  0.87014935  0.17364694  1
  H+  H225  1  0.39809816  0.10781758  0.50652903  1
  H+  H226  1  0.95258833  0.13059862  0.48857249  1
  H+  H227  1  0.19396090  0.21187753  0.52884173  1
  H+  H228  1  0.77756321  0.66762418  0.34335858  1
  H+  H229  1  0.51231339  0.90502972  0.83932376  1
  H+  H230  1  0.52502257  0.14116152  0.34053273  1
  H+  H231  1  0.16592800  0.58399218  0.09094765  1
  H+  H232  1  0.87280297  0.40454637  0.02910935  1
  H+  H233  1  0.96864354  0.59907355  0.83613859  1
  H+  H234  1  0.46653424  0.86413009  0.98950428  1
  H+  H235  1  0.95386046  0.09724086  0.86048666  1
  H+  H236  1  0.53105739  0.90220087  0.33848108  1
  H+  H237  1  0.88722015  0.78198917  0.65984213  1
  H+  H238  1  0.04084163  0.14503190  0.66356193  1
  H+  H239  1  0.38114358  0.49225699  0.34375536  1
  H+  H240  1  0.12162861  0.26662450  0.17081756  1
  H+  H241  1  0.13197455  0.37567718  0.50528604  1
  H+  H242  1  0.70416235  0.85374896  0.84893211  1
  H+  H243  1  0.51923460  0.55985635  0.47661116  1
  H+  H244  1  0.44487570  0.91986398  0.53826689  1
  H+  H245  1  0.50403150  0.09451084  1.01943912  1
  H+  H246  1  0.62186379  0.10894903  0.66012870  1
  H+  H247  1  0.11669447  0.24332105  0.00868960  1
  H+  H248  1  0.13529359  0.62342349  1.00474134  1
  H+  H249  1  0.27160408  0.63475423  0.68429176  1
  H+  H250  1  0.11611300  -0.01644023  0.15427058  1
  H+  H251  1  0.03605330  0.65351512  0.16592475  1
  H+  H252  1  0.62246520  1.01090637  0.65527712  1
  H+  H253  1  0.27381222  0.90389593  0.16055336  1
  H+  H254  1  0.11151443  0.19973180  0.32819569  1
  H+  H255  1  0.41744735  0.08820944  0.26767707  1
  H+  H256  1  0.38479230  0.70762445  0.14769536  1
  H+  H257  1  0.37245847  0.01086709  0.99347218  1
  H+  H258  1  0.61081202  0.45955935  0.64090803  1
  H+  H259  1  0.29033183  0.44097639  0.37497938  1
  H+  H260  1  0.25181976  0.55500819  0.52531020  1
  H+  H261  1  0.66710720  0.82912280  0.60096792  1
  H+  H262  1  0.54046563  0.38573991  0.14938259  1
  H+  H263  1  0.24021617  0.11906750  0.50729628  1
  H+  H264  1  0.13515035  0.11477136  0.17277896  1
  H+  H265  1  0.42525682  0.76426306  0.33651928  1
  H+  H266  1  0.13751334  0.52231352  0.65357403  1
  H+  H267  1  0.36078462  0.21516540  0.66640300  1
  H+  H268  1  0.24088613  0.63743101  0.38032259  1
  H+  H269  1  0.48306678  0.60865319  0.83661131  1
  H+  H270  1  0.15921700  0.25667040  0.83809360  1
  H+  H271  1  0.16282968  0.54789909  0.85870605  1
  H+  H272  1  0.61661944  0.89370437  0.66298003  1
  H+  H273  1  0.13200934  0.23164500  0.66614629  1
  H+  H274  1  0.36320974  0.13312548  -0.00082218  1
  H+  H275  1  0.62723700  0.37831619  0.15831010  1
  H+  H276  1  0.09112646  0.35702300  0.52354983  1
  H+  H277  1  0.21728956  0.85505874  0.65846231  1
  H+  H278  1  0.75327355  0.13491229  0.34830994  1
  H+  H279  1  0.39345976  0.82304104  0.51753955  1
  H+  H280  1  0.69665923  0.22955393  0.97488848  1
  H+  H281  1  0.64195500  0.64629068  0.32174195  1
  H+  H282  1  0.83672888  0.19144824  0.80372266  1
  H+  H283  1  0.35149735  0.87629415  0.67676903  1
  H+  H284  1  0.01948944  0.89183388  0.00153157  1
  H+  H285  1  0.53854383  0.88454709  0.49463118  1
  H+  H286  1  0.52696254  0.89141578  0.67480709  1
  H+  H287  1  0.43029670  0.62817697  0.32086456  1
  H+  H288  1  0.88327118  0.35671066  0.65027206  1
  H+  H289  1  0.15919495  0.31323911  0.25637214  1
  H+  H290  1  0.82988225  0.91452369  0.10376369  1
  H+  H291  1  0.36298052  0.99579882  0.16197714  1
  H+  H292  1  0.89956216  0.34811215  0.23206379  1
  H+  H293  1  0.64908627  0.51645125  0.16088401  1
  H+  H294  1  0.17586308  0.08688466  0.22729979  1
  H+  H295  1  0.57895510  0.40419731  0.43266133  1
  H+  H296  1  0.42305765  0.83231377  0.61698565  1
  H+  H297  1  0.88974478  0.06597590  0.91468918  1
  H+  H298  1  0.42976777  0.57113103  0.26396249  1
  H+  H299  1  0.81443642  0.14216411  0.09996872  1
  H+  H300  1  0.68198531  0.58047219  0.24789321  1
  H+  H301  1  0.97601507  0.85408101  0.83889880  1
  H+  H302  1  0.33255435  0.16313167  0.09432815  1
  H+  H303  1  0.07443996  0.39947772  0.70985449  1
  H+  H304  1  0.71741411  0.85595065  0.66353085  1
  H+  H305  1  0.83986500  0.67238712  0.73053867  1
  H+  H306  1  0.35118976  0.41354864  0.44736209  1
  H+  H307  1  0.40024004  0.56085249  0.62708250  1
  H+  H308  1  0.79108895  0.14730481  0.44062276  1
  H+  H309  1  0.34218608  0.66801584  0.05264963  1
  H+  H310  1  0.10329578  0.38143376  0.01197475  1
  H+  H311  1  0.81030695  0.69052796  0.44268599  1
  H+  H312  1  0.44248998  0.33734768  0.90561885  1
  H+  H313  1  0.70548866  0.51559050  0.87798980  1
  H+  H314  1  0.11240555  0.99853767  0.49264047  1
  H+  H315  1  0.18906504  0.29233239  0.90422199  1
  H+  H316  1  0.39397056  -0.00089999  0.83037769  1
  H+  H317  1  0.43363079  0.58992698  0.53345187  1
  H+  H318  1  0.63420462  1.02911029  0.32912225  1
  H+  H319  1  0.16980845  0.59832726  0.60481309  1
  H+  H320  1  0.07479955  0.90551692  0.76954187  1
  H+  H321  1  0.92027792  0.84898768  0.56843670  1
  H+  H322  1  0.02408421  0.66038835  0.45262133  1
  H+  H323  1  0.97048101  0.78133066  0.29782096  1
  H+  H324  1  0.39696891  0.36704526  0.14951485  1
  H+  H325  1  0.54960095  0.63598920  0.32772152  1
  H+  H326  1  0.06527411  0.17507129  0.42144580  1
  H+  H327  1  0.64006783  0.69661625  0.41809044  1
  H+  H328  1  0.66577452  0.84452611  0.26195528  1
  H+  H329  1  0.09349759  0.50118830  0.40786822  1
  H+  H330  1  0.86821279  0.72158051  0.82767699  1
  H+  H331  1  0.83590791  0.44137104  0.07977347  1
  H+  H332  1  0.34351522  0.16023418  0.43734295  1
  H+  H333  1  0.16497620  0.83759812  0.90548735  1
  H+  H334  1  0.14340723  0.78682837  0.17043444  1
  H+  H335  1  0.66881192  0.32605007  0.26306798  1
  H+  H336  1  0.92536073  0.35503656  0.55192390  1
  H+  H337  1  0.42343932  0.07535324  0.59959720  1
  H+  H338  1  0.42359111  0.86408044  0.27120614  1
  H+  H339  1  0.61662689  0.22936053  0.33819995  1
  H+  H340  1  0.01121003  0.75807816  0.39176208  1
  H+  H341  1  0.15463617  0.83337724  0.60075093  1
  H+  H342  1  0.85499276  0.10669404  0.50361809  1
  H+  H343  1  0.33177427  0.92440693  0.06890055  1
  H+  H344  1  0.82497988  0.91230799  0.39886994  1
  H+  H345  1  0.32966174  0.67106870  0.74496842  1
  H+  H346  1  0.14724224  0.62763797  0.14558042  1
  H+  H347  1  0.08386903  0.92403734  0.09430575  1
  H+  H348  1  0.19031262  0.31464034  0.59962592  1
  H+  H349  1  0.58517657  0.42488058  0.71018915  1
  H+  H350  1  0.11224174  0.16633840  0.74933132  1
  H+  H351  1  0.30855249  0.40689687  0.08721494  1
  H+  H352  1  0.58862806  0.90741695  0.43033871  1
  H+  H353  1  0.39820901  0.85708411  0.90496267  1
  H+  H354  1  0.16793530  0.84861638  0.26319524  1
  H+  H355  1  0.66242785  0.09949507  0.24309448  1
  H+  H356  1  0.65955038  0.83362765  0.94115494  1
  H+  H357  1  0.58895225  0.16587311  0.73271336  1
  H+  H358  1  0.41998116  0.32180398  0.56908424  1
  H+  H359  1  0.31998565  0.92388198  0.39931544  1
  H+  H360  1  0.65820605  0.57620492  0.94161515  1
  H+  H361  1  0.62912709  0.11762307  0.33250412  1
  H+  H362  1  0.91822572  0.58000278  0.93251491  1
  H+  H363  1  0.41455484  0.06813413  0.93454149  1
  H+  H364  1  0.07486573  0.41061608  0.10768154  1
  H+  H365  1  0.89922930  0.58583066  0.26711651  1
  H+  H366  1  0.67308153  0.11944875  0.90727312  1
  H+  H367  1  0.83095467  0.44258965  0.44444160  1
  H+  H368  1  0.91894322  0.35563164  0.96088216  1
  H+  H369  1  0.91639787  0.83449496  0.93164371  1
  H+  H370  1  0.17061343  0.60163596  0.91612340  1
  H+  H371  1  0.41431536  0.58348801  0.92706752  1
  H+  H372  1  0.59282536  0.16493165  0.43329318  1
  H+  H373  1  0.47794841  0.74268613  0.38286501  1
  H+  H374  1  0.19035894  0.09347201  0.89540231  1
  H+  H375  1  0.30821973  0.73681333  0.44033831  1
  H+  H376  1  0.02705211  0.29383032  0.39993931  1
  H+  H377  1  0.07175905  0.16137643  0.10593730  1
  H+  H378  1  0.88929940  0.29996738  0.86307410  1
  H+  H379  1  0.15081209  0.51366782  0.30790403  1
  H+  H380  1  0.36398448  0.75476151  0.83012918  1
  H+  H381  1  0.68365950  0.33372653  0.89818152  1
  H+  H382  1  0.11340696  0.32247693  0.94127349  1
  H+  H383  1  0.82598984  0.41207933  0.75880354  1
  O2-  O384  1  0.07348093  0.16194004  0.15101188  1
  O2-  O385  1  0.04811811  0.20117552  0.45443228  1
  O2-  O386  1  0.11611658  0.16089805  0.79553499  1
  O2-  O387  1  0.07655598  0.41393057  0.15326849  1
  O2-  O388  1  0.09111009  0.49404068  0.45330084  1
  O2-  O389  1  0.05455945  0.38280753  0.78366388  1
  O2-  O390  1  0.09505924  0.68323832  0.14635152  1
  O2-  O391  1  0.04032920  0.67325501  0.49537486  1
  O2-  O392  1  0.05953474  0.64347839  0.80500913  1
  O2-  O393  1  0.08489809  0.92257772  0.13995125  1
  O2-  O394  1  0.08078868  0.93855631  0.47629345  1
  O2-  O395  1  0.07051885  0.90332544  0.81441645  1
  O2-  O396  1  0.33333426  0.16701796  0.13944676  1
  O2-  O397  1  0.34444564  0.15726623  0.48287964  1
  O2-  O398  1  0.35718010  0.16782984  0.82727128  1
  O2-  O399  1  0.31693651  0.40115285  0.13103329  1
  O2-  O400  1  0.34245730  0.39928226  0.49097722  1
  O2-  O401  1  0.35092650  0.41238863  0.82235809  1
  O2-  O402  1  0.34566312  0.65182518  0.13027069  1
  O2-  O403  1  0.30098820  0.75784360  0.47945295  1
  O2-  O404  1  0.34103918  0.69290138  0.82201487  1
  O2-  O405  1  0.33474293  0.93449702  0.14565871  1
  O2-  O406  1  0.30447780  0.91099939  0.47564173  1
  O2-  O407  1  0.35021217  0.91284116  0.85509743  1
  O2-  O408  1  0.56638118  0.16995567  0.15325154  1
  O2-  O409  1  0.59880256  0.15882525  0.47806791  1
  O2-  O410  1  0.58998098  0.17113448  0.80790288  1
  O2-  O411  1  0.60300391  0.41337489  0.13874902  1
  O2-  O412  1  0.57031058  0.39839878  0.47732164  1
  O2-  O413  1  0.57187141  0.44167343  0.78160669  1
  O2-  O414  1  0.54368780  0.59770486  0.11899840  1
  O2-  O415  1  0.65361102  0.70502276  0.46191439  1
  O2-  O416  1  0.57479370  0.63947069  0.81368805  1
  O2-  O417  1  0.58980959  0.93806809  0.15508229  1
  O2-  O418  1  0.58325081  0.88151231  0.47101564  1
  O2-  O419  1  0.57344429  0.92420745  0.83406404  1
  O2-  O420  1  0.80059607  0.11197224  0.14036255  1
  O2-  O421  1  0.78668261  0.14674716  0.48712426  1
  O2-  O422  1  0.80225595  0.12884121  0.80908332  1
  O2-  O423  1  0.83935184  0.44941084  0.15447082  1
  O2-  O424  1  0.83566240  0.44200870  0.48967795  1
  O2-  O425  1  0.82900355  0.40925262  0.80419733  1
  O2-  O426  1  0.84954092  0.67350864  0.15320761  1
  O2-  O427  1  0.79447683  0.68909187  0.48668277  1
  O2-  O428  1  0.83828475  0.66210769  0.80958576  1
  O2-  O429  1  0.83119878  0.91395103  0.14934900  1
  O2-  O430  1  0.83734263  0.92215532  0.47656474  1
  O2-  O431  1  0.81950314  0.89476435  0.81949185  1
  O2-  O432  1  0.16939681  0.08649978  0.18184096  1
  O2-  O433  1  0.18113800  0.10336677  0.52135827  1
  O2-  O434  1  0.20638389  0.09717799  0.85131133  1
  O2-  O435  1  0.15618441  0.32688154  0.18634170  1
  O2-  O436  1  0.19102323  0.26576265  0.52943887  1
  O2-  O437  1  0.18709124  0.31015464  0.86264174  1
  O2-  O438  1  0.17598221  0.59325761  0.13489898  1
  O2-  O439  1  0.16090818  0.63124072  0.52761294  1
  O2-  O440  1  0.17856109  0.60580510  0.87094426  1
  O2-  O441  1  0.17130698  0.84770997  0.18550352  1
  O2-  O442  1  0.14569692  0.84418845  0.52116864  1
  O2-  O443  1  0.17145068  0.84333223  0.86082307  1
  O2-  O444  1  0.41000420  0.08811783  0.19164159  1
  O2-  O445  1  0.42546298  0.07366626  0.52046680  1
  O2-  O446  1  0.41759286  0.06211341  0.81182744  1
  O2-  O447  1  0.43385322  0.34275151  0.15944153  1
  O2-  O448  1  0.42012476  0.31954234  0.52334129  1
  O2-  O449  1  0.43498134  0.32907216  0.86087959  1
  O2-  O450  1  0.40877518  0.55411099  0.19191898  1
  O2-  O451  1  0.38433456  0.54453070  0.55444218  1
  O2-  O452  1  0.42086921  0.58332452  0.85234314  1
  O2-  O453  1  0.41299906  0.86172308  0.19409560  1
  O2-  O454  1  0.44549912  0.86609878  0.54005221  1
  O2-  O455  1  0.39700194  0.86522452  0.85933597  1
  O2-  O456  1  0.65840955  0.10173255  0.19727933  1
  O2-  O457  1  0.69623530  0.08418220  0.49799036  1
  O2-  O458  1  0.66149145  0.09520157  0.86551790  1
  O2-  O459  1  0.66573469  0.32596476  0.19089589  1
  O2-  O460  1  0.67755644  0.32057900  0.53240151  1
  O2-  O461  1  0.67782961  0.33603541  0.85334386  1
  O2-  O462  1  0.67225017  0.57778065  0.17405700  1
  O2-  O463  1  0.70769941  0.54043573  0.54416515  1
  O2-  O464  1  0.69110234  0.55710503  0.86149736  1
  O2-  O465  1  0.66093713  0.84342625  0.19163067  1
  O2-  O466  1  0.68499300  0.83856829  0.52526331  1
  O2-  O467  1  0.65067230  0.83504288  0.87165264  1
  O2-  O468  1  0.91536585  0.08145958  0.19876582  1
  O2-  O469  1  0.89924113  0.08926382  0.51113270  1
  O2-  O470  1  0.89317476  0.06156404  0.86944964  1
  O2-  O471  1  0.90188774  0.35519250  0.18640764  1
  O2-  O472  1  0.92642413  0.36824105  0.50792096  1
  O2-  O473  1  0.89028009  0.30839457  0.81940779  1
  O2-  O474  1  0.93923417  0.60895047  0.19510867  1
  O2-  O475  1  0.90425957  0.57660829  0.56364095  1
  O2-  O476  1  0.90880171  0.57160142  0.85443495  1
  O2-  O477  1  0.92409354  0.84264226  0.18674756  1
  O2-  O478  1  0.92149278  0.84842791  0.52285312  1
  O2-  O479  1  0.91471860  0.82131446  0.85605144  1
  O2-  O480  1  0.18851799  0.08852131  0.30316166  1
  O2-  O481  1  0.17155199  0.07319415  0.64054301  1
  O2-  O482  1  0.17315174  0.08866732  0.97012565  1
  O2-  O483  1  0.15944709  0.30166767  0.30190761  1
  O2-  O484  1  0.18069972  0.32861586  0.64176229  1
  O2-  O485  1  0.13118069  0.32503886  0.98348189  1
  O2-  O486  1  0.09762896  0.48902791  0.33089020  1
  O2-  O487  1  0.16884960  0.58617360  0.64891199  1
  O2-  O488  1  0.16297394  0.58745140  0.99493463  1
  O2-  O489  1  0.16844157  0.84810562  0.30886104  1
  O2-  O490  1  0.15491989  0.82476279  0.64533026  1
  O2-  O491  1  0.15924352  0.83177720  0.98722810  1
  O2-  O492  1  0.42225422  0.08887478  0.31323064  1
  O2-  O493  1  0.41928281  0.07459601  0.64488325  1
  O2-  O494  1  0.40693346  0.07250153  0.97794684  1
  O2-  O495  1  0.41514493  0.33286341  0.32545118  1
  O2-  O496  1  0.41432899  0.32327068  0.64391185  1
  O2-  O497  1  0.44574765  0.33737269  0.98633268  1
  O2-  O498  1  0.44122290  0.58093113  0.30912412  1
  O2-  O499  1  0.40786770  0.56800395  0.67242313  1
  O2-  O500  1  0.40665218  0.58374577  0.97252082  1
  O2-  O501  1  0.42627016  0.85755423  0.31604571  1
  O2-  O502  1  0.41723168  0.82956193  0.66182639  1
  O2-  O503  1  0.40375502  0.83844503  0.97727846  1
  O2-  O504  1  0.66226883  0.09052279  0.31509394  1
  O2-  O505  1  0.64930690  0.07710012  0.63948500  1
  O2-  O506  1  0.69069205  0.17194729  0.97850840  1
  O2-  O507  1  0.66746832  0.32569412  0.30992433  1
  O2-  O508  1  0.66669014  0.31986451  0.64773355  1
  O2-  O509  1  0.69196863  0.33195087  0.97707499  1
  O2-  O510  1  0.69108578  0.57795849  0.29338687  1
  O2-  O511  1  0.65927668  0.54599073  0.58922795  1
  O2-  O512  1  0.65845486  0.57697530  0.98638045  1
  O2-  O513  1  0.66650459  0.84326084  0.30870197  1
  O2-  O514  1  0.65895290  0.82975424  0.64612211  1
  O2-  O515  1  0.66278500  0.83365222  0.98794092  1
  O2-  O516  1  0.91767623  0.07183893  0.32625935  1
  O2-  O517  1  0.94453874  0.13043153  0.62641156  1
  O2-  O518  1  0.89747262  0.08320732  0.99017658  1
  O2-  O519  1  0.89344682  0.33746556  0.30509871  1
  O2-  O520  1  0.91192287  0.32762522  0.63018916  1
  O2-  O521  1  0.92124377  0.34734268  1.00434316  1
  O2-  O522  1  0.87105648  0.57542979  0.30802628  1
  O2-  O523  1  0.93518113  0.54308845  0.61241272  1
  O2-  O524  1  0.92348379  0.58929032  0.97754362  1
  O2-  O525  1  0.95257529  0.82446680  0.30019977  1
  O2-  O526  1  0.91596511  0.84378323  0.64615185  1
  O2-  O527  1  0.91890674  0.83814765  0.97736493  1
  O2-  O528  1  0.11577336  0.18942396  0.02976994  1
  O2-  O529  1  0.08785953  0.14332956  0.34940268  1
  O2-  O530  1  0.09995965  0.16911231  0.67977645  1
  O2-  O531  1  0.07975959  0.41882242  0.03179846  1
  O2-  O532  1  0.03508219  0.32013163  0.35973776  1
  O2-  O533  1  0.08328035  0.41029838  0.66483726  1
  O2-  O534  1  0.08232290  0.67089064  0.02399934  1
  O2-  O535  1  0.02018732  0.72362731  0.36172295  1
  O2-  O536  1  0.06924099  0.65714104  0.67737912  1
  O2-  O537  1  0.08020213  0.92180746  0.01775168  1
  O2-  O538  1  0.09716538  0.93626083  0.35457622  1
  O2-  O539  1  0.07743465  0.91240013  0.68725111  1
  O2-  O540  1  0.33550547  0.16636251  0.01374741  1
  O2-  O541  1  0.34171593  0.16678617  0.36086479  1
  O2-  O542  1  0.32848996  0.15395093  0.67909624  1
  O2-  O543  1  0.29256968  0.41302468  0.00502334  1
  O2-  O544  1  0.33936651  0.43483996  0.36391217  1
  O2-  O545  1  0.33361737  0.40249183  0.69799707  1
  O2-  O546  1  0.33142342  0.66958429  0.00842703  1
  O2-  O547  1  0.43106283  0.71620010  0.35373973  1
  O2-  O548  1  0.33144402  0.66312740  0.70011518  1
  O2-  O549  1  0.32539273  0.91834279  0.02370514  1
  O2-  O550  1  0.32975859  0.92416203  0.35448450  1
  O2-  O551  1  0.31730654  0.90526668  0.68214289  1
  O2-  O552  1  0.55212716  0.09677327  0.04266977  1
  O2-  O553  1  0.58494068  0.16959566  0.35664136  1
  O2-  O554  1  0.58352854  0.16159155  0.68702902  1
  O2-  O555  1  0.60239455  0.41093321  0.02078365  1
  O2-  O556  1  0.57859582  0.40494693  0.35262535  1
  O2-  O557  1  0.58229073  0.40681904  0.66659950  1
  O2-  O558  1  0.57337126  0.66349307  0.02306535  1
  O2-  O559  1  0.61134653  0.67396426  0.33864923  1
  O2-  O560  1  0.58255212  0.66226074  0.69573499  1
  O2-  O561  1  0.56132266  0.90053451  0.01045572  1
  O2-  O562  1  0.59169334  0.92885885  0.35265345  1
  O2-  O563  1  0.59051210  0.92899169  0.67609872  1
  O2-  O564  1  0.82849943  0.17692627  0.02770462  1
  O2-  O565  1  0.80913717  0.15215482  0.37018113  1
  O2-  O566  1  0.80837100  0.16181512  0.66422075  1
  O2-  O567  1  0.84044215  0.43549505  0.03452473  1
  O2-  O568  1  0.82590853  0.42529865  0.36498931  1
  O2-  O569  1  0.82792260  0.40372903  0.68206680  1
  O2-  O570  1  0.82279613  0.66371398  0.00442142  1
  O2-  O571  1  0.82738985  0.70055534  0.36977754  1
  O2-  O572  1  0.83850260  0.68377997  0.68636095  1
  O2-  O573  1  0.82358490  0.90817481  0.02566577  1
  O2-  O574  1  0.82718418  0.91742175  0.35362153  1
  O2-  O575  1  0.82620175  0.90812897  0.69449508  1
