# generated using pymatgen
data_H2O
_symmetry_space_group_name_H-M   'P 1'
_cell_length_a   17.96846513
_cell_length_b   17.97732558
_cell_length_c   22.00155822
_cell_angle_alpha   89.97218498
_cell_angle_beta   90.00281433
_cell_angle_gamma   119.98493461
_symmetry_Int_Tables_number   1
_chemical_formula_structural   H2O
_chemical_formula_sum   'H384 O192'
_cell_volume   6155.82102283
_cell_formula_units_Z   192
loop_
 _symmetry_equiv_pos_site_id
 _symmetry_equiv_pos_as_xyz
  1  'x, y, z'
loop_
 _atom_type_symbol
 _atom_type_oxidation_number
  H+  1.0
  O2-  -2.0
loop_
 _atom_site_type_symbol
 _atom_site_label
 _atom_site_symmetry_multiplicity
 _atom_site_fract_x
 _atom_site_fract_y
 _atom_site_fract_z
 _atom_site_occupancy
  H+  H0  1  0.32395423  0.66566778  0.73206814  1
  H+  H1  1  0.02249217  0.63054185  0.65696822  1
  H+  H2  1  0.63332770  0.10322404  0.83402277  1
  H+  H3  1  0.11707531  0.63889571  1.01088870  1
  H+  H4  1  0.38471234  0.75130295  0.01918887  1
  H+  H5  1  0.63112361  0.28014723  0.32466576  1
  H+  H6  1  0.60695667  0.62745008  0.16060254  1
  H+  H7  1  0.36462463  0.99292883  0.16983898  1
  H+  H8  1  0.88468830  0.87858273  0.86098682  1
  H+  H9  1  0.88208949  0.47738087  0.34154727  1
  H+  H10  1  0.05149887  0.89865962  0.01330806  1
  H+  H11  1  0.92046107  0.33440338  0.60048998  1
  H+  H12  1  0.28605558  0.26694074  0.88769469  1
  H+  H13  1  0.36713282  0.38362930  0.50123776  1
  H+  H14  1  0.84994102  0.25207283  0.17464706  1
  H+  H15  1  0.64935414  0.67783212  0.70802936  1
  H+  H16  1  0.76369000  0.89302121  0.67653459  1
  H+  H17  1  0.71919939  0.10662484  0.16867399  1
  H+  H18  1  0.39169120  0.12295606  0.32368430  1
  H+  H19  1  0.12809076  0.35313819  0.99770732  1
  H+  H20  1  0.72826687  0.10949453  0.66286313  1
  H+  H21  1  0.50683585  0.37851339  0.33472381  1
  H+  H22  1  0.48338931  0.11186792  0.83671238  1
  H+  H23  1  0.22699768  0.37522702  0.66610161  1
  H+  H24  1  0.89757626  0.26917420  0.33273640  1
  H+  H25  1  0.45955881  0.85774136  0.19203651  1
  H+  H26  1  0.65121822  0.27389131  0.50988164  1
  H+  H27  1  0.78589064  0.38897097  0.49267828  1
  H+  H28  1  0.59952912  0.46887855  1.01523058  1
  H+  H29  1  0.13412653  0.36253191  0.36945674  1
  H+  H30  1  0.86658558  0.14211598  0.67539052  1
  H+  H31  1  0.91167647  0.08277465  0.56685930  1
  H+  H32  1  0.64407668  0.35837506  0.65746073  1
  H+  H33  1  0.63649409  1.02577195  0.32652420  1
  H+  H34  1  0.46809408  0.36913689  1.00091899  1
  H+  H35  1  0.98357413  0.61390928  0.16677710  1
  H+  H36  1  0.07937386  0.41703792  0.06120303  1
  H+  H37  1  0.62069908  0.14588071  0.34144673  1
  H+  H38  1  0.60208868  0.87842289  0.83181618  1
  H+  H39  1  0.29378408  0.88365282  0.01243313  1
  H+  H40  1  0.22682745  0.35786283  0.50995437  1
  H+  H41  1  0.01653405  0.13169967  0.15191198  1
  H+  H42  1  0.22682682  0.61624543  0.50101498  1
  H+  H43  1  0.61300121  0.37801949  0.17654005  1
  H+  H44  1  0.88850397  0.52456300  0.49569069  1
  H+  H45  1  0.48187402  0.86578019  0.48076143  1
  H+  H46  1  0.92049970  0.56027115  0.84092150  1
  H+  H47  1  0.39447744  0.11258326  0.84188612  1
  H+  H48  1  0.37621745  0.61424833  0.84352124  1
  H+  H49  1  0.57779752  0.90879027  0.76992738  1
  H+  H50  1  0.22182151  0.85527594  0.65100880  1
  H+  H51  1  0.13435678  0.27297153  0.51130794  1
  H+  H52  1  0.77487850  0.89369000  0.16133502  1
  H+  H53  1  0.63328493  0.60353859  0.63419690  1
  H+  H54  1  0.75092184  0.39622907  -0.01540798  1
  H+  H55  1  0.85913235  0.02418892  0.99013229  1
  H+  H56  1  0.37305571  0.85535227  0.82864108  1
  H+  H57  1  0.89710713  0.12999977  0.32030954  1
  H+  H58  1  0.39397367  0.37068096  0.66763047  1
  H+  H59  1  0.60328981  0.37910901  0.33494122  1
  H+  H60  1  0.13822816  0.62623483  0.64887949  1
  H+  H61  1  0.88746007  0.79624295  0.88462218  1
  H+  H62  1  0.35455132  0.60159265  0.51424780  1
  H+  H63  1  0.62908749  0.60079721  0.32437940  1
  H+  H64  1  0.35300942  0.21730963  0.83926315  1
  H+  H65  1  0.02401126  0.38747221  0.50409564  1
  H+  H66  1  0.13023337  0.13417756  0.01148179  1
  H+  H67  1  0.36005655  0.88877862  0.34282800  1
  H+  H68  1  0.88596184  0.11593992  0.83985089  1
  H+  H69  1  0.11373105  0.13879410  0.82917222  1
  H+  H70  1  0.13946435  0.61679845  0.16861293  1
  H+  H71  1  0.83425223  0.68223068  0.31282221  1
  H+  H72  1  0.76845392  0.12960447  0.82792228  1
  H+  H73  1  0.25633649  0.37622611  0.00104107  1
  H+  H74  1  1.02429124  0.88200987  0.16894858  1
  H+  H75  1  0.26681676  0.62738404  0.82118038  1
  H+  H76  1  0.02136262  0.89365248  0.84103854  1
  H+  H77  1  0.85910631  0.97770272  0.49123508  1
  H+  H78  1  0.87038458  0.75366542  0.46993885  1
  H+  H79  1  0.86964718  0.47431329  0.65781060  1
  H+  H80  1  0.51783614  0.62746495  0.33836943  1
  H+  H81  1  0.61807751  0.46846037  0.49650937  1
  H+  H82  1  0.11009856  0.73239109  0.33295541  1
  H+  H83  1  0.61395764  -0.02619347  0.67437303  1
  H+  H84  1  0.25401966  0.14212708  0.47428764  1
  H+  H85  1  0.63024304  0.85850998  0.17082883  1
  H+  H86  1  0.35697386  0.89652092  0.49157430  1
  H+  H87  1  0.61323426  0.60358422  0.00444276  1
  H+  H88  1  0.61921039  0.84734976  0.31983487  1
  H+  H89  1  0.23443715  0.12289808  0.32054417  1
  H+  H90  1  0.53019777  0.14156172  0.49833852  1
  H+  H91  1  0.08743461  0.66529555  0.09380821  1
  H+  H92  1  0.26946092  0.63827552  0.33922964  1
  H+  H93  1  0.14364664  0.78036012  0.84112787  1
  H+  H94  1  0.62869075  0.10454067  0.17759417  1
  H+  H95  1  1.03169880  0.40140760  0.16048108  1
  H+  H96  1  0.11148468  0.64132237  0.48368453  1
  H+  H97  1  0.57969201  0.20470835  0.16420995  1
  H+  H98  1  0.20982585  0.36544488  0.84116269  1
  H+  H99  1  0.95066296  0.83202605  0.63368649  1
  H+  H100  1  0.28265079  0.68967538  0.04421514  1
  H+  H101  1  0.38263949  0.52038531  0.32959858  1
  H+  H102  1  0.60514245  0.71833665  0.33197982  1
  H+  H103  1  0.21675653  0.11297010  0.17014463  1
  H+  H104  1  0.33739508  0.16732973  0.27324373  1
  H+  H105  1  0.88520252  0.02504296  0.16696360  1
  H+  H106  1  0.91751643  0.58216805  0.58361176  1
  H+  H107  1  0.60261738  0.96912233  0.16472754  1
  H+  H108  1  0.36254529  0.97736901  0.82285887  1
  H+  H109  1  0.62970282  0.01140339  0.83935933  1
  H+  H110  1  0.73423840  0.12977562  0.98568134  1
  H+  H111  1  0.11151006  0.23903944  0.67729661  1
  H+  H112  1  0.88212094  0.49808667  0.00733074  1
  H+  H113  1  0.85689106  0.13622819  0.49565249  1
  H+  H114  1  0.63291786  0.10834268  0.50672751  1
  H+  H115  1  0.53045244  0.63859849  0.48173677  1
  H+  H116  1  0.85105497  0.13750543  0.99923064  1
  H+  H117  1  0.22660954  0.85510781  0.17073932  1
  H+  H118  1  0.73099521  0.61244148  0.48371807  1
  H+  H119  1  0.86304529  0.89374810  0.16376443  1
  H+  H120  1  0.97447591  0.61660596  0.49313156  1
  H+  H121  1  0.35588761  0.88873957  0.67214523  1
  H+  H122  1  0.34797925  0.48016825  0.83409226  1
  H+  H123  1  0.89885247  0.79906140  0.34576461  1
  H+  H124  1  0.83942021  0.72148242  0.80181924  1
  H+  H125  1  0.40847080  0.83659787  0.43313578  1
  H+  H126  1  0.00607297  0.37457640  0.67188573  1
  H+  H127  1  0.50008451  0.62195858  0.01489454  1
  H+  H128  1  0.09914157  0.13086193  0.49139941  1
  H+  H129  1  0.60207602  0.47487708  0.33195721  1
  H+  H130  1  0.35391053  0.21335367  0.14938382  1
  H+  H131  1  0.14314344  0.62563990  0.32356286  1
  H+  H132  1  0.71610719  0.85987789  0.85315175  1
  H+  H133  1  0.40233149  0.02184019  0.99627929  1
  H+  H134  1  0.35678264  0.46813868  0.50135348  1
  H+  H135  1  0.70068931  0.60518366  1.01657017  1
  H+  H136  1  0.36392808  0.60639722  1.00568552  1
  H+  H137  1  0.74695965  0.88016675  1.00121318  1
  H+  H138  1  0.37997690  0.27562233  0.50570888  1
  H+  H139  1  0.62085781  0.47291533  0.65861836  1
  H+  H140  1  0.39063365  0.62576389  0.18345316  1
  H+  H141  1  0.23442087  0.62650995  0.65407463  1
  H+  H142  1  0.16389993  0.05337608  0.66193810  1
  H+  H143  1  0.61981780  0.22313484  0.67084996  1
  H+  H144  1  0.13807280  0.85935094  0.17399168  1
  H+  H145  1  0.11037699  0.72418368  0.65603932  1
  H+  H146  1  0.88547114  0.27320418  0.50944083  1
  H+  H147  1  0.28588755  0.14127796  -0.00951644  1
  H+  H148  1  0.59124573  0.17160408  0.43877679  1
  H+  H149  1  0.36390396  0.38140145  0.34346207  1
  H+  H150  1  0.15080264  0.02663241  0.99360108  1
  H+  H151  1  0.36087708  0.72310134  0.48366652  1
  H+  H152  1  0.66146406  0.07458745  0.56534494  1
  H+  H153  1  0.16798914  0.34194028  0.60535119  1
  H+  H154  1  0.46244578  0.61024837  0.85187341  1
  H+  H155  1  0.02612994  0.14469401  0.33435549  1
  H+  H156  1  0.33608589  0.38502141  0.83590793  1
  H+  H157  1  0.11400660  0.13811056  0.34010177  1
  H+  H158  1  0.11577076  1.00442799  0.48497181  1
  H+  H159  1  0.53569287  0.34669338  0.87969063  1
  H+  H160  1  0.55170852  0.89984386  0.11241829  1
  H+  H161  1  0.78020284  0.38634657  0.66947051  1
  H+  H162  1  0.71255120  0.33477089  0.89008061  1
  H+  H163  1  0.12216926  0.22403937  0.01196686  1
  H+  H164  1  0.14411596  1.03274848  0.32405793  1
  H+  H165  1  0.13926721  0.26400360  0.36357297  1
  H+  H166  1  0.10827598  0.13147885  0.15944537  1
  H+  H167  1  0.53125822  0.37964871  0.50483224  1
  H+  H168  1  0.35731878  0.38127199  0.00366888  1
  H+  H169  1  0.63283437  0.22126567  0.82265950  1
  H+  H170  1  0.66378973  0.57356523  0.23049652  1
  H+  H171  1  0.51746064  0.88901126  0.33573424  1
  H+  H172  1  0.72848693  0.60959933  0.17362178  1
  H+  H173  1  0.21968001  0.86657009  0.50066725  1
  H+  H174  1  0.52837560  0.13532247  0.67276393  1
  H+  H175  1  0.71703029  0.59175122  0.32381662  1
  H+  H176  1  0.13660520  0.52551308  0.50828418  1
  H+  H177  1  0.89582755  0.64471677  1.00923647  1
  H+  H178  1  0.14391260  0.37227582  0.13424211  1
  H+  H179  1  0.22765872  0.86720173  0.32314875  1
  H+  H180  1  0.76626627  0.61994140  0.65944149  1
  H+  H181  1  0.39189285  0.03812600  0.50906900  1
  H+  H182  1  0.87843316  0.91389546  0.33366080  1
  H+  H183  1  0.39553522  0.12128670  0.66846866  1
  H+  H184  1  0.11750377  0.15406774  0.67555288  1
  H+  H185  1  0.29114564  0.15777208  0.68598035  1
  H+  H186  1  0.86369926  0.22936673  0.67576129  1
  H+  H187  1  0.59897512  0.62784272  0.83782158  1
  H+  H188  1  0.60600028  0.75817170  0.00085535  1
  H+  H189  1  0.13816557  0.89329486  0.00293382  1
  H+  H190  1  0.23131193  0.61997698  0.17481999  1
  H+  H191  1  0.13366015  0.86273360  0.85162782  1
  H+  H192  1  0.48239852  0.61918040  0.66596843  1
  H+  H193  1  0.38604892  0.88798841  1.01530825  1
  H+  H194  1  0.38792570  0.53418509  0.17789044  1
  H+  H195  1  0.62814323  0.76907445  0.84890545  1
  H+  H196  1  0.11461990  0.38888950  0.50451325  1
  H+  H197  1  0.36102446  0.64081096  0.67447968  1
  H+  H198  1  0.83274562  0.37776989  0.16034054  1
  H+  H199  1  -0.02893602  0.36523910  -0.00804181  1
  H+  H200  1  0.22716262  0.60131849  0.98368939  1
  H+  H201  1  0.61733562  0.23579466  0.98281167  1
  H+  H202  1  0.61514104  0.97384692  0.49137186  1
  H+  H203  1  0.89975631  1.04304950  0.31809769  1
  H+  H204  1  0.85893106  0.63416194  0.46754586  1
  H+  H205  1  0.86997645  0.63881009  0.16097065  1
  H+  H206  1  0.64232887  0.61373138  0.48943257  1
  H+  H207  1  0.09273442  0.37352618  0.82846880  1
  H+  H208  1  0.88608834  0.37377370  -0.00615070  1
  H+  H209  1  0.88239435  0.59683759  0.64761392  1
  H+  H210  1  0.38102187  0.77591419  0.33209450  1
  H+  H211  1  0.72585774  0.86440082  0.50270608  1
  H+  H212  1  0.82450698  0.16511469  0.09300536  1
  H+  H213  1  0.68202879  0.40933557  0.81010646  1
  H+  H214  1  1.02111978  0.64071094  0.33362395  1
  H+  H215  1  0.87093916  0.26936732  0.84189016  1
  H+  H216  1  0.52285982  0.88672768  0.67298082  1
  H+  H217  1  0.91068424  0.79233920  1.01861400  1
  H+  H218  1  0.34760357  0.47511289  0.00421162  1
  H+  H219  1  0.59546741  0.37835036  1.01749346  1
  H+  H220  1  0.38195230  0.24238591  0.68384793  1
  H+  H221  1  0.22681715  0.11151176  0.84177691  1
  H+  H222  1  0.85641507  0.97974312  0.83913789  1
  H+  H223  1  0.65411549  0.47942605  0.82178952  1
  H+  H224  1  0.61454492  0.88357704  0.49039159  1
  H+  H225  1  0.11063556  0.46786658  0.99865766  1
  H+  H226  1  0.85573536  0.88786888  0.47659389  1
  H+  H227  1  0.77369683  0.13894142  0.34099906  1
  H+  H228  1  0.71426596  0.61299200  0.84738838  1
  H+  H229  1  0.62325456  0.73873234  0.67400403  1
  H+  H230  1  0.12091817  0.89333164  0.32612120  1
  H+  H231  1  0.89029951  0.36781229  0.65954776  1
  H+  H232  1  0.00945618  0.86957678  0.47314330  1
  H+  H233  1  0.88623121  0.03179717  0.66582448  1
  H+  H234  1  0.14347606  0.28417983  0.13731812  1
  H+  H235  1  0.38553579  1.02768466  0.66389667  1
  H+  H236  1  0.90278856  0.33349547  0.90021832  1
  H+  H237  1  0.14887352  0.76638330  0.00541383  1
  H+  H238  1  0.45977713  0.85179692  0.83355108  1
  H+  H239  1  0.89083498  0.39335506  0.34625349  1
  H+  H240  1  0.96910708  0.11355339  0.50663726  1
  H+  H241  1  0.08423606  0.41281048  0.41232715  1
  H+  H242  1  0.35279037  0.72261963  0.81981955  1
  H+  H243  1  0.63230731  0.86340751  0.65800824  1
  H+  H244  1  0.36437913  0.48190438  0.68085052  1
  H+  H245  1  0.40370594  0.83403129  0.26932226  1
  H+  H246  1  0.85162833  0.89460701  0.68324854  1
  H+  H247  1  0.83816648  0.89386781  0.02071927  1
  H+  H248  1  0.32145866  0.17892749  0.42092920  1
  H+  H249  1  0.11107193  -0.02888773  0.16880333  1
  H+  H250  1  0.12003313  0.49133859  0.15725111  1
  H+  H251  1  0.38322441  0.26251600  0.32021275  1
  H+  H252  1  0.84071047  0.66932019  0.10255184  1
  H+  H253  1  0.42635671  0.09363914  0.56892469  1
  H+  H254  1  0.51175649  0.33220363  0.85008820  1
  H+  H255  1  0.87923896  0.45481487  0.75750851  1
  H+  H256  1  1.03637593  0.37437611  0.34743087  1
  H+  H257  1  0.20403067  0.73306491  0.77721502  1
  H+  H258  1  0.37819756  0.32449695  0.91342628  1
  H+  H259  1  0.12420209  0.51397598  0.83248996  1
  H+  H260  1  0.26913712  0.89287756  0.82793717  1
  H+  H261  1  0.12616867  0.27054240  0.84146544  1
  H+  H262  1  0.38106985  0.77331472  0.65983771  1
  H+  H263  1  0.86214699  0.69731112  0.67369929  1
  H+  H264  1  0.36256248  0.87210056  0.17350945  1
  H+  H265  1  0.07114567  0.90725693  0.68091647  1
  H+  H266  1  0.84922707  0.41848515  0.43312466  1
  H+  H267  1  0.88690370  0.62511775  0.85019208  1
  H+  H268  1  0.63613606  0.77264020  0.16739850  1
  H+  H269  1  0.90817019  0.42681516  0.81683723  1
  H+  H270  1  0.88430782  0.77328959  0.17572776  1
  H+  H271  1  0.36784338  0.40153062  0.16299979  1
  H+  H272  1  -0.02566327  0.11352838  0.84148656  1
  H+  H273  1  0.52097031  0.63431054  0.16646142  1
  H+  H274  1  0.97744272  0.11951702  0.66280954  1
  H+  H275  1  0.89068484  0.36554158  0.50844478  1
  H+  H276  1  0.85936262  0.13475917  0.15047106  1
  H+  H277  1  0.36351147  0.74014757  0.18081451  1
  H+  H278  1  0.35834469  0.63459774  0.34165193  1
  H+  H279  1  0.64973585  0.36219629  0.51323864  1
  H+  H280  1  0.10683400  0.38153106  0.67607076  1
  H+  H281  1  0.11315658  0.72115948  0.15717194  1
  H+  H282  1  0.55179347  0.84497711  1.01058298  1
  H+  H283  1  1.00823045  0.63001322  1.00466167  1
  H+  H284  1  0.23493509  0.35916143  0.36409341  1
  H+  H285  1  0.76331553  0.40904283  0.15752629  1
  H+  H286  1  0.76813076  0.13629012  0.49541028  1
  H+  H287  1  0.83178333  0.16702487  0.40139604  1
  H+  H288  1  0.16194146  0.83173424  0.59116285  1
  H+  H289  1  0.63384846  0.82034683  0.94297462  1
  H+  H290  1  0.83338069  0.43012161  0.06242089  1
  H+  H291  1  0.58256620  0.91585008  0.39194212  1
  H+  H292  1  0.59073121  0.16323253  0.76343684  1
  H+  H293  1  0.31978236  0.91532189  0.72970896  1
  H+  H294  1  0.08903643  0.16089915  0.07905784  1
  H+  H295  1  0.20885216  0.12987308  0.61170978  1
  H+  H296  1  0.77501608  0.33287106  0.84068444  1
  H+  H297  1  0.41301865  0.58322110  0.27098392  1
  H+  H298  1  0.08308514  0.67217197  0.42328520  1
  H+  H299  1  0.82378129  0.91643082  0.78273771  1
  H+  H300  1  0.34248856  0.17111526  0.77538810  1
  H+  H301  1  0.13513149  0.02630459  0.84759723  1
  H+  H302  1  0.32621817  0.92588419  0.43461206  1
  H+  H303  1  0.68756982  0.41387111  0.94373015  1
  H+  H304  1  0.11235513  0.68029292  0.74917163  1
  H+  H305  1  0.87620443  0.59715952  0.32127324  1
  H+  H306  1  0.63967242  0.13516732  0.98003796  1
  H+  H307  1  0.80734460  0.63937153  0.76273671  1
  H+  H308  1  0.41418450  0.32730876  0.56952863  1
  H+  H309  1  0.13332221  0.04727985  0.54831632  1
  H+  H310  1  0.63902594  0.77343435  0.50147772  1
  H+  H311  1  0.82240405  0.65112839  0.40049236  1
  H+  H312  1  0.08401120  0.92228503  0.78203662  1
  H+  H313  1  0.10217275  0.87545717  0.48273465  1
  H+  H314  1  0.83913935  0.94092877  0.38789037  1
  H+  H315  1  0.34554499  0.68357692  0.11818361  1
  H+  H316  1  0.91187904  0.83202069  0.23520381  1
  H+  H317  1  0.67866102  0.32913057  0.60046412  1
  H+  H318  1  1.00270168  0.78406815  0.63158971  1
  H+  H319  1  0.18959844  0.36170845  0.24692515  1
  H+  H320  1  0.82255086  0.66277106  0.98520573  1
  H+  H321  1  0.36416728  0.98060331  0.34450872  1
  H+  H322  1  0.56496217  0.65322844  0.07245250  1
  H+  H323  1  0.66600879  0.83424088  0.59870703  1
  H+  H324  1  0.23200182  0.36294161  0.24757039  1
  H+  H325  1  0.66934900  0.08559701  0.26813587  1
  H+  H326  1  0.14248188  0.61121211  0.82891389  1
  H+  H327  1  0.90448720  0.08922675  0.93660508  1
  H+  H328  1  0.16284116  0.09124426  0.23280942  1
  H+  H329  1  0.49715379  0.11419834  0.17344245  1
  H+  H330  1  0.38291051  0.27544310  0.99262357  1
  H+  H331  1  0.92002356  0.57941825  0.26362597  1
  H+  H332  1  0.30031856  0.52279751  0.55632889  1
  H+  H333  1  0.16460155  0.92948663  0.68509418  1
  H+  H334  1  0.34516907  0.41637046  0.40605478  1
  H+  H335  1  0.65165814  0.81844934  0.26198390  1
  H+  H336  1  0.07334238  0.16655059  0.43506401  1
  H+  H337  1  0.18267970  0.82802492  0.94639767  1
  H+  H338  1  0.92811352  0.32765740  0.27366262  1
  H+  H339  1  0.28419886  0.40174833  0.14013371  1
  H+  H340  1  0.94011660  0.60073627  0.94385275  1
  H+  H341  1  0.08267922  0.16990237  0.77032926  1
  H+  H342  1  0.13258024  0.77365283  0.49721845  1
  H+  H343  1  0.48448058  0.37157424  0.66450429  1
  H+  H344  1  0.53207026  0.14283408  -0.00786321  1
  H+  H345  1  0.58587687  0.66771469  0.42044040  1
  H+  H346  1  0.16538658  0.57410242  0.92615012  1
  H+  H347  1  0.68099047  0.46899172  0.19449208  1
  H+  H348  1  0.41749344  0.33708861  0.26902205  1
  H+  H349  1  0.65721268  0.57907585  0.90816908  1
  H+  H350  1  0.39292531  0.58159721  0.94298525  1
  H+  H351  1  0.63918163  0.10821535  0.65856764  1
  H+  H352  1  0.42500807  0.07430304  0.93317232  1
  H+  H353  1  0.80476875  0.27518576  0.22579698  1
  H+  H354  1  0.53137627  0.14470996  0.34725862  1
  H+  H355  1  0.17096448  0.83444020  0.26097223  1
  H+  H356  1  0.34249248  0.90504444  0.10594865  1
  H+  H357  1  0.67279510  0.58115044  0.57680735  1
  H+  H358  1  0.32576204  0.65684535  0.42854057  1
  H+  H359  1  0.83115315  0.16739962  0.77026556  1
  H+  H360  1  0.98924045  0.87654406  0.32535667  1
  H+  H361  1  0.41362404  0.58640401  0.61104727  1
  H+  H362  1  0.93270052  0.86384454  0.96967142  1
  H+  H363  1  0.66868256  0.08827717  0.92242589  1
  H+  H364  1  0.88955447  0.80840900  0.53080870  1
  H+  H365  1  0.41137962  0.83340868  0.60152155  1
  H+  H366  1  0.17505252  0.59567240  0.58558847  1
  H+  H367  1  0.34728327  0.04694232  0.22008250  1
  H+  H368  1  0.32693438  0.42011400  0.73833260  1
  H+  H369  1  0.89113635  0.52692758  0.16759962  1
  H+  H370  1  0.08925589  0.91807590  0.38700742  1
  H+  H371  1  0.56899169  0.66079810  0.78007871  1
  H+  H372  1  0.85504027  0.23161865  0.00114965  1
  H+  H373  1  0.34212226  0.12064200  0.14623297  1
  H+  H374  1  0.15376945  0.32442337  0.93584941  1
  H+  H375  1  0.06483562  0.40039865  0.74007354  1
  H+  H376  1  0.17328335  0.59390546  0.26603006  1
  H+  H377  1  0.65983812  0.35112863  0.26977881  1
  H+  H378  1  0.61402093  0.42815616  0.72265555  1
  H+  H379  1  0.37690279  0.14366860  -0.01079027  1
  H+  H380  1  0.17042168  0.09162419  0.93815564  1
  H+  H381  1  0.43914286  0.08792620  0.27935681  1
  H+  H382  1  0.00336714  0.37564304  0.82671921  1
  H+  H383  1  0.92086772  0.09473815  0.22182636  1
  O2-  O384  1  0.07899869  0.16058778  0.13811646  1
  O2-  O385  1  0.07407955  0.16744579  0.48062427  1
  O2-  O386  1  0.08195648  0.16862131  0.81568045  1
  O2-  O387  1  0.08674138  0.43044669  0.13953493  1
  O2-  O388  1  0.08564784  0.42096981  0.49033089  1
  O2-  O389  1  0.06305535  0.40278926  0.80933979  1
  O2-  O390  1  0.08400027  0.66091206  0.14176027  1
  O2-  O391  1  0.08247770  0.67261081  0.46967865  1
  O2-  O392  1  0.14381869  0.69692618  0.78863113  1
  O2-  O393  1  0.08596575  0.91001279  0.15763948  1
  O2-  O394  1  0.07218901  0.90436171  0.46367593  1
  O2-  O395  1  0.08205037  0.91940927  0.82670537  1
  O2-  O396  1  0.31286151  0.15369478  0.13813421  1
  O2-  O397  1  0.30722773  0.19285337  0.46053020  1
  O2-  O398  1  0.33433822  0.16057307  0.82038011  1
  O2-  O399  1  0.34723664  0.43872530  0.14727469  1
  O2-  O400  1  0.33322718  0.41000884  0.48388136  1
  O2-  O401  1  0.31515695  0.42106921  0.81590555  1
  O2-  O402  1  0.33834068  0.67761488  0.16289308  1
  O2-  O403  1  0.32610280  0.66010861  0.47566437  1
  O2-  O404  1  0.32655202  0.66031396  0.80456695  1
  O2-  O405  1  0.33271078  0.90370437  0.15076295  1
  O2-  O406  1  0.32419393  0.92518998  0.48050738  1
  O2-  O407  1  0.32550222  0.91820782  0.80595137  1
  O2-  O408  1  0.56000383  0.14367195  0.16625917  1
  O2-  O409  1  0.59195933  0.16858091  0.48406234  1
  O2-  O410  1  0.59085065  0.16177628  0.80918109  1
  O2-  O411  1  0.50298483  0.36117373  0.15839831  1
  O2-  O412  1  0.59282584  0.40557040  0.49469175  1
  O2-  O413  1  0.66750032  0.44931407  0.79010046  1
  O2-  O414  1  0.57882861  0.65973418  0.14608346  1
  O2-  O415  1  0.58970735  0.67055333  0.46759267  1
  O2-  O416  1  0.56916928  0.66005396  0.82481275  1
  O2-  O417  1  0.56978564  0.90656170  0.15532278  1
  O2-  O418  1  0.58527760  0.91421969  0.47389193  1
  O2-  O419  1  0.57404206  0.91016287  0.81501298  1
  O2-  O420  1  0.82459378  0.16225742  0.13845864  1
  O2-  O421  1  0.82912050  0.16900839  0.48076491  1
  O2-  O422  1  0.83015386  0.16633422  0.81578595  1
  O2-  O423  1  0.81948547  0.41978401  0.14113600  1
  O2-  O424  1  0.84755443  0.42039097  0.47966555  1
  O2-  O425  1  0.91062017  0.47654666  0.79628824  1
  O2-  O426  1  0.83682984  0.66737808  0.14738972  1
  O2-  O427  1  0.82782682  0.66207137  0.45019180  1
  O2-  O428  1  0.81156938  0.65927003  0.80568345  1
  O2-  O429  1  0.83609192  0.92662809  0.14843260  1
  O2-  O430  1  0.82492102  0.92026754  0.47128758  1
  O2-  O431  1  0.82544467  0.91678089  0.82763533  1
  O2-  O432  1  0.15693392  0.08589936  0.18760738  1
  O2-  O433  1  0.14251809  0.06271051  0.50546628  1
  O2-  O434  1  0.16691321  0.08908798  0.85728550  1
  O2-  O435  1  0.17648569  0.34358300  0.12242971  1
  O2-  O436  1  0.16757890  0.33288680  0.52753574  1
  O2-  O437  1  0.14990867  0.33067108  0.85754746  1
  O2-  O438  1  0.16837004  0.58507523  0.18517987  1
  O2-  O439  1  0.16792045  0.58801272  0.52071302  1
  O2-  O440  1  0.16185040  0.57336352  0.84769964  1
  O2-  O441  1  0.16676205  0.82594200  0.18760024  1
  O2-  O442  1  0.15799341  0.83336588  0.51448949  1
  O2-  O443  1  0.16971333  0.83669111  0.86152423  1
  O2-  O444  1  0.38447034  0.05586189  0.18536780  1
  O2-  O445  1  0.43046410  0.09694359  0.52403561  1
  O2-  O446  1  0.42361228  0.07948847  0.85291571  1
  O2-  O447  1  0.42835419  0.32725997  0.18380156  1
  O2-  O448  1  0.41676368  0.33326971  0.52461365  1
  O2-  O449  1  0.34490118  0.30516647  0.87406178  1
  O2-  O450  1  0.42061023  0.59355237  0.19631667  1
  O2-  O451  1  0.35904696  0.55824877  0.54149642  1
  O2-  O452  1  0.40102855  0.58195992  0.86468868  1
  O2-  O453  1  0.39915321  0.82925216  0.20553629  1
  O2-  O454  1  0.41662690  0.83551131  0.47711370  1
  O2-  O455  1  0.39680371  0.81792624  0.83999654  1
  O2-  O456  1  0.66243757  0.07656632  0.18966798  1
  O2-  O457  1  0.66201774  0.07521550  0.52002121  1
  O2-  O458  1  0.66338366  0.07375383  0.85215858  1
  O2-  O459  1  0.67204659  0.40987449  0.19272690  1
  O2-  O460  1  0.68436930  0.33409348  0.52557551  1
  O2-  O461  1  0.71670771  0.32344011  0.84628915  1
  O2-  O462  1  0.66749140  0.57037101  0.18533069  1
  O2-  O463  1  0.67355762  0.58488963  0.50499476  1
  O2-  O464  1  0.65452079  0.57855105  0.86304108  1
  O2-  O465  1  0.66535946  0.83210473  0.18362637  1
  O2-  O466  1  0.66621045  0.83169793  0.52034679  1
  O2-  O467  1  0.65380421  0.82919478  0.86372193  1
  O2-  O468  1  0.91806094  0.08966357  0.17655000  1
  O2-  O469  1  0.90838459  0.08068082  0.52160603  1
  O2-  O470  1  0.91354785  0.08343416  0.85580306  1
  O2-  O471  1  0.85628751  0.30174892  0.20048371  1
  O2-  O472  1  0.91877761  0.33320265  0.52589653  1
  O2-  O473  1  0.89858819  0.33122756  0.85456170  1
  O2-  O474  1  0.92292316  0.58652959  0.18353429  1
  O2-  O475  1  0.91405605  0.58668722  0.50841109  1
  O2-  O476  1  0.92825260  0.60966321  0.86619100  1
  O2-  O477  1  0.91364663  0.83389669  0.19029330  1
  O2-  O478  1  0.90032393  0.81665409  0.48732051  1
  O2-  O479  1  0.92308163  0.85793660  0.87860423  1
  O2-  O480  1  0.17022100  0.09450382  0.31227523  1
  O2-  O481  1  0.18669336  0.11583431  0.65310837  1
  O2-  O482  1  0.17520327  0.09099918  0.98325619  1
  O2-  O483  1  0.17182465  0.32725950  0.37654905  1
  O2-  O484  1  0.16585472  0.34533410  0.65093417  1
  O2-  O485  1  0.15962954  0.32404156  0.98118097  1
  O2-  O486  1  0.17750832  0.59897102  0.31105603  1
  O2-  O487  1  0.17469303  0.59911434  0.63410888  1
  O2-  O488  1  0.16642183  0.56951015  0.97135863  1
  O2-  O489  1  0.16774839  0.83782496  0.30700674  1
  O2-  O490  1  0.16051573  0.82705112  0.63682582  1
  O2-  O491  1  0.18685808  0.82956766  0.99114662  1
  O2-  O492  1  0.42557491  0.08916598  0.32224747  1
  O2-  O493  1  0.42237601  0.08875816  0.65164760  1
  O2-  O494  1  0.42994623  0.08117919  0.97820668  1
  O2-  O495  1  0.41365953  0.33070539  0.31376249  1
  O2-  O496  1  0.42236189  0.33904642  0.65232132  1
  O2-  O497  1  0.40605056  0.34023041  0.98664078  1
  O2-  O498  1  0.41192138  0.58168558  0.31700556  1
  O2-  O499  1  0.42070597  0.59083598  0.65612464  1
  O2-  O500  1  0.39018838  0.57372506  0.98829887  1
  O2-  O501  1  0.40890610  0.83699839  0.31911024  1
  O2-  O502  1  0.41210413  0.83471042  0.64586021  1
  O2-  O503  1  0.43450512  0.82876294  1.00024909  1
  O2-  O504  1  0.66942318  0.08763807  0.31364097  1
  O2-  O505  1  0.66869191  0.07573137  0.64619549  1
  O2-  O506  1  0.67142048  0.10014953  0.96823564  1
  O2-  O507  1  0.65104341  0.34121040  0.31385835  1
  O2-  O508  1  0.67624362  0.32834499  0.64655167  1
  O2-  O509  1  0.69330032  0.36747815  0.96187844  1
  O2-  O510  1  0.65293944  0.56459236  0.30911571  1
  O2-  O511  1  0.66924086  0.57880502  0.62333824  1
  O2-  O512  1  0.64928741  0.57697880  0.99129010  1
  O2-  O513  1  0.64150344  0.80955023  0.30662550  1
  O2-  O514  1  0.66591596  0.83502639  0.64448152  1
  O2-  O515  1  0.62776086  0.81873871  0.98800715  1
  O2-  O516  1  0.93052393  0.10490726  0.30231027  1
  O2-  O517  1  0.91705793  0.08985254  0.64718077  1
  O2-  O518  1  0.89270021  0.08711621  0.98075892  1
  O2-  O519  1  0.93782265  0.32942966  0.31782070  1
  O2-  O520  1  0.92211725  0.33632874  0.64666315  1
  O2-  O521  1  0.91024112  0.33825898  0.97729996  1
  O2-  O522  1  0.91931314  0.57885664  0.30898981  1
  O2-  O523  1  0.92162041  0.57883126  0.62948961  1
  O2-  O524  1  0.94019688  0.59652588  0.98916003  1
  O2-  O525  1  0.92506143  0.84705512  0.31740317  1
  O2-  O526  1  0.97248624  0.80274813  0.65920316  1
  O2-  O527  1  0.93510326  0.85499974  1.01353048  1
  O2-  O528  1  0.09776824  0.16421430  0.02842426  1
  O2-  O529  1  0.08228372  0.16645186  0.35719827  1
  O2-  O530  1  0.08168665  0.17778559  0.69096940  1
  O2-  O531  1  0.07727399  0.40836250  0.01623382  1
  O2-  O532  1  0.09351512  0.40346125  0.36877698  1
  O2-  O533  1  0.06837185  0.40373105  0.69290937  1
  O2-  O534  1  0.09058323  0.67141435  0.02627197  1
  O2-  O535  1  0.08156442  0.67288069  0.35002626  1
  O2-  O536  1  0.08429771  0.66295741  0.67114658  1
  O2-  O537  1  0.11213068  0.93075827  -0.00005480  1
  O2-  O538  1  0.09132402  0.92483471  0.34192724  1
  O2-  O539  1  0.12736091  0.95326243  0.69562478  1
  O2-  O540  1  0.34901769  0.17913340  -0.01406422  1
  O2-  O541  1  0.34051127  0.16900857  0.31757700  1
  O2-  O542  1  0.35132929  0.18133778  0.69949874  1
  O2-  O543  1  0.32000685  0.41069688  0.01333238  1
  O2-  O544  1  0.33687687  0.41396869  0.36094191  1
  O2-  O545  1  0.33037988  0.42031393  0.69278152  1
  O2-  O546  1  0.33107438  0.68173412  0.03372858  1
  O2-  O547  1  0.32929437  0.66496575  0.35895711  1
  O2-  O548  1  0.32627090  0.66825813  0.68545726  1
  O2-  O549  1  0.35461165  0.91925074  0.02705708  1
  O2-  O550  1  0.32967267  0.91979097  0.35852446  1
  O2-  O551  1  0.32088980  0.91518299  0.68382697  1
  O2-  O552  1  0.59635087  0.17824007  -0.00051601  1
  O2-  O553  1  0.59361723  0.17843374  0.35824704  1
  O2-  O554  1  0.58978161  0.16239259  0.68619845  1
  O2-  O555  1  0.56359853  0.40767479  0.02707400  1
  O2-  O556  1  0.57022352  0.41189034  0.34857377  1
  O2-  O557  1  0.59219556  0.41663221  0.67973166  1
  O2-  O558  1  0.56178725  0.65088209  0.02637695  1
  O2-  O559  1  0.57983336  0.65784380  0.35086313  1
  O2-  O560  1  0.59917356  0.67879136  0.69202372  1
  O2-  O561  1  0.51669876  0.86539550  0.03314874  1
  O2-  O562  1  0.58006086  0.91840424  0.34696376  1
  O2-  O563  1  0.58258776  0.91215848  0.68838043  1
  O2-  O564  1  0.82010169  0.17040084  0.01439954  1
  O2-  O565  1  0.83458655  0.16929219  0.35598028  1
  O2-  O566  1  0.83401295  0.16955219  0.69178834  1
  O2-  O567  1  0.84126997  0.43449918  0.01738482  1
  O2-  O568  1  0.85841824  0.42034537  0.36172947  1
  O2-  O569  1  0.84318632  0.41845339  0.68007645  1
  O2-  O570  1  0.85983425  0.67427267  0.02018307  1
  O2-  O571  1  0.81051178  0.63251334  0.33957253  1
  O2-  O572  1  0.82013417  0.63710808  0.68336438  1
  O2-  O573  1  0.80946810  0.91527160  -0.00605978  1
  O2-  O574  1  0.85217032  0.94915338  0.34401286  1
  O2-  O575  1  0.82205701  0.92467407  0.69662093  1
