# generated using pymatgen
data_H2O
_symmetry_space_group_name_H-M   'P 1'
_cell_length_a   17.99328665
_cell_length_b   17.98855960
_cell_length_c   22.00563703
_cell_angle_alpha   90.02034597
_cell_angle_beta   90.03560120
_cell_angle_gamma   120.00338160
_symmetry_Int_Tables_number   1
_chemical_formula_structural   H2O
_chemical_formula_sum   'H384 O192'
_cell_volume   6168.17168186
_cell_formula_units_Z   192
loop_
 _symmetry_equiv_pos_site_id
 _symmetry_equiv_pos_as_xyz
  1  'x, y, z'
loop_
 _atom_type_symbol
 _atom_type_oxidation_number
  H+  1.0
  O2-  -2.0
loop_
 _atom_site_type_symbol
 _atom_site_label
 _atom_site_symmetry_multiplicity
 _atom_site_fract_x
 _atom_site_fract_y
 _atom_site_fract_z
 _atom_site_occupancy
  H+  H0  1  0.34695881  0.46462308  0.87075434  1
  H+  H1  1  0.69562272  0.24596543  0.70649364  1
  H+  H2  1  0.38378806  0.77766646  0.32864331  1
  H+  H3  1  0.32655105  0.87236992  0.00101610  1
  H+  H4  1  0.61875895  0.23384956  0.48524918  1
  H+  H5  1  0.58790167  0.23328884  0.82631791  1
  H+  H6  1  0.60229860  0.21823809  0.00548120  1
  H+  H7  1  0.13657486  0.84671084  0.85413685  1
  H+  H8  1  0.17611514  0.58657690  0.57449971  1
  H+  H9  1  0.63953626  0.65713696  0.13824459  1
  H+  H10  1  0.14688463  0.52620398  0.82574231  1
  H+  H11  1  0.84690647  0.18108358  0.43351778  1
  H+  H12  1  0.64511240  0.34096194  0.55114795  1
  H+  H13  1  0.63862991  0.73795340  0.98429492  1
  H+  H14  1  0.61226707  0.40297839  0.47337563  1
  H+  H15  1  0.82831967  0.43002687  0.61059324  1
  H+  H16  1  0.90996377  0.52614029  0.01066397  1
  H+  H17  1  0.59769536  0.36920544  0.64940772  1
  H+  H18  1  0.37457902  0.76689838  0.49818488  1
  H+  H19  1  0.10272651  0.21038248  0.50838773  1
  H+  H20  1  0.14263053  0.86460335  0.32847012  1
  H+  H21  1  0.47233877  0.86370994  0.17498207  1
  H+  H22  1  0.34239622  0.12829191  0.81852856  1
  H+  H23  1  0.49433574  0.11670097  0.50862627  1
  H+  H24  1  0.63604594  0.36220065  1.00369578  1
  H+  H25  1  0.38201778  0.57487527  0.46337634  1
  H+  H26  1  0.62583163  0.14731176  0.48770845  1
  H+  H27  1  0.60662010  0.88797153  0.15967188  1
  H+  H28  1  0.01537185  0.62240992  0.83158635  1
  H+  H29  1  0.51432211  0.12651484  1.00108737  1
  H+  H30  1  0.13498802  -0.01444605  1.01600836  1
  H+  H31  1  0.86571071  0.14653709  0.49689996  1
  H+  H32  1  0.37911359  0.10959974  0.65484396  1
  H+  H33  1  0.13582257  0.88964080  0.16272559  1
  H+  H34  1  0.14260152  0.60321738  0.18480449  1
  H+  H35  1  0.35480363  0.39461222  0.66359209  1
  H+  H36  1  1.02485504  0.13680316  0.67827945  1
  H+  H37  1  0.69407231  0.39242168  0.64142366  1
  H+  H38  1  0.11725752  0.47582205  0.50759463  1
  H+  H39  1  0.36338673  0.13564584  -0.00619676  1
  H+  H40  1  0.36490256  0.44939110  0.49910972  1
  H+  H41  1  0.88554961  0.85595695  0.14281715  1
  H+  H42  1  0.45251990  0.11178791  0.82972213  1
  H+  H43  1  0.41794067  0.29546349  0.16218450  1
  H+  H44  1  0.62974804  0.40151284  0.16307120  1
  H+  H45  1  0.63592339  0.78147647  0.51772971  1
  H+  H46  1  0.89723512  0.02217493  0.66967584  1
  H+  H47  1  0.35089805  0.63740937  0.34542193  1
  H+  H48  1  0.37699105  0.87805462  0.83068086  1
  H+  H49  1  0.87821616  0.15277380  0.34327603  1
  H+  H50  1  0.20796758  0.37055439  1.00377507  1
  H+  H51  1  0.82296498  0.01881215  0.53939155  1
  H+  H52  1  0.27910817  0.89195876  0.34313041  1
  H+  H53  1  0.09320685  0.08146938  0.17913632  1
  H+  H54  1  0.16139096  0.72115847  0.69766913  1
  H+  H55  1  0.52471215  0.40265158  0.46943480  1
  H+  H56  1  0.82813235  0.94716898  0.09147394  1
  H+  H57  1  0.02243855  0.63480108  0.16724418  1
  H+  H58  1  0.59580469  0.76258042  0.83513014  1
  H+  H59  1  0.87662980  0.87138958  0.83437306  1
  H+  H60  1  0.41950209  0.08115513  0.60131463  1
  H+  H61  1  0.56834741  0.61809836  0.82060318  1
  H+  H62  1  0.89396783  0.28559964  0.32529140  1
  H+  H63  1  0.90494359  0.77512146  0.49345665  1
  H+  H64  1  0.33110014  0.38106845  0.90733299  1
  H+  H65  1  0.52379526  0.65196340  0.49585619  1
  H+  H66  1  0.40037565  0.24522913  0.48710550  1
  H+  H67  1  0.24062311  0.10702820  0.12965509  1
  H+  H68  1  0.72566191  0.10791610  0.65784947  1
  H+  H69  1  0.10875347  0.37357027  0.64461857  1
  H+  H70  1  0.90128615  0.89594842  0.47853058  1
  H+  H71  1  -0.02073117  0.34267952  0.02123948  1
  H+  H72  1  0.64293424  0.27236211  0.32120865  1
  H+  H73  1  0.14103746  0.85671534  0.49450911  1
  H+  H74  1  0.64622349  0.27894665  0.16765427  1
  H+  H75  1  -0.02139723  0.10935124  0.34067493  1
  H+  H76  1  0.86410414  0.63856170  0.48705207  1
  H+  H77  1  0.41922853  0.08300679  0.23308105  1
  H+  H78  1  0.78086787  0.88916850  0.99736225  1
  H+  H79  1  0.62226895  0.68790154  0.04807324  1
  H+  H80  1  0.12557536  0.91931991  0.64170910  1
  H+  H81  1  0.62901461  0.47945076  1.00287739  1
  H+  H82  1  0.04715379  0.30279487  0.18951137  1
  H+  H83  1  0.72911927  0.36466515  0.32450034  1
  H+  H84  1  0.59702819  -0.01302549  0.82009730  1
  H+  H85  1  0.60209213  0.86464858  0.34034056  1
  H+  H86  1  0.27357695  0.63174056  0.17859004  1
  H+  H87  1  0.23316540  0.60881634  -0.02861982  1
  H+  H88  1  0.60968558  0.85754403  0.83005446  1
  H+  H89  1  0.89088347  0.10957841  0.66829780  1
  H+  H90  1  0.62057854  0.50010550  0.81483842  1
  H+  H91  1  0.61749166  0.53044641  0.65107887  1
  H+  H92  1  0.36537090  0.01124683  0.98414682  1
  H+  H93  1  -0.01513061  0.61882174  0.49997456  1
  H+  H94  1  0.76514609  0.37738645  0.00656269  1
  H+  H95  1  0.14209842  0.73517474  0.02664349  1
  H+  H96  1  0.65054928  1.02386896  0.33159222  1
  H+  H97  1  0.13648634  0.76017131  0.84044166  1
  H+  H98  1  0.23242046  0.85500268  0.17829305  1
  H+  H99  1  0.00988418  0.12674150  0.50753304  1
  H+  H100  1  0.52720979  0.13169243  0.16060209  1
  H+  H101  1  0.63030522  0.25653816  0.66556178  1
  H+  H102  1  0.27135721  0.39838617  0.67594993  1
  H+  H103  1  0.27154494  0.09603700  0.48555056  1
  H+  H104  1  0.82293689  0.38222024  0.91164418  1
  H+  H105  1  0.90144184  0.65421833  1.01793893  1
  H+  H106  1  0.97579677  0.17581214  0.20674702  1
  H+  H107  1  0.20129463  0.08530465  0.53494848  1
  H+  H108  1  0.74205517  0.62432864  0.16533872  1
  H+  H109  1  0.03426031  0.89658764  0.34194502  1
  H+  H110  1  0.54877768  0.42527626  0.72309461  1
  H+  H111  1  0.33150436  0.16856376  0.38481775  1
  H+  H112  1  0.02221137  0.38940434  0.34970233  1
  H+  H113  1  0.36066127  0.88161719  0.16087491  1
  H+  H114  1  0.61051655  0.86211690  0.66418556  1
  H+  H115  1  0.14228211  0.76054008  0.50311419  1
  H+  H116  1  0.12958059  0.60008288  0.66655807  1
  H+  H117  1  0.22330512  0.11562112  0.31800952  1
  H+  H118  1  0.26271187  0.13305471  0.66246815  1
  H+  H119  1  0.25438774  0.13765468  0.15601760  1
  H+  H120  1  0.14444166  0.60423493  0.97649469  1
  H+  H121  1  1.01264541  0.84616050  0.18207688  1
  H+  H122  1  0.88607598  0.09026191  0.84124428  1
  H+  H123  1  0.85992671  0.33204792  0.99223651  1
  H+  H124  1  0.91323975  0.38800180  0.16741852  1
  H+  H125  1  0.87995964  0.03045174  0.33745405  1
  H+  H126  1  0.62150505  0.36446658  0.84501090  1
  H+  H127  1  0.86115406  0.21264842  0.67585661  1
  H+  H128  1  0.87100554  0.65440225  0.66196909  1
  H+  H129  1  0.26501448  0.37767865  0.34064571  1
  H+  H130  1  0.41868695  0.16038706  0.14738318  1
  H+  H131  1  0.26087674  0.88026211  0.82298274  1
  H+  H132  1  0.62055940  0.13114589  0.82554315  1
  H+  H133  1  0.37453665  0.52087596  0.33519333  1
  H+  H134  1  0.89872118  0.61481437  0.17140454  1
  H+  H135  1  0.90509772  0.56193941  0.65084149  1
  H+  H136  1  -0.02113873  0.87084962  0.64334690  1
  H+  H137  1  0.36484027  0.27115910  -0.01998562  1
  H+  H138  1  0.86038349  0.39316113  0.50129043  1
  H+  H139  1  0.40692088  0.11777403  0.50792547  1
  H+  H140  1  0.63871678  0.87177247  0.51632508  1
  H+  H141  1  0.52663569  0.14012720  0.33429833  1
  H+  H142  1  0.90019751  0.35055646  0.68133005  1
  H+  H143  1  0.82718626  0.14952078  0.73392491  1
  H+  H144  1  0.63283026  0.74272108  0.13748916  1
  H+  H145  1  0.87172401  0.73890984  0.33943932  1
  H+  H146  1  0.99738556  0.64584064  0.65954413  1
  H+  H147  1  0.07438707  0.36124926  1.03179920  1
  H+  H148  1  0.73732001  0.65720283  0.31246457  1
  H+  H149  1  0.58180957  0.42309904  0.37257572  1
  H+  H150  1  0.23595797  0.61554385  0.51562941  1
  H+  H151  1  0.43717048  0.59926896  0.84904623  1
  H+  H152  1  0.44900106  0.86243845  0.98805692  1
  H+  H153  1  0.38346569  0.98653750  0.49434171  1
  H+  H154  1  0.35177580  0.73014401  -0.01208460  1
  H+  H155  1  0.70842000  0.08047743  0.99804611  1
  H+  H156  1  0.10862866  0.63462035  0.34531106  1
  H+  H157  1  0.86578569  0.48563531  0.49927104  1
  H+  H158  1  0.83974280  0.18052005  -0.02505195  1
  H+  H159  1  0.11136111  0.12948875  0.35208488  1
  H+  H160  1  0.97859216  0.35176062  0.64792506  1
  H+  H161  1  0.38526607  0.64748467  0.50214244  1
  H+  H162  1  0.78371299  0.38876953  0.15708668  1
  H+  H163  1  0.17609641  0.58755329  0.88400526  1
  H+  H164  1  0.50820277  0.63003195  0.00471050  1
  H+  H165  1  0.13259427  0.52235499  0.34268880  1
  H+  H166  1  0.13963751  0.77371422  0.33349836  1
  H+  H167  1  0.22695988  0.34309207  0.50927362  1
  H+  H168  1  0.67044253  0.59917685  0.78945063  1
  H+  H169  1  0.85447751  1.00879599  0.14937310  1
  H+  H170  1  0.21965078  0.61481032  0.34029613  1
  H+  H171  1  0.37686813  0.52511597  0.64926088  1
  H+  H172  1  0.73284199  0.11533056  0.15545818  1
  H+  H173  1  0.40001555  0.07006320  0.92434515  1
  H+  H174  1  0.88362837  0.75196597  0.87878762  1
  H+  H175  1  0.39208193  0.35851984  0.83439376  1
  H+  H176  1  0.94389510  0.58298481  0.95198344  1
  H+  H177  1  0.57885850  0.86818060  0.00400908  1
  H+  H178  1  0.72733690  0.84268650  0.31738541  1
  H+  H179  1  -0.00416688  0.34455141  0.11099628  1
  H+  H180  1  0.14191337  0.35101907  0.51256458  1
  H+  H181  1  0.88241380  0.96197831  0.83497797  1
  H+  H182  1  0.37527092  0.40216149  0.15937127  1
  H+  H183  1  0.88303665  0.71744414  0.16722427  1
  H+  H184  1  0.38333893  0.11589737  0.31981278  1
  H+  H185  1  0.71063910  0.61542694  0.65215190  1
  H+  H186  1  0.85207300  0.98635961  -0.00209691  1
  H+  H187  1  0.37786763  0.51987388  0.17833054  1
  H+  H188  1  0.88747287  0.51186816  0.86647930  1
  H+  H189  1  0.70010205  0.92398831  0.95756252  1
  H+  H190  1  0.54203088  0.40505641  0.16325954  1
  H+  H191  1  0.86742446  0.39683570  0.34268872  1
  H+  H192  1  0.10701707  -0.00808320  0.18190795  1
  H+  H193  1  0.91806497  0.09444404  0.24548319  1
  H+  H194  1  0.75791479  0.95224795  0.38134971  1
  H+  H195  1  0.37095896  0.78991097  0.82160503  1
  H+  H196  1  0.62475531  0.98542646  0.48794250  1
  H+  H197  1  0.12691547  0.26463341  0.34188421  1
  H+  H198  1  0.13393078  0.80511350  0.65340052  1
  H+  H199  1  0.73571010  0.12337109  0.50077627  1
  H+  H200  1  0.86439325  0.19949870  0.82755294  1
  H+  H201  1  0.26620971  0.64261605  0.69391496  1
  H+  H202  1  0.12128675  0.72839020  0.17042999  1
  H+  H203  1  0.12963421  0.10193057  0.85034725  1
  H+  H204  1  0.48923039  0.39101972  0.66303595  1
  H+  H205  1  0.12766482  0.35396863  0.33924225  1
  H+  H206  1  0.36954751  0.36486540  0.49423185  1
  H+  H207  1  0.23283398  0.88329190  0.65103747  1
  H+  H208  1  0.13311907  0.51397235  0.65271095  1
  H+  H209  1  0.04978777  0.64528510  0.02155806  1
  H+  H210  1  0.35054325  0.88974263  0.66748928  1
  H+  H211  1  0.72121621  0.88171720  0.16275090  1
  H+  H212  1  0.23223873  0.11705594  -0.00070397  1
  H+  H213  1  0.91228733  0.88042953  1.00797771  1
  H+  H214  1  0.35497551  -0.01762517  0.66726056  1
  H+  H215  1  0.35637684  0.22648218  0.32485433  1
  H+  H216  1  0.87116032  0.47903776  0.15420947  1
  H+  H217  1  0.77795524  0.62445472  0.92283399  1
  H+  H218  1  0.58475370  0.95726352  0.01729244  1
  H+  H219  1  0.71989761  0.37350773  0.50144763  1
  H+  H220  1  0.37079695  0.61872953  0.18192250  1
  H+  H221  1  0.63772888  0.53888572  0.49197826  1
  H+  H222  1  0.89372993  0.97947247  0.49192089  1
  H+  H223  1  -0.01896604  0.10644041  0.85029346  1
  H+  H224  1  0.90195584  0.88150664  0.31167633  1
  H+  H225  1  0.88872832  0.62163528  0.32320167  1
  H+  H226  1  0.45431285  0.62102255  0.33746814  1
  H+  H227  1  0.59212280  0.64256975  0.66700102  1
  H+  H228  1  0.21718270  0.35441439  0.86320063  1
  H+  H229  1  0.85575140  0.66927547  0.10199470  1
  H+  H230  1  1.12270729  0.38238306  0.83065423  1
  H+  H231  1  0.53536926  0.89831154  0.49445317  1
  H+  H232  1  0.17888446  0.88119614  1.01441708  1
  H+  H233  1  0.12100064  0.63158358  0.49543219  1
  H+  H234  1  0.35368535  0.39236429  1.00596436  1
  H+  H235  1  0.85182687  0.13168593  0.16523034  1
  H+  H236  1  0.49848372  0.63462738  0.66132515  1
  H+  H237  1  0.70561182  0.35399733  0.85293197  1
  H+  H238  1  0.58895205  0.73592139  0.33976714  1
  H+  H239  1  0.86026275  0.21758803  0.14308569  1
  H+  H240  1  1.04397660  0.87994688  0.48865353  1
  H+  H241  1  0.13251773  0.26776591  0.66905017  1
  H+  H242  1  0.11293110  0.22155942  0.83692132  1
  H+  H243  1  0.50803551  0.89755415  0.81968567  1
  H+  H244  1  0.97509272  0.83884050  0.86381589  1
  H+  H245  1  0.57122085  0.92570140  0.72924531  1
  H+  H246  1  0.53949002  0.65145965  0.76393747  1
  H+  H247  1  0.99534288  0.34109778  0.83900676  1
  H+  H248  1  0.88898290  0.78107942  0.64773144  1
  H+  H249  1  0.76646575  0.12599975  0.82351684  1
  H+  H250  1  0.12700707  0.27503690  0.00177553  1
  H+  H251  1  0.88027728  0.59664415  0.87423378  1
  H+  H252  1  0.36506839  0.26936031  0.65349134  1
  H+  H253  1  0.63296590  1.01876305  0.15635945  1
  H+  H254  1  0.10494230  0.92015171  0.10151682  1
  H+  H255  1  0.37002509  0.48695238  0.01513894  1
  H+  H256  1  0.88571510  0.28091659  0.50763387  1
  H+  H257  1  0.60419708  -0.01992429  0.66693941  1
  H+  H258  1  0.10966850  0.96752905  0.85013735  1
  H+  H259  1  0.24929732  0.66233066  0.79126794  1
  H+  H260  1  0.13872495  0.02338689  0.33027731  1
  H+  H261  1  0.44242348  0.61750965  0.05568112  1
  H+  H262  1  0.64747651  0.11054842  0.33041929  1
  H+  H263  1  0.84569335  0.82628879  0.16026814  1
  H+  H264  1  0.34918551  0.21990528  0.81658743  1
  H+  H265  1  0.10970394  0.04017374  0.60490902  1
  H+  H266  1  0.38273184  0.35886089  0.31889650  1
  H+  H267  1  0.89859352  0.74259734  0.02048708  1
  H+  H268  1  0.00850978  0.11364973  0.15516139  1
  H+  H269  1  0.87281932  0.89670814  0.66861676  1
  H+  H270  1  0.28182631  0.72250388  0.47047074  1
  H+  H271  1  0.63077023  0.09889418  0.01290222  1
  H+  H272  1  0.08109866  0.40789385  0.58774336  1
  H+  H273  1  0.64670162  0.12360434  0.65451031  1
  H+  H274  1  0.21804206  0.10395300  0.84316775  1
  H+  H275  1  0.60201170  0.76263546  0.66372531  1
  H+  H276  1  0.10853728  0.11207221  0.56081690  1
  H+  H277  1  0.40507409  0.88611132  0.50586921  1
  H+  H278  1  0.65036190  0.54039166  0.16860396  1
  H+  H279  1  0.64464369  0.10191348  0.88583176  1
  H+  H280  1  0.02122705  0.39057729  0.50766899  1
  H+  H281  1  0.47652723  0.86244613  0.32892580  1
  H+  H282  1  0.78624888  0.14658839  0.34381424  1
  H+  H283  1  0.11623679  0.14299455  0.00303081  1
  H+  H284  1  0.46509284  0.86819036  0.66083361  1
  H+  H285  1  0.61175671  0.64875786  0.49096997  1
  H+  H286  1  0.65794967  0.61877305  0.97426161  1
  H+  H287  1  0.09053072  0.66292001  0.43460651  1
  H+  H288  1  0.83304584  0.40630162  0.06079101  1
  H+  H289  1  0.90152981  0.07449862  0.58280304  1
  H+  H290  1  0.16856499  0.07906346  0.94265618  1
  H+  H291  1  0.35251814  0.92777639  0.43440925  1
  H+  H292  1  0.07641810  0.16115689  0.05994044  1
  H+  H293  1  0.93458804  0.84036160  0.95181279  1
  H+  H294  1  0.56057604  0.69699304  0.40599370  1
  H+  H295  1  0.17473046  0.83376848  0.56065309  1
  H+  H296  1  0.08044962  0.14949042  0.41577931  1
  H+  H297  1  0.10553427  0.97370503  0.68876939  1
  H+  H298  1  0.41449207  0.83614090  0.23524054  1
  H+  H299  1  0.60781057  0.39522133  0.76844867  1
  H+  H300  1  0.68840568  0.74486548  0.29258082  1
  H+  H301  1  0.40453813  0.58154267  0.58832978  1
  H+  H302  1  0.93366049  0.60847089  0.56054923  1
  H+  H303  1  0.60404246  0.43318424  0.06795194  1
  H+  H304  1  0.36518150  0.72214831  0.17327860  1
  H+  H305  1  0.77739442  0.64497835  0.48742791  1
  H+  H306  1  0.57678407  0.16062417  0.09619096  1
  H+  H307  1  0.83470570  0.67164676  0.39332302  1
  H+  H308  1  0.16904001  0.31936925  0.60655550  1
  H+  H309  1  0.64566080  0.83082171  0.60049275  1
  H+  H310  1  0.10371503  0.29503379  0.24469032  1
  H+  H311  1  0.39683704  0.84181448  0.92485067  1
  H+  H312  1  0.04857809  0.89481584  0.01658355  1
  H+  H313  1  0.97644782  0.26952393  0.88578008  1
  H+  H314  1  0.94090079  0.83593008  0.27067554  1
  H+  H315  1  0.39427843  0.32057891  0.59037255  1
  H+  H316  1  0.10050203  0.40595196  0.76566629  1
  H+  H317  1  0.65167296  0.32552893  0.94201373  1
  H+  H318  1  0.08396491  0.66637915  0.74145602  1
  H+  H319  1  0.02182398  0.64009448  0.34443337  1
  H+  H320  1  0.82697935  0.92857614  0.40457213  1
  H+  H321  1  0.90471365  0.33142041  0.57054654  1
  H+  H322  1  0.63498907  0.11454657  0.15618540  1
  H+  H323  1  0.40062479  0.57586057  0.24349363  1
  H+  H324  1  0.10494943  0.62176541  0.82367245  1
  H+  H325  1  0.38675869  0.02847460  0.32676027  1
  H+  H326  1  0.40545027  0.58750351  0.91630929  1
  H+  H327  1  0.99633383  0.77265574  0.22782154  1
  H+  H328  1  0.33443173  0.42791021  0.10518045  1
  H+  H329  1  0.64975855  0.84212795  0.91653594  1
  H+  H330  1  0.47840300  0.33097717  0.53626165  1
  H+  H331  1  0.67394637  0.08956218  0.55923180  1
  H+  H332  1  0.83309957  0.42283478  0.40141033  1
  H+  H333  1  0.58791998  0.90787162  0.39899802  1
  H+  H334  1  0.47914273  0.35482888  0.82266495  1
  H+  H335  1  0.16961268  0.58006371  0.24692283  1
  H+  H336  1  0.07347117  0.90302310  0.79505500  1
  H+  H337  1  0.92779893  0.58608339  0.23308336  1
  H+  H338  1  0.66242617  0.59144867  0.55490209  1
  H+  H339  1  0.85294443  0.36509716  0.84962926  1
  H+  H340  1  0.90503966  0.31095288  0.93600247  1
  H+  H341  1  0.33321179  0.68390260  0.40227836  1
  H+  H342  1  0.12880559  0.05838987  0.24763577  1
  H+  H343  1  0.76818384  0.62246817  0.85450140  1
  H+  H344  1  0.32026030  0.90676842  0.10386926  1
  H+  H345  1  0.07736011  0.41052577  0.41138079  1
  H+  H346  1  0.85777745  0.92141167  0.73547134  1
  H+  H347  1  0.09898204  0.91775616  0.39794309  1
  H+  H348  1  0.66680916  0.82703608  0.22034482  1
  H+  H349  1  0.09278899  0.19751108  0.16263635  1
  H+  H350  1  0.56474176  0.90551162  0.10062562  1
  H+  H351  1  0.38810373  0.02159438  0.17377589  1
  H+  H352  1  0.40888666  0.32927530  0.92304244  1
  H+  H353  1  0.11317750  0.14343970  0.66279017  1
  H+  H354  1  0.93295614  0.83457952  0.55291455  1
  H+  H355  1  0.58671085  0.16928551  0.39306312  1
  H+  H356  1  0.14442441  0.96542773  0.48506780  1
  H+  H357  1  0.67777033  0.33487575  0.22843441  1
  H+  H358  1  0.93315238  0.35355585  0.26979717  1
  H+  H359  1  0.31637158  0.91728843  0.76031239  1
  H+  H360  1  0.82300338  0.42422919  0.68199149  1
  H+  H361  1  0.14507517  0.32774846  0.91280084  1
  H+  H362  1  0.64786024  0.56439701  0.91598919  1
  H+  H363  1  0.37271889  0.65457722  -0.00596771  1
  H+  H364  1  0.36569540  1.01946045  0.82992959  1
  H+  H365  1  0.42978018  0.19011559  0.43904167  1
  H+  H366  1  0.48266467  0.23911449  0.10740004  1
  H+  H367  1  0.09576528  0.66993853  0.10320093  1
  H+  H368  1  0.42382000  0.84774214  0.56814883  1
  H+  H369  1  0.08910407  0.16374088  0.77642373  1
  H+  H370  1  0.47205685  0.35668391  0.31465913  1
  H+  H371  1  0.17332309  0.82705619  0.23953657  1
  H+  H372  1  0.89994191  0.09315269  0.93723424  1
  H+  H373  1  0.32804871  0.40171486  0.39749539  1
  H+  H374  1  0.36042667  0.18112072  0.05424782  1
  H+  H375  1  0.57169614  0.18806020  0.76118616  1
  H+  H376  1  0.31281870  0.16009462  0.72623948  1
  H+  H377  1  0.60576476  0.37819502  0.32053148  1
  H+  H378  1  0.36941448  0.89575291  0.33958536  1
  H+  H379  1  0.88697468  0.53148047  0.32756058  1
  H+  H380  1  0.68347683  0.63373366  0.25108244  1
  H+  H381  1  0.37546466  0.78101927  0.66548292  1
  H+  H382  1  0.42314839  0.34064510  0.22577170  1
  H+  H383  1  0.83195077  0.67531937  0.71888358  1
  O2-  O384  1  0.07018753  0.13952648  0.14383066  1
  O2-  O385  1  0.07064905  0.14720279  0.49942954  1
  O2-  O386  1  0.08536068  0.16114666  0.82142205  1
  O2-  O387  1  -0.03334117  0.31662468  0.15369966  1
  O2-  O388  1  0.08407429  0.41201662  0.50186183  1
  O2-  O389  1  0.09368505  0.41170233  0.80903078  1
  O2-  O390  1  0.08788632  0.66694822  0.15286579  1
  O2-  O391  1  0.09349883  0.66470347  0.48077235  1
  O2-  O392  1  0.07233287  0.65178985  0.81117045  1
  O2-  O393  1  0.10208956  0.91670061  0.14833511  1
  O2-  O394  1  0.10431293  0.90266585  0.47218812  1
  O2-  O395  1  0.07934391  0.90432717  0.83903190  1
  O2-  O396  1  0.42366513  0.20918399  0.12208768  1
  O2-  O397  1  0.37918328  0.18128179  0.46141341  1
  O2-  O398  1  0.31183395  0.15862927  0.80308254  1
  O2-  O399  1  0.34171764  0.43103714  0.15009501  1
  O2-  O400  1  0.33417723  0.39179873  0.48181739  1
  O2-  O401  1  0.32090779  0.39988070  0.86774958  1
  O2-  O402  1  0.33526322  0.65971449  0.16309231  1
  O2-  O403  1  0.32673985  0.70848775  0.47906652  1
  O2-  O404  1  0.28409057  0.71477138  0.76523903  1
  O2-  O405  1  0.32758357  0.91097433  0.14874947  1
  O2-  O406  1  0.35703082  0.92615622  0.47941261  1
  O2-  O407  1  0.32046296  0.92027584  0.80549787  1
  O2-  O408  1  0.58561626  0.16411372  0.14157855  1
  O2-  O409  1  0.59048038  0.17238660  0.47278196  1
  O2-  O410  1  0.55965771  0.17592210  0.80495271  1
  O2-  O411  1  0.60272785  0.43471985  0.14833685  1
  O2-  O412  1  0.58607364  0.43692686  0.45803726  1
  O2-  O413  1  0.58291297  0.41039320  0.80221833  1
  O2-  O414  1  0.61333170  0.68709922  0.11637799  1
  O2-  O415  1  0.58420754  0.68428312  0.48255671  1
  O2-  O416  1  0.53789327  0.64885651  0.80916217  1
  O2-  O417  1  0.57543883  0.91861852  0.14521510  1
  O2-  O418  1  0.59441387  0.92307446  0.47682787  1
  O2-  O419  1  0.56883039  0.92747258  0.80417841  1
  O2-  O420  1  0.82109661  0.15463384  0.14078453  1
  O2-  O421  1  0.84241980  0.18150921  0.47940727  1
  O2-  O422  1  0.82492564  0.14246809  0.80934784  1
  O2-  O423  1  0.84328791  0.41888117  0.13950054  1
  O2-  O424  1  0.82909215  0.42354131  0.48878161  1
  O2-  O425  1  0.82553687  0.39464017  0.86807712  1
  O2-  O426  1  0.84873981  0.66014200  0.14829994  1
  O2-  O427  1  0.83746327  0.67185558  0.47154334  1
  O2-  O428  1  0.81422381  0.64088971  0.88514230  1
  O2-  O429  1  0.81614484  0.95052558  0.13507644  1
  O2-  O430  1  0.88156157  0.93461916  0.46177720  1
  O2-  O431  1  0.86191628  0.90908318  0.81091392  1
  O2-  O432  1  0.09729896  0.03609702  0.20573236  1
  O2-  O433  1  0.21332187  0.05707719  0.50099745  1
  O2-  O434  1  0.16084279  0.07195915  0.86412793  1
  O2-  O435  1  0.07386885  0.26976850  0.20563935  1
  O2-  O436  1  0.16769911  0.31655822  0.52645133  1
  O2-  O437  1  0.15227611  0.32528547  0.86733475  1
  O2-  O438  1  0.17744311  0.58069081  0.20216298  1
  O2-  O439  1  0.17535776  0.58210927  0.52880892  1
  O2-  O440  1  0.17135891  0.58718532  0.83737046  1
  O2-  O441  1  0.17080791  0.82352385  0.19362280  1
  O2-  O442  1  0.17187033  0.82417211  0.51489850  1
  O2-  O443  1  0.17232078  0.81939878  0.85601629  1
  O2-  O444  1  0.42403875  0.08214050  0.18744297  1
  O2-  O445  1  0.43421463  0.08600082  0.52507363  1
  O2-  O446  1  0.39365596  0.07964220  0.84712552  1
  O2-  O447  1  0.43459247  0.35160664  0.18110162  1
  O2-  O448  1  0.42547664  0.31767472  0.51518024  1
  O2-  O449  1  0.41867890  0.32224708  0.83874067  1
  O2-  O450  1  0.40363822  0.58056335  0.19787955  1
  O2-  O451  1  0.40433651  0.60496472  0.50185662  1
  O2-  O452  1  0.38544259  0.56789993  0.87504283  1
  O2-  O453  1  0.41156839  0.83204890  0.18977050  1
  O2-  O454  1  0.43382750  0.85252525  0.52319716  1
  O2-  O455  1  0.40519679  0.84428092  0.84428997  1
  O2-  O456  1  0.66660602  0.08255876  0.16835727  1
  O2-  O457  1  0.67428495  0.09082488  0.51387605  1
  O2-  O458  1  0.65246105  0.10258536  0.84194068  1
  O2-  O459  1  0.67975285  0.33876109  0.18271061  1
  O2-  O460  1  0.65608576  0.34193150  0.50685599  1
  O2-  O461  1  0.64419934  0.32701363  0.86300595  1
  O2-  O462  1  0.68129486  0.60353167  0.17698059  1
  O2-  O463  1  0.66887739  0.59788571  0.50988061  1
  O2-  O464  1  0.64569536  0.56701840  0.82672185  1
  O2-  O465  1  0.66140602  0.84000543  0.17703676  1
  O2-  O466  1  0.66191369  0.83892699  0.53826864  1
  O2-  O467  1  0.63249607  0.82277626  0.84840924  1
  O2-  O468  1  0.92749686  0.11503708  0.20221666  1
  O2-  O469  1  0.88248546  0.06570552  0.53786815  1
  O2-  O470  1  0.92107640  0.07369817  0.86628860  1
  O2-  O471  1  0.96016407  0.38321699  0.18872129  1
  O2-  O472  1  0.91282938  0.34030539  0.52597819  1
  O2-  O473  1  0.94736416  0.29494797  0.86365189  1
  O2-  O474  1  0.93388581  0.58822821  0.18746112  1
  O2-  O475  1  0.92548217  0.59415976  0.51647094  1
  O2-  O476  1  0.92113879  0.57416566  0.87521176  1
  O2-  O477  1  0.96803481  0.80161463  0.20997411  1
  O2-  O478  1  0.94343332  0.83548619  0.50802629  1
  O2-  O479  1  0.91625615  0.81587591  0.88058934  1
  O2-  O480  1  0.15915218  0.08119418  0.31051633  1
  O2-  O481  1  0.14032142  0.10192670  0.59413422  1
  O2-  O482  1  0.16990316  0.08226577  0.98800438  1
  O2-  O483  1  0.15333783  0.32121261  0.32092006  1
  O2-  O484  1  0.16094844  0.32708267  0.65048479  1
  O2-  O485  1  0.14772542  0.33676521  0.98964011  1
  O2-  O486  1  0.15834629  0.58208882  0.32651397  1
  O2-  O487  1  0.16645963  0.57803272  0.65081884  1
  O2-  O488  1  0.17280491  0.57815155  0.95454843  1
  O2-  O489  1  0.17210507  0.83256975  0.31535779  1
  O2-  O490  1  0.17164397  0.85774383  0.63085858  1
  O2-  O491  1  0.20631043  0.84548576  1.00576553  1
  O2-  O492  1  0.41742044  0.08778145  0.30895866  1
  O2-  O493  1  0.40797049  0.07641008  0.64596287  1
  O2-  O494  1  0.40407855  0.07048770  0.96989411  1
  O2-  O495  1  0.40873747  0.32585628  0.30193090  1
  O2-  O496  1  0.39268455  0.32811134  0.63538216  1
  O2-  O497  1  0.38219422  0.32849895  0.96249365  1
  O2-  O498  1  0.39585100  0.58025630  0.31965890  1
  O2-  O499  1  0.40741370  0.58577234  0.63261253  1
  O2-  O500  1  0.44461412  0.60279307  1.01323849  1
  O2-  O501  1  0.41650955  0.83824037  0.31376637  1
  O2-  O502  1  0.40489064  0.83770538  0.64471293  1
  O2-  O503  1  0.39045242  0.83928867  0.96995851  1
  O2-  O504  1  0.68503202  0.08587647  0.32319808  1
  O2-  O505  1  0.66694699  0.08480092  0.63972378  1
  O2-  O506  1  0.65184302  0.05787019  1.01766249  1
  O2-  O507  1  0.67181426  0.33234208  0.30469242  1
  O2-  O508  1  0.63480373  0.34674796  0.63279499  1
  O2-  O509  1  0.65996894  0.32499156  0.98678222  1
  O2-  O510  1  0.68830937  0.65779378  0.29277558  1
  O2-  O511  1  0.65187565  0.59053332  0.63561282  1
  O2-  O512  1  0.67482233  0.57817954  0.95638007  1
  O2-  O513  1  0.67874882  0.79671237  0.29457960  1
  O2-  O514  1  0.63635766  0.82596620  0.64934869  1
  O2-  O515  1  0.66628347  0.86161012  0.96129416  1
  O2-  O516  1  0.92105286  0.08883654  0.32151397  1
  O2-  O517  1  0.92544223  0.08443138  0.65194429  1
  O2-  O518  1  0.87665684  0.09499141  0.97868113  1
  O2-  O519  1  0.92504668  0.34819753  0.31463517  1
  O2-  O520  1  0.91311843  0.31991597  0.65043573  1
  O2-  O521  1  0.88340649  0.29480533  0.97784874  1
  O2-  O522  1  0.92006206  0.59086277  0.31043727  1
  O2-  O523  1  0.94064035  0.62317940  0.63960938  1
  O2-  O524  1  0.94768129  0.58617806  0.99740264  1
  O2-  O525  1  0.93183288  0.84893245  0.31368997  1
  O2-  O526  1  0.91881694  0.83872920  0.62845927  1
  O2-  O527  1  0.94382782  0.85035145  0.99715009  1
  O2-  O528  1  0.08478457  0.17250963  0.01600102  1
  O2-  O529  1  0.08027640  0.15651432  0.37100959  1
  O2-  O530  1  0.08710092  0.16647710  0.69150407  1
  O2-  O531  1  0.02899941  0.37095641  0.04933854  1
  O2-  O532  1  0.08204584  0.41534551  0.36679216  1
  O2-  O533  1  0.07748748  0.40615255  0.63274704  1
  O2-  O534  1  0.10813316  0.67473351  0.04136880  1
  O2-  O535  1  0.08179461  0.66869713  0.36100971  1
  O2-  O536  1  0.09981898  0.67969962  0.69608807  1
  O2-  O537  1  0.10978261  0.92438176  0.03121887  1
  O2-  O538  1  0.09642228  0.92375169  0.35275151  1
  O2-  O539  1  0.09006419  0.94750452  0.64858017  1
  O2-  O540  1  0.33877087  0.16974449  0.01181323  1
  O2-  O541  1  0.32406391  0.16476510  0.33992002  1
  O2-  O542  1  0.31977176  0.16477958  0.68051331  1
  O2-  O543  1  0.32872803  0.42581934  0.02402958  1
  O2-  O544  1  0.32684802  0.40967706  0.35304496  1
  O2-  O545  1  0.33417537  0.43164218  0.68136810  1
  O2-  O546  1  0.32804059  0.66951731  0.00076990  1
  O2-  O547  1  0.32563739  0.67402522  0.35776094  1
  O2-  O548  1  0.31886817  0.68568042  0.71568541  1
  O2-  O549  1  0.29763365  0.90153437  0.02252211  1
  O2-  O550  1  0.34029081  0.92668940  0.35578546  1
  O2-  O551  1  0.31837062  0.91908607  0.68073756  1
  O2-  O552  1  0.57236655  0.15692832  0.01983151  1
  O2-  O553  1  0.58769092  0.16874819  0.34775886  1
  O2-  O554  1  0.63829168  0.21327412  0.68894812  1
  O2-  O555  1  0.60160372  0.42293784  0.02342843  1
  O2-  O556  1  0.57129679  0.40614619  0.32943670  1
  O2-  O557  1  0.55070793  0.42507463  0.67797077  1
  O2-  O558  1  0.61597363  0.68032640  0.00124532  1
  O2-  O559  1  0.53833596  0.70642160  0.36721851  1
  O2-  O560  1  0.55766708  0.66773068  0.68242429  1
  O2-  O561  1  0.54663962  0.89306639  0.02364596  1
  O2-  O562  1  0.58510630  0.90600789  0.35342805  1
  O2-  O563  1  0.57072622  0.92033673  0.68340884  1
  O2-  O564  1  0.81168575  0.11894685  -0.03777005  1
  O2-  O565  1  0.84810213  0.18366696  0.35735148  1
  O2-  O566  1  0.82777611  0.15140247  0.68810589  1
  O2-  O567  1  0.82848781  0.40337099  0.01530350  1
  O2-  O568  1  0.83496590  0.42548781  0.35646549  1
  O2-  O569  1  0.81525171  0.45294910  0.64690477  1
  O2-  O570  1  0.86845402  0.68105994  0.03267398  1
  O2-  O571  1  0.83955171  0.67650402  0.34802555  1
  O2-  O572  1  0.82944433  0.67342373  0.67459260  1
  O2-  O573  1  0.83873262  0.92894549  0.01310339  1
  O2-  O574  1  0.79840558  0.93537726  0.36642687  1
  O2-  O575  1  0.85295361  0.93102498  0.69105427  1
