# generated using pymatgen
data_H2O
_symmetry_space_group_name_H-M   'P 1'
_cell_length_a   17.98546243
_cell_length_b   17.97984511
_cell_length_c   21.98828596
_cell_angle_alpha   89.99134613
_cell_angle_beta   89.99899149
_cell_angle_gamma   119.99985167
_symmetry_Int_Tables_number   1
_chemical_formula_structural   H2O
_chemical_formula_sum   'H384 O192'
_cell_volume   6157.86557809
_cell_formula_units_Z   192
loop_
 _symmetry_equiv_pos_site_id
 _symmetry_equiv_pos_as_xyz
  1  'x, y, z'
loop_
 _atom_type_symbol
 _atom_type_oxidation_number
  H+  1.0
  O2-  -2.0
loop_
 _atom_site_type_symbol
 _atom_site_label
 _atom_site_symmetry_multiplicity
 _atom_site_fract_x
 _atom_site_fract_y
 _atom_site_fract_z
 _atom_site_occupancy
  H+  H0  1  0.00598316  0.36251815  0.82147014  1
  H+  H1  1  0.61493619  0.88876478  0.16533930  1
  H+  H2  1  0.14089388  0.25315710  0.51277419  1
  H+  H3  1  0.11810580  0.86073413  0.16670186  1
  H+  H4  1  0.86472415  0.72773063  0.00669062  1
  H+  H5  1  0.38834286  0.61707823  0.83553115  1
  H+  H6  1  0.62828918  0.36051935  0.66531930  1
  H+  H7  1  0.12941254  0.22218465  0.67939359  1
  H+  H8  1  0.34556909  0.87620370  0.33635136  1
  H+  H9  1  0.21195242  0.11855861  0.36314491  1
  H+  H10  1  0.86302373  0.87825057  0.49890511  1
  H+  H11  1  0.32493618  0.94019342  -0.00576492  1
  H+  H12  1  0.82708916  0.66056951  0.06294968  1
  H+  H13  1  0.25789835  0.38694597  0.16415454  1
  H+  H14  1  0.60557116  0.36154000  0.33939827  1
  H+  H15  1  0.43403504  0.10634178  0.30993101  1
  H+  H16  1  0.64689033  0.87277095  0.99811638  1
  H+  H17  1  0.26300187  0.64208579  0.50208660  1
  H+  H18  1  0.60227117  0.62199975  0.33785335  1
  H+  H19  1  0.06641153  -0.07352475  0.19602048  1
  H+  H20  1  0.22406379  0.35421080  -0.00991311  1
  H+  H21  1  0.71775334  0.59068168  0.16299873  1
  H+  H22  1  0.86809473  0.35763406  0.32728741  1
  H+  H23  1  0.63408775  0.53353456  0.84280440  1
  H+  H24  1  0.59997980  0.62965538  0.49501585  1
  H+  H25  1  0.85265273  0.72384607  0.67355935  1
  H+  H26  1  0.60518298  0.96662696  0.67560175  1
  H+  H27  1  0.88236420  0.10468924  0.49708782  1
  H+  H28  1  0.62413365  0.98382775  0.84613337  1
  H+  H29  1  0.52294699  0.39963353  0.83198199  1
  H+  H30  1  0.12265115  0.01434718  0.66943318  1
  H+  H31  1  0.13182935  0.27953573  0.32628407  1
  H+  H32  1  0.10398120  -0.03122509  1.00933096  1
  H+  H33  1  0.11764477  0.00169796  0.13324399  1
  H+  H34  1  0.72042010  0.61391421  0.50704683  1
  H+  H35  1  0.88677141  0.10558412  0.82883080  1
  H+  H36  1  0.85775098  0.22695411  0.16485306  1
  H+  H37  1  0.52393724  0.13417759  0.67802973  1
  H+  H38  1  0.83716000  0.94755726  0.34706726  1
  H+  H39  1  0.09698804  0.37637279  0.33884779  1
  H+  H40  1  -0.04127418  0.84037904  0.16314022  1
  H+  H41  1  0.66007185  0.16552825  0.35635295  1
  H+  H42  1  0.19196989  0.83432458  0.98513710  1
  H+  H43  1  0.64688932  0.12094948  0.16821133  1
  H+  H44  1  0.71766675  0.85744591  0.18584652  1
  H+  H45  1  0.85342182  0.96693401  0.17829187  1
  H+  H46  1  0.12403155  0.55056191  0.51968107  1
  H+  H47  1  0.10005761  0.35849473  0.00476829  1
  H+  H48  1  0.14862754  0.92228425  0.70752785  1
  H+  H49  1  -0.02200744  0.10711180  0.83269534  1
  H+  H50  1  0.45075770  0.86173351  0.33490390  1
  H+  H51  1  1.02272150  0.65293239  1.01925513  1
  H+  H52  1  0.01383458  0.35988910  0.52543593  1
  H+  H53  1  0.26401700  0.62568034  0.34062353  1
  H+  H54  1  0.83722933  0.61773235  0.16131973  1
  H+  H55  1  0.13714288  0.76811231  0.31349177  1
  H+  H56  1  0.40175551  0.00786984  0.31500801  1
  H+  H57  1  0.37348334  0.23097091  0.15785271  1
  H+  H58  1  0.26743642  0.38438101  0.82679067  1
  H+  H59  1  0.87967285  0.09741150  0.31626894  1
  H+  H60  1  0.10316202  0.21513054  0.99167502  1
  H+  H61  1  0.86131273  0.13319659  0.15780001  1
  H+  H62  1  0.32551976  0.41229246  0.06336711  1
  H+  H63  1  0.63966820  0.10917413  0.84727290  1
  H+  H64  1  0.39379218  0.52124280  0.17424562  1
  H+  H65  1  0.16796903  0.36874924  0.65537865  1
  H+  H66  1  0.87189153  0.22586337  0.49431329  1
  H+  H67  1  0.34214564  0.68180578  0.72381313  1
  H+  H68  1  0.92437542  0.58782631  0.73419683  1
  H+  H69  1  0.71492323  0.36007175  0.51267214  1
  H+  H70  1  0.51456567  0.62459544  0.33801224  1
  H+  H71  1  0.62512648  0.76200515  0.32976180  1
  H+  H72  1  -0.01760045  0.13879023  0.65535533  1
  H+  H73  1  1.01903203  0.13370670  0.49484025  1
  H+  H74  1  0.26761433  0.38494966  0.34130521  1
  H+  H75  1  0.13515672  0.02095505  0.50166249  1
  H+  H76  1  0.75782527  0.12472527  0.67186091  1
  H+  H77  1  0.88399038  0.01613292  0.50182603  1
  H+  H78  1  0.69941374  0.47367895  0.04506987  1
  H+  H79  1  0.78251451  0.40033285  0.00174337  1
  H+  H80  1  0.57085790  0.14630375  0.00733530  1
  H+  H81  1  0.95681169  0.84274502  0.32148998  1
  H+  H82  1  0.38975722  0.02391990  0.83689308  1
  H+  H83  1  0.88641264  0.61440620  0.83613319  1
  H+  H84  1  0.66324478  0.83493322  0.59668108  1
  H+  H85  1  0.69254353  0.06328490  1.00194510  1
  H+  H86  1  0.52653842  0.63061903  0.16100854  1
  H+  H87  1  0.13769520  0.66711782  0.67105776  1
  H+  H88  1  0.85392242  0.48255778  0.49880757  1
  H+  H89  1  0.77381679  0.12628603  0.82301748  1
  H+  H90  1  0.61123031  0.22446216  0.67784053  1
  H+  H91  1  0.91753327  0.26400683  0.00305727  1
  H+  H92  1  0.11419575  0.48993595  0.83548807  1
  H+  H93  1  0.37881913  0.39073513  0.67025465  1
  H+  H94  1  0.36164853  0.46985941  0.49454089  1
  H+  H95  1  0.61505903  0.64600667  0.00628390  1
  H+  H96  1  0.84873062  0.39345800  0.51132089  1
  H+  H97  1  0.37140853  0.76473890  0.32823565  1
  H+  H98  1  0.26860111  0.37479770  0.66240905  1
  H+  H99  1  0.01962772  0.65247739  0.49280222  1
  H+  H100  1  0.98015635  0.86157318  0.51357054  1
  H+  H101  1  0.61149775  0.62489248  0.15691113  1
  H+  H102  1  0.86856659  0.51983019  0.17809304  1
  H+  H103  1  0.39967501  0.87505754  0.84202616  1
  H+  H104  1  0.47250333  0.10943209  0.50820210  1
  H+  H105  1  0.34304833  0.14627405  0.34837269  1
  H+  H106  1  0.86092128  0.47116637  0.67758494  1
  H+  H107  1  0.89421493  0.86297362  0.83405969  1
  H+  H108  1  0.56899681  0.65327345  0.43375222  1
  H+  H109  1  -0.04188951  0.36227813  0.70259944  1
  H+  H110  1  0.28510202  0.14331953  0.67935508  1
  H+  H111  1  0.63699499  0.10978489  0.50806150  1
  H+  H112  1  0.38681055  0.36589659  0.99639557  1
  H+  H113  1  0.76350130  0.87008024  0.66722917  1
  H+  H114  1  0.86722557  0.72748366  0.82800517  1
  H+  H115  1  0.78164008  0.17553583  0.40784436  1
  H+  H116  1  0.57115722  0.94516495  0.01578748  1
  H+  H117  1  0.39280244  0.36252068  0.50838633  1
  H+  H118  1  0.88259904  0.61376357  0.33414457  1
  H+  H119  1  0.60921414  0.38111953  0.49468142  1
  H+  H120  1  0.10714805  0.13023532  0.49126642  1
  H+  H121  1  0.42894450  0.07298111  0.99332046  1
  H+  H122  1  0.13535654  0.03628792  0.33434841  1
  H+  H123  1  0.43713926  0.82483418  1.00279245  1
  H+  H124  1  0.65782434  0.03273278  0.50053503  1
  H+  H125  1  0.23062404  0.87102790  0.50894566  1
  H+  H126  1  0.52571183  0.89043676  0.84305549  1
  H+  H127  1  0.60943248  0.62268081  0.67415994  1
  H+  H128  1  0.19344036  0.48270220  0.54340236  1
  H+  H129  1  0.63513473  0.51206737  0.32423767  1
  H+  H130  1  0.73883078  0.36089911  0.83304667  1
  H+  H131  1  0.91966343  0.83003992  0.57323242  1
  H+  H132  1  0.75068198  0.85912370  0.34190036  1
  H+  H133  1  0.38155012  0.74762738  0.82113687  1
  H+  H134  1  0.24987103  0.60679291  -0.00154391  1
  H+  H135  1  0.64634787  0.37318510  0.98375292  1
  H+  H136  1  0.85747416  0.14843032  0.66609849  1
  H+  H137  1  0.57745632  0.65498306  0.74082071  1
  H+  H138  1  0.36004483  0.62900892  0.15121194  1
  H+  H139  1  0.15548648  0.82667310  0.25345671  1
  H+  H140  1  0.57748358  0.97637046  0.33012696  1
  H+  H141  1  0.46516633  0.60591473  0.50621416  1
  H+  H142  1  0.64922243  0.28437058  0.98702329  1
  H+  H143  1  0.20285573  0.55852730  0.86294533  1
  H+  H144  1  0.09732541  0.12198164  0.67421246  1
  H+  H145  1  0.76314003  0.38789642  0.34585435  1
  H+  H146  1  0.11845118  0.49452230  0.99834779  1
  H+  H147  1  0.98211562  0.14644116  0.31639413  1
  H+  H148  1  0.36239774  0.47527049  0.00492115  1
  H+  H149  1  0.38781955  0.11324110  0.83663272  1
  H+  H150  1  0.21325209  0.10206744  0.98937084  1
  H+  H151  1  0.87120778  0.85371545  0.66462498  1
  H+  H152  1  0.61242802  0.46897675  0.11587979  1
  H+  H153  1  0.36200174  -0.02206030  0.48757827  1
  H+  H154  1  0.89790395  0.53538167  0.98827348  1
  H+  H155  1  0.87659917  0.61987421  0.50287425  1
  H+  H156  1  0.66128344  0.82948402  0.90389739  1
  H+  H157  1  0.72315398  0.85057311  0.50308239  1
  H+  H158  1  0.20690933  0.09369860  0.13822063  1
  H+  H159  1  0.63423079  0.77680498  0.99739928  1
  H+  H160  1  0.85524475  0.63637175  0.68059360  1
  H+  H161  1  0.35547246  0.22200263  0.00217842  1
  H+  H162  1  0.15506114  0.76980881  0.83444706  1
  H+  H163  1  0.28858561  0.66867011  0.81269976  1
  H+  H164  1  0.63027163  0.26618666  0.32881321  1
  H+  H165  1  0.38178196  0.36284021  0.84088409  1
  H+  H166  1  0.26913616  0.13457214  0.50579016  1
  H+  H167  1  0.52735383  0.13617501  0.83020489  1
  H+  H168  1  0.76014494  0.13023005  0.15967115  1
  H+  H169  1  0.86402967  0.96868023  0.82169087  1
  H+  H170  1  0.94679795  0.34074708  0.32748321  1
  H+  H171  1  0.39164577  0.87441903  0.17021563  1
  H+  H172  1  0.12824349  0.34907324  0.83811737  1
  H+  H173  1  0.06804374  0.39412074  0.65818836  1
  H+  H174  1  0.98458612  0.86885068  0.82788396  1
  H+  H175  1  0.63432390  0.52243875  0.50622796  1
  H+  H176  1  0.15409740  0.48618176  0.65947059  1
  H+  H177  1  0.52477851  0.38956314  0.67801703  1
  H+  H178  1  0.11423083  0.12987798  0.82888026  1
  H+  H179  1  0.56033818  0.12402296  0.33422754  1
  H+  H180  1  0.10317649  0.14196081  0.35154712  1
  H+  H181  1  0.62875931  0.10539104  0.66202595  1
  H+  H182  1  0.89497178  0.62126181  0.98557026  1
  H+  H183  1  0.58678659  0.16179368  0.77049652  1
  H+  H184  1  0.88020420  -0.00191915  0.98017634  1
  H+  H185  1  0.12387396  0.51585462  0.32945848  1
  H+  H186  1  0.77102157  0.38920583  0.16377985  1
  H+  H187  1  0.27232943  0.89109952  0.67745324  1
  H+  H188  1  0.48956795  0.39627303  0.18013209  1
  H+  H189  1  0.36629756  -0.02518805  0.67409698  1
  H+  H190  1  0.88137024  0.26053478  0.83148074  1
  H+  H191  1  0.20720683  0.85668885  0.16212634  1
  H+  H192  1  0.22941786  0.58489629  0.17187731  1
  H+  H193  1  0.09743835  0.10931609  0.12819921  1
  H+  H194  1  0.97079567  0.39957229  0.68114847  1
  H+  H195  1  0.11428881  0.85075749  0.98227437  1
  H+  H196  1  0.61298235  0.47789367  0.67498072  1
  H+  H197  1  0.04055260  -0.00002515  0.63254714  1
  H+  H198  1  0.13041442  0.37275169  0.17642081  1
  H+  H199  1  0.34471127  0.12784334  1.00052686  1
  H+  H200  1  0.37976518  0.51829604  0.32609340  1
  H+  H201  1  0.39073136  0.37020878  0.17686753  1
  H+  H202  1  0.47361389  0.36226576  0.99605902  1
  H+  H203  1  0.16152374  0.35163491  0.51965545  1
  H+  H204  1  0.85558051  0.38268227  0.16085024  1
  H+  H205  1  0.63352899  0.28730087  0.17464258  1
  H+  H206  1  0.73387112  0.62925600  0.99268188  1
  H+  H207  1  0.27308309  0.13482611  0.82553028  1
  H+  H208  1  0.77498222  0.88124149  0.82794568  1
  H+  H209  1  0.26956957  0.31470427  0.13340919  1
  H+  H210  1  0.63552446  0.86026465  0.65837886  1
  H+  H211  1  0.09707386  0.19635221  0.14644652  1
  H+  H212  1  0.02013424  0.63463157  0.33974285  1
  H+  H213  1  0.64447590  0.02849673  0.16931131  1
  H+  H214  1  0.38387352  0.11084389  0.51166670  1
  H+  H215  1  0.96178992  0.10382109  0.15728448  1
  H+  H216  1  0.51448057  0.62536695  0.67588120  1
  H+  H217  1  0.37979477  0.60744327  0.32593282  1
  H+  H218  1  0.61985989  0.88249155  0.84356463  1
  H+  H219  1  0.70103608  0.97703525  0.42390268  1
  H+  H220  1  0.13676159  0.02511220  0.81512875  1
  H+  H221  1  0.64548499  0.50480722  0.00896984  1
  H+  H222  1  0.72595091  0.62194982  0.84222642  1
  H+  H223  1  0.85962650  0.72936737  0.49747425  1
  H+  H224  1  0.66586847  0.16535207  1.00782162  1
  H+  H225  1  0.37697564  0.86598593  0.49746909  1
  H+  H226  1  0.39670171  0.11481197  0.16441505  1
  H+  H227  1  0.62972502  0.77329856  0.84084446  1
  H+  H228  1  0.96002589  0.84983623  0.67655443  1
  H+  H229  1  0.52083342  0.38216744  0.49350091  1
  H+  H230  1  0.53480095  0.14674405  0.15237575  1
  H+  H231  1  0.34567837  0.61627206  0.99723326  1
  H+  H232  1  0.64929802  0.90296655  0.47289011  1
  H+  H233  1  0.61466823  0.64138082  0.82821147  1
  H+  H234  1  0.38711314  0.37006972  0.33051221  1
  H+  H235  1  0.82628787  0.15828831  0.76020225  1
  H+  H236  1  0.38817968  0.61632316  0.65907222  1
  H+  H237  1  0.09313721  0.84914799  0.33763764  1
  H+  H238  1  0.86655423  0.88369540  0.99460951  1
  H+  H239  1  0.13978524  0.79235486  0.66835939  1
  H+  H240  1  0.07952735  0.74123118  0.12413344  1
  H+  H241  1  0.97545868  0.86002407  0.99471740  1
  H+  H242  1  0.47560119  0.61226538  0.99344146  1
  H+  H243  1  0.01457855  0.79128569  0.37915992  1
  H+  H244  1  0.33064766  0.85437998  -0.00156022  1
  H+  H245  1  0.39178009  0.27752596  0.66464787  1
  H+  H246  1  0.64253503  0.26163070  0.83511924  1
  H+  H247  1  0.38743566  0.27080179  0.51462064  1
  H+  H248  1  0.36195359  0.22619307  0.82934324  1
  H+  H249  1  0.34402907  0.91590082  0.77185636  1
  H+  H250  1  0.08796140  0.45391001  0.15393315  1
  H+  H251  1  0.12384909  0.09784950  0.98244429  1
  H+  H252  1  0.38230603  0.52474469  0.83624143  1
  H+  H253  1  0.12749879  0.56633039  0.67668741  1
  H+  H254  1  0.83103949  0.25142572  0.64144396  1
  H+  H255  1  0.07033290  0.90656074  0.06794592  1
  H+  H256  1  0.53099095  0.90060780  0.16301069  1
  H+  H257  1  0.65348861  0.82160523  0.27105669  1
  H+  H258  1  0.11894871  0.89180029  0.50024622  1
  H+  H259  1  0.35372150  -0.03000767  0.14495461  1
  H+  H260  1  0.73348872  -0.01131854  0.31932125  1
  H+  H261  1  0.62769627  0.76909524  0.49940369  1
  H+  H262  1  0.85075776  0.72012332  0.33807285  1
  H+  H263  1  0.95686099  0.34846524  0.17380136  1
  H+  H264  1  0.77677798  0.14414049  0.50176161  1
  H+  H265  1  0.65400012  0.32765753  0.57130016  1
  H+  H266  1  0.80569272  0.22174223  0.34375141  1
  H+  H267  1  0.28220871  0.88127539  0.83089529  1
  H+  H268  1  0.10923976  0.65648226  0.50124278  1
  H+  H269  1  0.60762508  0.22119663  0.49743848  1
  H+  H270  1  0.13862414  0.78598356  0.51196895  1
  H+  H271  1  0.86896865  0.84607564  0.32120035  1
  H+  H272  1  0.95689292  0.37446687  0.47953184  1
  H+  H273  1  0.72028406  0.61425977  0.66075532  1
  H+  H274  1  0.10770578  0.61905805  0.82572149  1
  H+  H275  1  0.35462173  0.73757326  0.98616401  1
  H+  H276  1  0.36591506  0.86198516  0.65737839  1
  H+  H277  1  0.85921418  0.47468544  0.82551157  1
  H+  H278  1  0.35814843  0.24071630  0.34670132  1
  H+  H279  1  0.88443594  0.35129860  0.83477708  1
  H+  H280  1  0.83640851  0.37289626  0.66232159  1
  H+  H281  1  0.26968731  0.63604201  0.67055177  1
  H+  H282  1  0.41379513  0.33475040  0.89951796  1
  H+  H283  1  0.71678859  0.36077044  0.66327662  1
  H+  H284  1  0.13048585  0.60776653  0.32728733  1
  H+  H285  1  0.36481825  0.76288319  0.65300649  1
  H+  H286  1  0.46380335  0.86284975  0.50713717  1
  H+  H287  1  0.35517867  0.72216636  0.49385319  1
  H+  H288  1  0.16051093  0.06486841  0.88665345  1
  H+  H289  1  0.82953291  0.41246365  0.76607519  1
  H+  H290  1  0.51199353  0.37408186  0.34312065  1
  H+  H291  1  0.86540732  0.20197583  0.06020087  1
  H+  H292  1  0.37333327  0.48140714  0.66950930  1
  H+  H293  1  0.16279824  0.59814779  0.58275256  1
  H+  H294  1  0.60892083  0.18854828  0.10157374  1
  H+  H295  1  0.67046912  0.33149715  0.89455353  1
  H+  H296  1  0.41661501  0.58353616  0.60034955  1
  H+  H297  1  0.90929302  0.59357026  0.56176124  1
  H+  H298  1  0.85100227  0.87539496  0.17640343  1
  H+  H299  1  0.65719611  0.07384815  0.60233304  1
  H+  H300  1  0.68619236  0.09481222  0.90634344  1
  H+  H301  1  0.82534618  0.66652296  0.77032063  1
  H+  H302  1  0.57676608  0.94297485  0.39634384  1
  H+  H303  1  0.89513354  0.31805984  0.23423157  1
  H+  H304  1  0.65992230  0.58483166  0.60050075  1
  H+  H305  1  0.58227879  0.66887864  0.06695312  1
  H+  H306  1  0.89816076  0.80676710  0.22186529  1
  H+  H307  1  0.82315562  0.41415785  0.40468081  1
  H+  H308  1  0.19060864  0.47651885  0.47340716  1
  H+  H309  1  0.83518869  0.70651383  0.15443226  1
  H+  H310  1  0.76582527  0.62858870  0.34135264  1
  H+  H311  1  0.64181714  0.38189876  0.18072658  1
  H+  H312  1  0.07383740  0.39356025  0.76410512  1
  H+  H313  1  0.91955154  0.10262398  0.22254748  1
  H+  H314  1  0.13429423  0.55200419  0.94086711  1
  H+  H315  1  0.33079613  0.41569367  0.76908791  1
  H+  H316  1  0.77928753  0.15637917  0.99151532  1
  H+  H317  1  0.33067422  0.41257672  0.39957708  1
  H+  H318  1  0.41835980  0.84663305  0.23150050  1
  H+  H319  1  0.61121069  0.93901591  0.07842811  1
  H+  H320  1  0.65981620  0.56508488  0.26270383  1
  H+  H321  1  0.88282703  0.31652224  0.58815066  1
  H+  H322  1  0.13590174  0.26417154  0.83983753  1
  H+  H323  1  0.28151433  0.37289980  0.49524136  1
  H+  H324  1  0.41732868  0.57981497  0.23313003  1
  H+  H325  1  0.57589235  0.40062665  0.40633054  1
  H+  H326  1  0.82592254  0.67075104  0.43607403  1
  H+  H327  1  0.16950443  0.85331609  0.61027398  1
  H+  H328  1  0.43016976  0.07273291  0.21461404  1
  H+  H329  1  0.07389085  0.18116795  0.40175480  1
  H+  H330  1  0.09985789  0.67528259  0.73534482  1
  H+  H331  1  0.38986414  0.10987673  0.66391862  1
  H+  H332  1  0.82663876  0.89539641  0.43692728  1
  H+  H333  1  0.59253205  0.91532157  0.73569846  1
  H+  H334  1  0.42159657  0.33495198  0.60294429  1
  H+  H335  1  0.14733083  0.06866640  0.56397118  1
  H+  H336  1  0.76056474  0.07929674  0.35007544  1
  H+  H337  1  0.41816129  0.83104641  0.90128406  1
  H+  H338  1  0.82296842  0.89856988  0.72790981  1
  H+  H339  1  0.17027389  0.83167648  0.89021967  1
  H+  H340  1  0.05092513  0.38906806  0.09664010  1
  H+  H341  1  0.05999958  0.40063650  0.39579945  1
  H+  H342  1  0.08397450  0.16125838  0.77082059  1
  H+  H343  1  0.39414572  0.06797289  0.92613864  1
  H+  H344  1  0.39251570  0.82874548  0.59012374  1
  H+  H345  1  0.98821417  0.62331954  0.68061689  1
  H+  H346  1  0.77738710  0.88630154  -0.00450047  1
  H+  H347  1  0.32346307  0.65653045  0.39966202  1
  H+  H348  1  0.42165994  0.34306879  0.27117992  1
  H+  H349  1  0.58494818  0.42922851  0.77499025  1
  H+  H350  1  0.92267814  0.82908145  0.93209668  1
  H+  H351  1  0.34072813  0.17277395  0.09814174  1
  H+  H352  1  0.32923425  0.17161435  0.44762179  1
  H+  H353  1  0.16628734  0.35339232  0.27236923  1
  H+  H354  1  -0.02607719  0.10116728  -0.02132494  1
  H+  H355  1  0.92532484  0.10489793  0.59453757  1
  H+  H356  1  0.91302010  0.06873982  0.91583536  1
  H+  H357  1  0.37539879  0.60510971  0.50905405  1
  H+  H358  1  0.06565053  0.15225285  0.04901440  1
  H+  H359  1  0.31457877  0.89892490  0.09284117  1
  H+  H360  1  0.67080955  0.59820669  0.93415631  1
  H+  H361  1  0.62918200  0.76999017  0.17327572  1
  H+  H362  1  0.09332056  0.04822498  0.24187862  1
  H+  H363  1  0.16557916  0.32634683  0.92984204  1
  H+  H364  1  0.32705771  0.91831099  0.42681776  1
  H+  H365  1  0.34166720  0.17170978  0.73903508  1
  H+  H366  1  0.07771922  0.90245877  0.43880832  1
  H+  H367  1  0.08405927  0.67170601  0.39641629  1
  H+  H368  1  0.58383329  0.16398948  0.43728823  1
  H+  H369  1  0.89681051  0.58001542  0.23742132  1
  H+  H370  1  0.31577151  0.64308735  0.09318140  1
  H+  H371  1  0.65342764  0.33180643  0.26957082  1
  H+  H372  1  0.41927095  0.58019554  0.93218450  1
  H+  H373  1  0.52198012  0.63676250  0.82607240  1
  H+  H374  1  0.88233875  0.52483415  0.33412879  1
  H+  H375  1  0.19390274  0.32178101  0.59980180  1
  H+  H376  1  0.17111582  0.56132874  0.23397438  1
  H+  H377  1  0.26497759  0.88975787  0.33053348  1
  H+  H378  1  0.92175896  0.58643939  0.89307039  1
  H+  H379  1  0.41625719  0.07863460  0.60348765  1
  H+  H380  1  0.19496956  0.45862494  0.20308139  1
  H+  H381  1  0.02542119  0.63105778  0.82412732  1
  H+  H382  1  0.13103032  0.04061535  0.24346558  1
  H+  H383  1  0.83411423  0.43000279  0.06447638  1
  O2-  O384  1  0.06218247  0.14137693  0.12631035  1
  O2-  O385  1  0.08100271  0.16666755  0.48136694  1
  O2-  O386  1  0.08249695  0.16084845  0.81630397  1
  O2-  O387  1  0.05081245  0.39256726  0.14224089  1
  O2-  O388  1  0.15693760  0.44788946  0.50972343  1
  O2-  O389  1  0.07057076  0.39350827  0.80853069  1
  O2-  O390  1  0.02976522  0.69971390  0.09866735  1
  O2-  O391  1  0.08067102  0.68433117  0.47975481  1
  O2-  O392  1  0.08521627  0.65475324  0.80821425  1
  O2-  O393  1  0.06446994  0.90575691  0.15469619  1
  O2-  O394  1  0.08365261  0.91608242  0.48290362  1
  O2-  O395  1  0.09004264  0.95413384  0.77043953  1
  O2-  O396  1  0.34355009  0.17103439  0.14354604  1
  O2-  O397  1  0.33110205  0.16710782  0.49251955  1
  O2-  O398  1  0.33564312  0.16655167  0.81259865  1
  O2-  O399  1  0.30178984  0.37603933  0.14256872  1
  O2-  O400  1  0.33954637  0.41085504  0.47738450  1
  O2-  O401  1  0.32954926  0.41847663  0.81385228  1
  O2-  O402  1  0.31754486  0.64504934  0.13821672  1
  O2-  O403  1  0.32065191  0.65981868  0.48449215  1
  O2-  O404  1  0.34853833  0.68853513  0.80260693  1
  O2-  O405  1  0.31931445  0.90733747  0.13789873  1
  O2-  O406  1  0.33093020  0.91710579  0.47250519  1
  O2-  O407  1  0.34647277  0.91738129  0.81694605  1
  O2-  O408  1  0.59851562  0.18452462  0.14619290  1
  O2-  O409  1  0.57897613  0.16067696  0.48234645  1
  O2-  O410  1  0.58880838  0.16365217  0.81653544  1
  O2-  O411  1  0.60867068  0.46521715  0.16123082  1
  O2-  O412  1  0.58011977  0.41073494  0.47497791  1
  O2-  O413  1  0.58393319  0.43570927  0.81964754  1
  O2-  O414  1  0.58607477  0.66027531  0.14409822  1
  O2-  O415  1  0.56672023  0.65624534  0.47927620  1
  O2-  O416  1  0.58223702  0.66929561  0.80988351  1
  O2-  O417  1  0.59294027  0.92655352  0.14852566  1
  O2-  O418  1  0.65063020  0.95328651  0.45121842  1
  O2-  O419  1  0.59087761  0.92014000  0.83133885  1
  O2-  O420  1  0.82898404  0.16580958  0.14537750  1
  O2-  O421  1  0.83136269  0.16912121  0.47734518  1
  O2-  O422  1  0.83245540  0.15538263  0.80575134  1
  O2-  O423  1  0.82961327  0.41710411  0.14647914  1
  O2-  O424  1  0.82365964  0.42031141  0.48645584  1
  O2-  O425  1  0.82822506  0.41306639  0.81178941  1
  O2-  O426  1  0.80356858  0.64400793  0.14126479  1
  O2-  O427  1  0.82646299  0.66869402  0.48178137  1
  O2-  O428  1  0.83074687  0.66596527  0.81544071  1
  O2-  O429  1  0.81837046  0.90492774  0.18650040  1
  O2-  O430  1  0.83055738  0.90515295  0.48183899  1
  O2-  O431  1  0.83310094  0.90626814  0.81043505  1
  O2-  O432  1  0.14887024  0.06590006  0.12114128  1
  O2-  O433  1  0.16223904  0.08008142  0.52002329  1
  O2-  O434  1  0.16915244  0.08055055  0.84291127  1
  O2-  O435  1  0.18495645  0.39746384  0.20023369  1
  O2-  O436  1  0.18335360  0.31266432  0.53080976  1
  O2-  O437  1  0.16560067  0.32621240  0.85293771  1
  O2-  O438  1  0.17672921  0.53866797  0.19424320  1
  O2-  O439  1  0.16098543  0.60810782  0.53611745  1
  O2-  O440  1  0.14679528  0.55068525  0.85246339  1
  O2-  O441  1  0.14730826  0.82520946  0.17765026  1
  O2-  O442  1  0.17283435  0.84557511  0.52859381  1
  O2-  O443  1  0.18864176  0.83036739  0.84691942  1
  O2-  O444  1  0.42827250  0.08264721  0.17040413  1
  O2-  O445  1  0.41218327  0.07726694  0.52377281  1
  O2-  O446  1  0.41921782  0.08433888  0.85306728  1
  O2-  O447  1  0.43099777  0.35282254  0.19360601  1
  O2-  O448  1  0.42272298  0.33325758  0.52628330  1
  O2-  O449  1  0.41286964  0.33283305  0.85432978  1
  O2-  O450  1  0.42309475  0.58092576  0.18750328  1
  O2-  O451  1  0.40516882  0.57422393  0.52382384  1
  O2-  O452  1  0.41676034  0.58571076  0.85077190  1
  O2-  O453  1  0.43527829  0.86306720  0.18870981  1
  O2-  O454  1  0.40280161  0.83248871  0.51740730  1
  O2-  O455  1  0.43179157  0.84431411  0.85680786  1
  O2-  O456  1  0.67924597  0.09161240  0.18004128  1
  O2-  O457  1  0.67240845  0.08578694  0.52432207  1
  O2-  O458  1  0.66965814  0.07849301  0.86235242  1
  O2-  O459  1  0.66299141  0.34419459  0.19623817  1
  O2-  O460  1  0.65377103  0.32731299  0.52537066  1
  O2-  O461  1  0.67487019  0.32508128  0.84833158  1
  O2-  O462  1  0.65246263  0.55600267  0.18199970  1
  O2-  O463  1  0.66015117  0.58150947  0.52291239  1
  O2-  O464  1  0.66529609  0.59618777  0.85672432  1
  O2-  O465  1  0.65281976  0.82772007  0.19175902  1
  O2-  O466  1  0.66137561  0.83037677  0.51200826  1
  O2-  O467  1  0.65966734  0.83312488  0.85784478  1
  O2-  O468  1  0.90585372  0.08571686  0.17807098  1
  O2-  O469  1  0.91529106  0.07825481  0.51334953  1
  O2-  O470  1  0.91549986  0.07389296  0.84497483  1
  O2-  O471  1  0.89531143  0.31639026  0.18872615  1
  O2-  O472  1  0.95410181  0.34181775  0.51577627  1
  O2-  O473  1  0.91601566  0.32141503  0.84501692  1
  O2-  O474  1  0.88297111  0.57718612  0.19365930  1
  O2-  O475  1  0.90819765  0.58914311  0.51749367  1
  O2-  O476  1  0.91728102  0.58266849  0.84698734  1
  O2-  O477  1  0.89602610  0.80756332  0.17678299  1
  O2-  O478  1  0.91908751  0.82971276  0.52771631  1
  O2-  O479  1  0.92814999  0.83542427  0.84745446  1
  O2-  O480  1  0.14893447  0.08018697  0.36515822  1
  O2-  O481  1  0.10168392  0.04130050  0.63735396  1
  O2-  O482  1  0.15526109  0.06728303  0.97124234  1
  O2-  O483  1  0.16234617  0.34302213  0.31731235  1
  O2-  O484  1  0.19901743  0.33409959  0.64608609  1
  O2-  O485  1  0.16368992  0.32169437  0.97544552  1
  O2-  O486  1  0.16031803  0.57560801  0.31507501  1
  O2-  O487  1  0.17395620  0.57806395  0.64838709  1
  O2-  O488  1  0.15055939  0.55456282  0.98369677  1
  O2-  O489  1  0.16024018  0.82846880  0.29970282  1
  O2-  O490  1  0.17141501  0.85366110  0.65559439  1
  O2-  O491  1  0.14117954  0.82204509  0.96055965  1
  O2-  O492  1  0.44840565  0.06343893  0.29664242  1
  O2-  O493  1  0.41791865  0.07757773  0.64907071  1
  O2-  O494  1  0.37658617  0.05658052  0.97059500  1
  O2-  O495  1  0.41905256  0.33969730  0.31693941  1
  O2-  O496  1  0.42064028  0.33795537  0.64871514  1
  O2-  O497  1  0.41515938  0.33362891  0.98016745  1
  O2-  O498  1  0.41076748  0.57813948  0.30985270  1
  O2-  O499  1  0.41788934  0.58421879  0.64635919  1
  O2-  O500  1  0.41565636  0.57700679  0.97735417  1
  O2-  O501  1  0.39465445  0.82495441  0.31409711  1
  O2-  O502  1  0.38965074  0.82502274  0.63638153  1
  O2-  O503  1  0.38872895  0.80209866  0.97474393  1
  O2-  O504  1  0.76967962  0.02852947  0.35090780  1
  O2-  O505  1  0.65492100  0.07102289  0.64769060  1
  O2-  O506  1  0.71385536  0.11869309  0.98037701  1
  O2-  O507  1  0.65014340  0.32769137  0.31590352  1
  O2-  O508  1  0.65614640  0.32833174  0.64859861  1
  O2-  O509  1  0.67017258  0.33958965  0.96444934  1
  O2-  O510  1  0.66190847  0.57076410  0.30804862  1
  O2-  O511  1  0.65878778  0.58443675  0.64629493  1
  O2-  O512  1  0.67125917  0.59815040  0.97980150  1
  O2-  O513  1  0.65783419  0.82287883  0.31643143  1
  O2-  O514  1  0.66658169  0.83205371  0.64137624  1
  O2-  O515  1  0.66656701  0.83570441  0.97845488  1
  O2-  O516  1  0.93092699  0.13571083  0.29218591  1
  O2-  O517  1  0.92972847  0.13019487  0.63514705  1
  O2-  O518  1  0.91265077  0.06469855  0.96240070  1
  O2-  O519  1  0.88713742  0.31725252  0.31238472  1
  O2-  O520  1  0.83454449  0.29954777  0.61598059  1
  O2-  O521  1  0.99161908  0.35190666  0.98320956  1
  O2-  O522  1  0.91472690  0.58511180  0.31947332  1
  O2-  O523  1  0.92527425  0.58943986  0.68965390  1
  O2-  O524  1  0.92825090  0.59477716  0.96986809  1
  O2-  O525  1  0.89797222  0.81523006  0.30443382  1
  O2-  O526  1  0.90833143  0.82431141  0.65136868  1
  O2-  O527  1  0.91532050  0.82903807  0.97676214  1
  O2-  O528  1  0.06859771  0.15299719  0.00355008  1
  O2-  O529  1  0.07819740  0.18053250  0.35658900  1
  O2-  O530  1  0.08480567  0.16518494  0.69326667  1
  O2-  O531  1  0.06578717  0.38411861  0.02184669  1
  O2-  O532  1  0.05937903  0.40113144  0.35157871  1
  O2-  O533  1  0.12813459  0.42124335  0.67086692  1
  O2-  O534  1  0.07074385  0.67889156  0.04955774  1
  O2-  O535  1  0.08249947  0.66520100  0.35153429  1
  O2-  O536  1  0.09973257  0.68525650  0.68980558  1
  O2-  O537  1  0.07077865  0.90761561  0.02313483  1
  O2-  O538  1  0.04780851  0.85036787  0.36467506  1
  O2-  O539  1  0.15426723  0.97757642  0.72097517  1
  O2-  O540  1  0.32278760  0.16331819  0.01964540  1
  O2-  O541  1  0.32520964  0.18347806  0.36776070  1
  O2-  O542  1  0.34490088  0.17395268  0.69258007  1
  O2-  O543  1  0.33149490  0.41350652  0.01855173  1
  O2-  O544  1  0.32940379  0.41296643  0.35404487  1
  O2-  O545  1  0.34445273  0.41978078  0.68398820  1
  O2-  O546  1  0.31292270  0.64462963  0.01030075  1
  O2-  O547  1  0.32536365  0.65642312  0.35462583  1
  O2-  O548  1  0.33451186  0.67364994  0.67882497  1
  O2-  O549  1  0.30167994  0.88448668  0.01530939  1
  O2-  O550  1  0.32384229  0.91633138  0.34864572  1
  O2-  O551  1  0.33466744  0.91325477  0.68831452  1
  O2-  O552  1  0.62735581  0.18920648  0.02203806  1
  O2-  O553  1  0.60792145  0.17228415  0.35643726  1
  O2-  O554  1  0.58389940  0.16438026  0.69414849  1
  O2-  O555  1  0.64006518  0.45352313  0.03269931  1
  O2-  O556  1  0.57385654  0.39672202  0.35871155  1
  O2-  O557  1  0.58532963  0.41908454  0.69264503  1
  O2-  O558  1  0.58119698  0.67282616  0.02139154  1
  O2-  O559  1  0.57370860  0.65196451  0.35569125  1
  O2-  O560  1  0.57412934  0.64836391  0.69375169  1
  O2-  O561  1  0.62353513  0.94987546  0.03246517  1
  O2-  O562  1  0.54001747  0.94862067  0.36478705  1
  O2-  O563  1  0.57945987  0.90729505  0.69234904  1
  O2-  O564  1  0.86821283  0.20404967  0.01579777  1
  O2-  O565  1  0.75876949  0.17135725  0.36578537  1
  O2-  O566  1  0.81801261  0.16651182  0.68516068  1
  O2-  O567  1  0.83851019  0.43933894  0.01990189  1
  O2-  O568  1  0.82360624  0.41519727  0.35946657  1
  O2-  O569  1  0.82259478  0.41045121  0.68887742  1
  O2-  O570  1  0.83142078  0.66526933  0.01765700  1
  O2-  O571  1  0.82470820  0.66224403  0.35879631  1
  O2-  O572  1  0.81955305  0.66277439  0.68949466  1
  O2-  O573  1  0.83973540  0.91968906  0.00520288  1
  O2-  O574  1  0.81294830  0.88722387  0.35799524  1
  O2-  O575  1  0.82434253  0.89437480  0.68310601  1
