# generated using pymatgen
data_H2O
_symmetry_space_group_name_H-M   'P 1'
_cell_length_a   17.99279855
_cell_length_b   17.99920830
_cell_length_c   22.01200947
_cell_angle_alpha   90.01169727
_cell_angle_beta   89.99293799
_cell_angle_gamma   119.99425814
_symmetry_Int_Tables_number   1
_chemical_formula_structural   H2O
_chemical_formula_sum   'H384 O192'
_cell_volume   6174.01327395
_cell_formula_units_Z   192
loop_
 _symmetry_equiv_pos_site_id
 _symmetry_equiv_pos_as_xyz
  1  'x, y, z'
loop_
 _atom_type_symbol
 _atom_type_oxidation_number
  H+  1.0
  O2-  -2.0
loop_
 _atom_site_type_symbol
 _atom_site_label
 _atom_site_symmetry_multiplicity
 _atom_site_fract_x
 _atom_site_fract_y
 _atom_site_fract_z
 _atom_site_occupancy
  H+  H0  1  0.05798793  0.31668670  0.44491961  1
  H+  H1  1  0.13506243  0.10066429  0.66151779  1
  H+  H2  1  0.77571917  0.38251972  0.17898686  1
  H+  H3  1  0.56455038  0.88761672  0.14789154  1
  H+  H4  1  0.73824050  0.12959811  0.18231984  1
  H+  H5  1  0.82206228  0.62090542  -0.00084334  1
  H+  H6  1  0.39128882  0.52687247  0.99440209  1
  H+  H7  1  0.10757975  0.71011766  0.67730287  1
  H+  H8  1  0.14777475  0.36512975  0.83991590  1
  H+  H9  1  0.78160054  0.39006443  0.00059695  1
  H+  H10  1  0.08004591  0.62727075  0.00626873  1
  H+  H11  1  0.30000642  0.98440722  0.00235599  1
  H+  H12  1  0.63650662  0.49553098  0.33815140  1
  H+  H13  1  0.49509120  0.37351509  -0.02781225  1
  H+  H14  1  0.39895511  0.38850355  0.82960878  1
  H+  H15  1  0.64374611  0.12310195  0.64366062  1
  H+  H16  1  0.17203642  0.33779614  0.27168575  1
  H+  H17  1  0.36327127  0.46083224  0.48698119  1
  H+  H18  1  0.86702371  0.22854048  0.81992421  1
  H+  H19  1  0.90365043  0.60366557  0.63615519  1
  H+  H20  1  0.62174493  0.84891508  0.66018588  1
  H+  H21  1  0.44807272  0.67176489  0.29441798  1
  H+  H22  1  0.98952452  0.60367617  0.65569380  1
  H+  H23  1  0.65942766  0.82891241  0.90171117  1
  H+  H24  1  0.28231600  0.64105495  0.48728094  1
  H+  H25  1  0.69941865  0.85414624  0.51650737  1
  H+  H26  1  0.35475188  0.22126060  0.48891899  1
  H+  H27  1  0.08545079  0.16448170  0.09679815  1
  H+  H28  1  0.14574996  0.03477397  1.00360623  1
  H+  H29  1  0.84911329  0.62634866  0.14675857  1
  H+  H30  1  0.25141060  0.12735314  0.82528524  1
  H+  H31  1  0.61308925  0.12843381  0.17131008  1
  H+  H32  1  0.88858819  0.39400849  0.33342386  1
  H+  H33  1  0.28245442  0.38821234  0.82946865  1
  H+  H34  1  0.27446607  0.38358200  0.16539066  1
  H+  H35  1  0.25399997  0.11630560  0.67498111  1
  H+  H36  1  0.27229941  0.39635194  0.00899315  1
  H+  H37  1  0.89164046  0.36224928  0.98853886  1
  H+  H38  1  0.13315738  1.01092624  0.66866070  1
  H+  H39  1  0.10790422  0.64005923  0.16176447  1
  H+  H40  1  0.71972906  0.61625009  0.66758554  1
  H+  H41  1  0.35544142  0.71505745  0.16670658  1
  H+  H42  1  0.87690408  0.11600195  0.50095998  1
  H+  H43  1  0.36907419  0.35295716  0.33777791  1
  H+  H44  1  0.36391767  -0.02285376  0.49098602  1
  H+  H45  1  0.03241075  0.14347371  0.66604416  1
  H+  H46  1  0.36276789  0.62969066  0.16086382  1
  H+  H47  1  0.37849460  0.61182747  0.65870634  1
  H+  H48  1  0.46281520  0.35191691  0.33629057  1
  H+  H49  1  0.11489289  0.73126560  0.82921648  1
  H+  H50  1  0.28700043  0.12912435  0.21751610  1
  H+  H51  1  0.65753015  0.90417032  0.14497255  1
  H+  H52  1  0.77113784  0.12884015  0.48559804  1
  H+  H53  1  0.88283440  0.26831835  0.49894294  1
  H+  H54  1  0.11074573  0.52339132  0.87015369  1
  H+  H55  1  0.59426377  0.92417850  0.76553620  1
  H+  H56  1  0.46730546  0.34972829  0.50620113  1
  H+  H57  1  0.88013404  0.27604841  0.17806873  1
  H+  H58  1  0.22050835  0.60587529  0.17121011  1
  H+  H59  1  0.48946046  0.84160293  0.84644334  1
  H+  H60  1  0.86817471  0.38675064  0.48344126  1
  H+  H61  1  0.13617450  0.86213289  0.32599617  1
  H+  H62  1  -0.01317745  0.61736107  0.48719340  1
  H+  H63  1  0.86417468  0.48040245  -0.00758212  1
  H+  H64  1  0.46994085  0.60029274  0.50786947  1
  H+  H65  1  0.14536522  0.35745170  0.66037653  1
  H+  H66  1  0.62053197  0.13445098  0.46434839  1
  H+  H67  1  0.11410298  0.63700717  0.47145379  1
  H+  H68  1  0.88340060  0.97227286  0.14729332  1
  H+  H69  1  0.34803511  0.63591131  0.34693473  1
  H+  H70  1  0.44940002  0.85635062  0.19127069  1
  H+  H71  1  0.11440249  0.13650563  1.00735717  1
  H+  H72  1  0.62386299  0.35841623  0.84083236  1
  H+  H73  1  0.23279413  0.12382088  0.48874891  1
  H+  H74  1  0.39034425  0.77684994  0.50729264  1
  H+  H75  1  0.74212064  0.11791701  0.01021325  1
  H+  H76  1  0.13716850  0.36383647  0.17320220  1
  H+  H77  1  0.57451063  0.64521194  0.43909156  1
  H+  H78  1  0.83734109  0.17080049  0.72383194  1
  H+  H79  1  0.11611250  0.73069895  0.32625774  1
  H+  H80  1  0.63134532  0.69700438  0.35346856  1
  H+  H81  1  0.88562109  0.10222949  0.15330122  1
  H+  H82  1  0.63112533  0.86179038  0.83586849  1
  H+  H83  1  0.48778936  0.10912684  0.17866546  1
  H+  H84  1  0.87324012  0.77241972  0.67838175  1
  H+  H85  1  0.02039643  0.87568139  0.68356361  1
  H+  H86  1  0.88543981  0.49076348  0.33301505  1
  H+  H87  1  0.36610802  0.60301320  0.84320269  1
  H+  H88  1  0.13774337  0.27560629  0.17275732  1
  H+  H89  1  0.50678819  0.13504951  0.98593843  1
  H+  H90  1  0.37169001  0.21886425  0.19820936  1
  H+  H91  1  0.37790304  0.34889856  0.50417479  1
  H+  H92  1  0.63539803  0.65317546  0.13506139  1
  H+  H93  1  0.89023785  0.53573781  0.83239925  1
  H+  H94  1  0.13579160  0.27175167  -0.00487173  1
  H+  H95  1  0.24890231  0.63216153  0.84727900  1
  H+  H96  1  0.43793821  0.35873649  0.89334883  1
  H+  H97  1  0.40712584  0.04329427  0.68179710  1
  H+  H98  1  0.34800015  0.84432312  1.02120069  1
  H+  H99  1  0.29350703  0.65408272  0.78288231  1
  H+  H100  1  0.13551181  0.77277554  0.49955082  1
  H+  H101  1  0.88883968  0.02181616  0.99487508  1
  H+  H102  1  0.36196198  0.47543627  0.67236853  1
  H+  H103  1  0.94458941  0.62026052  0.99011282  1
  H+  H104  1  0.34783370  0.14273146  0.82363836  1
  H+  H105  1  0.35440453  0.22395584  0.33756540  1
  H+  H106  1  0.21392432  0.83845988  0.88657303  1
  H+  H107  1  0.03103769  0.38576877  0.66210832  1
  H+  H108  1  0.88044719  0.02476553  0.51303228  1
  H+  H109  1  0.62925793  0.79428760  0.29605101  1
  H+  H110  1  0.63094689  0.73686679  0.14645090  1
  H+  H111  1  0.14454523  0.53298430  0.32530377  1
  H+  H112  1  -0.01722767  0.61651790  0.31804903  1
  H+  H113  1  0.10414920  0.12573899  0.31538378  1
  H+  H114  1  0.47618450  0.11193575  0.48316324  1
  H+  H115  1  0.39052406  0.51419864  0.16750287  1
  H+  H116  1  0.32555083  0.90863729  0.40397109  1
  H+  H117  1  0.22613947  0.35830163  0.33361223  1
  H+  H118  1  0.64202997  0.77148455  0.98219530  1
  H+  H119  1  0.63938779  0.86187671  -0.01510721  1
  H+  H120  1  0.36858904  0.63295650  0.00688821  1
  H+  H121  1  0.75759915  0.61861157  0.15855796  1
  H+  H122  1  0.60012172  0.71383820  0.49305146  1
  H+  H123  1  0.15396483  0.60345720  0.70704158  1
  H+  H124  1  0.38520195  0.68295568  0.72743110  1
  H+  H125  1  0.89261463  0.36058046  0.64838714  1
  H+  H126  1  0.13573070  0.52148451  1.00737704  1
  H+  H127  1  0.12494757  0.90421598  0.04205639  1
  H+  H128  1  0.62129173  0.47448103  0.82260907  1
  H+  H129  1  0.85668924  0.64429561  0.83515434  1
  H+  H130  1  0.48000373  0.12985926  0.65498003  1
  H+  H131  1  -0.01305254  0.36902764  0.32230936  1
  H+  H132  1  0.10850517  0.47245836  0.16211206  1
  H+  H133  1  0.62547723  0.23283775  1.02069488  1
  H+  H134  1  0.37355809  0.75564526  0.33751475  1
  H+  H135  1  1.01995689  0.38322380  0.16330223  1
  H+  H136  1  0.87856556  0.76360126  0.49365486  1
  H+  H137  1  0.12413671  0.39350324  0.33147264  1
  H+  H138  1  0.10152168  0.96116303  0.32901587  1
  H+  H139  1  0.87279143  0.47118765  0.65533736  1
  H+  H140  1  0.87818168  0.86019846  0.84953399  1
  H+  H141  1  0.88739291  0.36941906  0.17967046  1
  H+  H142  1  0.47838728  0.60518516  0.15694333  1
  H+  H143  1  0.22523758  0.88287476  0.82236117  1
  H+  H144  1  0.35277972  0.44833482  0.34779637  1
  H+  H145  1  0.96558275  0.85749335  0.84924267  1
  H+  H146  1  0.71668330  0.59501971  0.84824227  1
  H+  H147  1  0.12388532  0.37885290  0.49614755  1
  H+  H148  1  0.15261737  0.58704459  0.92567585  1
  H+  H149  1  0.37365007  0.15590705  0.96860862  1
  H+  H150  1  0.49221512  0.38242483  0.82464923  1
  H+  H151  1  0.22508757  0.61138828  1.00594014  1
  H+  H152  1  0.63773409  0.02553685  0.49671964  1
  H+  H153  1  0.60373866  0.36913554  0.35052169  1
  H+  H154  1  0.50987213  0.88368556  0.33954599  1
  H+  H155  1  0.64702044  0.50644601  0.01654161  1
  H+  H156  1  0.72309056  0.85781820  0.83813683  1
  H+  H157  1  0.23250290  0.62535597  0.33001157  1
  H+  H158  1  -0.02523447  0.62537175  0.84204529  1
  H+  H159  1  0.89315087  0.36660205  0.83181960  1
  H+  H160  1  0.24152594  0.39010893  0.50901541  1
  H+  H161  1  0.41712160  0.82630358  0.60702314  1
  H+  H162  1  0.22690134  0.86489223  0.32633956  1
  H+  H163  1  0.77833751  0.14072156  0.82327801  1
  H+  H164  1  -0.02769729  0.61885752  0.16353634  1
  H+  H165  1  0.88813549  0.85036246  0.30131336  1
  H+  H166  1  0.24705704  0.60981952  0.70449998  1
  H+  H167  1  0.38551553  0.60736543  0.50109838  1
  H+  H168  1  0.62668161  0.60437904  0.65634337  1
  H+  H169  1  0.12821875  0.10826588  0.84116618  1
  H+  H170  1  0.60149134  0.14877042  0.79260709  1
  H+  H171  1  0.85075312  0.16052844  0.19844501  1
  H+  H172  1  0.72494496  0.87299266  0.30549878  1
  H+  H173  1  0.63750481  0.25971416  0.19065340  1
  H+  H174  1  0.88886905  0.11070567  1.00565319  1
  H+  H175  1  0.87182440  0.10093537  0.84196384  1
  H+  H176  1  0.47482661  0.35205668  0.18598023  1
  H+  H177  1  0.33117715  0.42336969  0.06820763  1
  H+  H178  1  0.97640203  0.34900075  0.49641869  1
  H+  H179  1  0.67347912  0.58310643  0.56735485  1
  H+  H180  1  0.37818196  0.85185720  0.33474394  1
  H+  H181  1  0.36019797  0.97110682  0.34712904  1
  H+  H182  1  0.27315673  0.88752230  0.49787444  1
  H+  H183  1  0.77997361  0.38733336  0.65450098  1
  H+  H184  1  0.64885794  0.03568232  0.18223636  1
  H+  H185  1  0.87499656  0.90312159  0.68096861  1
  H+  H186  1  0.28198838  0.15144681  -0.02588997  1
  H+  H187  1  0.62545712  0.47606046  0.66438366  1
  H+  H188  1  0.88646885  0.12460599  0.65233684  1
  H+  H189  1  0.35528628  0.13442962  0.34117768  1
  H+  H190  1  0.22987396  0.11711380  0.30142539  1
  H+  H191  1  0.61964736  0.46124500  0.17524555  1
  H+  H192  1  0.58817561  0.65052170  0.75420643  1
  H+  H193  1  0.53308139  0.88705649  1.00555541  1
  H+  H194  1  0.60408129  0.89585195  0.33388866  1
  H+  H195  1  0.63726570  0.58454954  0.33653415  1
  H+  H196  1  0.53431877  0.63084447  0.33363429  1
  H+  H197  1  0.13576965  0.86147279  0.50592670  1
  H+  H198  1  0.38553559  0.86352211  0.51055958  1
  H+  H199  1  0.40634634  0.37374368  0.66009158  1
  H+  H200  1  0.70205506  0.34651575  0.86686913  1
  H+  H201  1  0.85870760  0.47369428  0.16462813  1
  H+  H202  1  0.23641183  0.36064419  0.66166222  1
  H+  H203  1  0.58874853  0.69065183  0.81844778  1
  H+  H204  1  0.13637249  1.02982283  0.49242770  1
  H+  H205  1  0.21215156  0.83753261  0.02356480  1
  H+  H206  1  0.02334976  0.38328106  0.00786889  1
  H+  H207  1  0.85250965  0.88396585  0.51084469  1
  H+  H208  1  0.37087545  0.85839678  0.79309353  1
  H+  H209  1  0.47562129  0.10822891  0.35166382  1
  H+  H210  1  0.13278310  0.47972338  0.79233256  1
  H+  H211  1  0.39132891  0.11273951  0.19730697  1
  H+  H212  1  0.64538001  0.37810259  0.63864924  1
  H+  H213  1  0.62277322  0.24131093  0.64238424  1
  H+  H214  1  -0.01204303  0.86028206  0.02224438  1
  H+  H215  1  0.31519521  -0.00066835  1.03431270  1
  H+  H216  1  0.92497243  0.98317301  0.72200790  1
  H+  H217  1  0.48458290  0.61179780  0.98528398  1
  H+  H218  1  0.38584386  0.76389906  0.66771257  1
  H+  H219  1  0.12114236  0.46887773  0.68550407  1
  H+  H220  1  0.60818155  0.57079590  0.20141862  1
  H+  H221  1  0.51708169  0.89223292  0.49499716  1
  H+  H222  1  0.21357995  0.84209270  0.65783756  1
  H+  H223  1  0.78608434  0.40985097  0.80077718  1
  H+  H224  1  0.61835368  0.13207046  0.36844467  1
  H+  H225  1  0.86069665  -0.02217937  0.30918210  1
  H+  H226  1  0.01859694  0.87286579  0.33998086  1
  H+  H227  1  0.90291834  0.84061057  -0.00799912  1
  H+  H228  1  0.36162070  0.37899225  0.16661325  1
  H+  H229  1  0.90173771  0.89473619  0.14715602  1
  H+  H230  1  0.86731352  0.22973683  0.33767147  1
  H+  H231  1  0.38577400  0.89142490  0.81789164  1
  H+  H232  1  0.15433621  0.55560986  0.52994695  1
  H+  H233  1  0.63342903  0.02799436  0.33359709  1
  H+  H234  1  0.53638413  0.38689869  0.66215370  1
  H+  H235  1  0.88086428  0.11119670  0.31314615  1
  H+  H236  1  0.33615892  0.00635119  0.80061696  1
  H+  H237  1  0.98054241  0.36569029  0.83352336  1
  H+  H238  1  0.60583149  0.23565071  0.81358157  1
  H+  H239  1  0.35503165  0.13159028  0.68105816  1
  H+  H240  1  0.64013012  0.10091601  0.86607874  1
  H+  H241  1  1.03019099  0.89455539  0.49143009  1
  H+  H242  1  0.13320842  0.35940144  0.99499319  1
  H+  H243  1  0.75824811  0.86322010  0.15697664  1
  H+  H244  1  0.13615598  0.87913227  0.17726118  1
  H+  H245  1  0.59613571  0.70953988  0.66506586  1
  H+  H246  1  0.10609655  0.88154327  0.83992022  1
  H+  H247  1  0.62913473  0.58904607  0.83406380  1
  H+  H248  1  0.84827016  0.64281904  0.70359718  1
  H+  H249  1  0.87305989  0.47822562  0.48225445  1
  H+  H250  1  0.02321205  0.13425384  0.00861375  1
  H+  H251  1  0.78144132  0.88439461  -0.00466374  1
  H+  H252  1  0.44039600  0.59854380  0.25127436  1
  H+  H253  1  0.64304574  0.64918006  0.00098943  1
  H+  H254  1  0.77519247  0.62264402  0.34039418  1
  H+  H255  1  0.63098987  0.26592536  0.35098680  1
  H+  H256  1  1.03366623  0.14512462  0.47780358  1
  H+  H257  1  1.01102008  0.11221793  0.32484110  1
  H+  H258  1  0.13047555  0.50819985  0.46824108  1
  H+  H259  1  0.39715717  0.75564536  0.85261459  1
  H+  H260  1  0.61354346  0.85557083  0.50042608  1
  H+  H261  1  0.85319410  0.73239835  0.84259250  1
  H+  H262  1  0.73021929  0.11913517  0.64821281  1
  H+  H263  1  0.73397122  0.37561794  0.53917812  1
  H+  H264  1  0.11796607  0.64132184  0.32836168  1
  H+  H265  1  0.38815793  0.11091442  0.49194853  1
  H+  H266  1  0.62503488  -0.02414736  0.82998737  1
  H+  H267  1  0.63068703  0.14575429  0.01643224  1
  H+  H268  1  0.83973848  0.96716952  0.83915215  1
  H+  H269  1  0.36525229  0.48424787  0.82731467  1
  H+  H270  1  0.52215669  0.89073984  0.67642667  1
  H+  H271  1  0.61190889  0.97877445  0.66846789  1
  H+  H272  1  0.10940698  0.72906475  0.15865647  1
  H+  H273  1  0.50796253  0.61917187  0.66574798  1
  H+  H274  1  0.12523006  0.22561451  0.66699158  1
  H+  H275  1  0.17184801  0.33402273  0.90116984  1
  H+  H276  1  0.63757973  0.36894350  1.00994758  1
  H+  H277  1  0.11120028  0.13585615  0.15895288  1
  H+  H278  1  0.47005341  0.13028949  0.81659532  1
  H+  H279  1  0.64074486  0.61008424  0.50842326  1
  H+  H280  1  0.88712012  0.76240739  0.31510721  1
  H+  H281  1  0.60884457  0.38556400  0.50888320  1
  H+  H282  1  0.90906820  0.83954914  0.44894186  1
  H+  H283  1  0.10553529  -0.01017404  0.22201911  1
  H+  H284  1  0.35944315  0.87187755  0.66437821  1
  H+  H285  1  0.40113502  0.28832727  -0.03599937  1
  H+  H286  1  0.10252590  0.63854668  0.84102814  1
  H+  H287  1  0.12445366  0.22704449  0.82555557  1
  H+  H288  1  0.43194321  0.82346574  0.94477864  1
  H+  H289  1  0.15796281  0.07867625  0.93688122  1
  H+  H290  1  0.43272940  0.08384689  0.28623590  1
  H+  H291  1  0.41064339  0.58074949  0.89668435  1
  H+  H292  1  0.30582189  0.13219685  0.10300287  1
  H+  H293  1  0.12376832  0.01579899  0.84491479  1
  H+  H294  1  0.08376957  0.71642726  0.01096826  1
  H+  H295  1  0.60603567  0.92288489  0.05731156  1
  H+  H296  1  0.59337496  0.19302230  0.70573324  1
  H+  H297  1  0.65919029  0.31666013  0.28810136  1
  H+  H298  1  0.60390713  0.40804290  0.11492802  1
  H+  H299  1  0.86984670  0.22611397  0.02361145  1
  H+  H300  1  0.83861728  0.17151483  0.08613539  1
  H+  H301  1  0.59673332  0.67642869  0.05060548  1
  H+  H302  1  0.09573146  0.16932231  0.76593931  1
  H+  H303  1  0.15283017  0.84254404  0.97154186  1
  H+  H304  1  0.33857715  0.41805527  0.73260229  1
  H+  H305  1  0.63808915  0.34769771  0.19284055  1
  H+  H306  1  0.97908480  0.11167650  0.16091047  1
  H+  H307  1  0.64504270  0.32677720  0.94941036  1
  H+  H308  1  0.81668872  0.67655585  0.75760442  1
  H+  H309  1  0.77602980  0.14172270  0.33973695  1
  H+  H310  1  0.07837357  0.90431031  0.77742136  1
  H+  H311  1  0.89053820  0.61062516  0.32445924  1
  H+  H312  1  0.97857723  0.85875809  0.22160124  1
  H+  H313  1  0.87065099  0.23146243  0.66388231  1
  H+  H314  1  0.33779291  0.65955991  0.06803218  1
  H+  H315  1  0.66583936  0.56008560  0.25071527  1
  H+  H316  1  0.57644658  0.40526691  0.40800533  1
  H+  H317  1  0.57208564  0.91853403  0.43261838  1
  H+  H318  1  0.59670972  0.41242537  0.76041049  1
  H+  H319  1  0.58246391  0.15892976  0.11068344  1
  H+  H320  1  0.41451732  0.05474102  0.97850590  1
  H+  H321  1  0.91233603  0.09276811  0.57410509  1
  H+  H322  1  0.88820181  0.59025890  0.93113423  1
  H+  H323  1  0.84813661  0.42438361  0.74787336  1
  H+  H324  1  0.55367459  0.44507473  0.04753278  1
  H+  H325  1  0.07990877  0.39644949  0.75913849  1
  H+  H326  1  0.13353160  0.12350034  0.48287705  1
  H+  H327  1  0.08750393  0.41672710  0.38959062  1
  H+  H328  1  0.39426564  0.81722180  0.25085087  1
  H+  H329  1  0.89101456  0.03564929  0.65265099  1
  H+  H330  1  0.42538165  0.33503962  0.60123593  1
  H+  H331  1  0.89608490  0.07253770  0.90519949  1
  H+  H332  1  0.39967481  0.76749652  1.00415152  1
  H+  H333  1  0.90595718  0.82211145  0.61558837  1
  H+  H334  1  0.20410827  0.60316732  0.60146872  1
  H+  H335  1  0.61019367  0.47314486  0.50069160  1
  H+  H336  1  0.67174601  0.09175830  0.55206853  1
  H+  H337  1  0.08734096  0.67524836  0.41612126  1
  H+  H338  1  0.15107799  0.81454749  0.60136625  1
  H+  H339  1  0.65155324  0.02978283  1.00043498  1
  H+  H340  1  0.07232422  0.65724645  0.73926971  1
  H+  H341  1  0.40187383  0.57448571  0.59823600  1
  H+  H342  1  0.22242361  0.57356306  0.59831398  1
  H+  H343  1  0.08104498  0.15480600  0.41428115  1
  H+  H344  1  0.10616758  0.87027709  0.67920844  1
  H+  H345  1  0.93642401  0.58101776  0.54976164  1
  H+  H346  1  0.77520992  0.62992037  0.49486900  1
  H+  H347  1  0.91914156  0.32224414  0.93550330  1
  H+  H348  1  0.83790048  0.66331958  0.39677401  1
  H+  H349  1  0.30726162  0.94213545  0.74346145  1
  H+  H350  1  0.86752152  0.63343201  0.49117322  1
  H+  H351  1  0.79056612  0.64072153  0.06923572  1
  H+  H352  1  0.33888308  0.93857371  0.63133246  1
  H+  H353  1  0.63188469  0.81159588  0.59809656  1
  H+  H354  1  0.68957890  0.08260961  0.91525741  1
  H+  H355  1  0.31069795  0.15445341  0.74466714  1
  H+  H356  1  0.85040954  0.42385371  0.39618608  1
  H+  H357  1  0.34024000  0.67649364  0.42922789  1
  H+  H358  1  0.08616787  0.92011629  0.43091626  1
  H+  H359  1  0.69144483  0.84752421  0.21163868  1
  H+  H360  1  0.35075423  0.88452525  0.18009240  1
  H+  H361  1  0.07993954  0.41048803  0.06897429  1
  H+  H362  1  0.16626592  0.58389718  0.23204513  1
  H+  H363  1  0.18677711  0.36547423  0.57144126  1
  H+  H364  1  0.80738797  0.91148271  0.46337098  1
  H+  H365  1  0.90942289  0.08308804  0.25035578  1
  H+  H366  1  0.27001062  0.89900931  0.16909159  1
  H+  H367  1  0.09576226  0.94806729  0.09252061  1
  H+  H368  1  0.16744606  0.84222601  0.23038707  1
  H+  H369  1  0.38760333  0.01414492  0.18229401  1
  H+  H370  1  0.83708420  0.16036937  0.42765136  1
  H+  H371  1  0.32601886  0.39472102  0.42836864  1
  H+  H372  1  0.43001234  0.10344455  0.88275864  1
  H+  H373  1  0.32308125  0.87770374  0.08111784  1
  H+  H374  1  0.31266701  0.14019613  0.06939167  1
  H+  H375  1  0.81860413  0.91183233  0.77690934  1
  H+  H376  1  0.41445828  0.33044906  0.24578559  1
  H+  H377  1  0.32198934  0.16454489  0.42612474  1
  H+  H378  1  0.92115168  0.33771437  0.26469635  1
  H+  H379  1  0.66577282  0.09312714  0.27763636  1
  H+  H380  1  0.91217531  0.58969755  0.22168173  1
  H+  H381  1  0.84138139  0.91281092  0.36270928  1
  H+  H382  1  0.92287633  0.33116820  0.58941739  1
  H+  H383  1  0.84464145  0.90700308  0.05191897  1
  O2-  O384  1  0.08179139  0.16499173  0.14328306  1
  O2-  O385  1  0.09042865  0.16777253  0.45949523  1
  O2-  O386  1  0.09368915  0.16696306  0.81078066  1
  O2-  O387  1  0.08021649  0.41174268  0.14719399  1
  O2-  O388  1  0.07146450  0.36940328  0.46653672  1
  O2-  O389  1  0.09266173  0.41906923  0.80207337  1
  O2-  O390  1  0.07590478  0.66812185  0.14714106  1
  O2-  O391  1  0.08757043  0.67259681  0.46211974  1
  O2-  O392  1  0.07796386  0.66950762  0.81829959  1
  O2-  O393  1  0.08256351  0.94003956  0.17460797  1
  O2-  O394  1  0.09004665  0.92544959  0.47681687  1
  O2-  O395  1  0.07384387  0.90743008  0.82246572  1
  O2-  O396  1  0.34505820  0.15436011  0.19947427  1
  O2-  O397  1  0.32020530  0.16071298  0.47188966  1
  O2-  O398  1  0.30944363  0.16149276  0.80538127  1
  O2-  O399  1  0.33562261  0.41273623  0.15088431  1
  O2-  O400  1  0.32915323  0.39915003  0.47647794  1
  O2-  O401  1  0.34152373  0.42244156  0.81187316  1
  O2-  O402  1  0.33018020  0.65788733  0.14706825  1
  O2-  O403  1  0.34337583  0.67397697  0.47637276  1
  O2-  O404  1  0.30567668  0.65742103  0.82664007  1
  O2-  O405  1  0.33419842  0.92474992  0.16117985  1
  O2-  O406  1  0.33234453  0.91342013  0.48131391  1
  O2-  O407  1  0.28643796  0.95848151  0.77959289  1
  O2-  O408  1  0.57615288  0.15367792  0.15594901  1
  O2-  O409  1  0.58880243  0.16413016  0.45053283  1
  O2-  O410  1  0.57696063  0.18536094  0.78490841  1
  O2-  O411  1  0.59116459  0.40150341  0.15886934  1
  O2-  O412  1  0.57897429  0.41163916  0.48789022  1
  O2-  O413  1  0.59044169  0.41045902  0.80532190  1
  O2-  O414  1  0.59575735  0.67524990  0.13300628  1
  O2-  O415  1  0.57794415  0.65186812  0.48390221  1
  O2-  O416  1  0.60880375  0.65673917  0.79699986  1
  O2-  O417  1  0.62187865  0.93170775  0.13585991  1
  O2-  O418  1  0.57732622  0.92064752  0.47786218  1
  O2-  O419  1  0.59605440  0.91815215  0.81103648  1
  O2-  O420  1  0.82303530  0.16963357  0.16352261  1
  O2-  O421  1  0.83443627  0.15725683  0.47357815  1
  O2-  O422  1  0.83521704  0.16892950  0.80319203  1
  O2-  O423  1  0.83280573  0.41085406  0.15930638  1
  O2-  O424  1  0.83916343  0.41765015  0.46745612  1
  O2-  O425  1  0.84630025  0.42856082  0.79353303  1
  O2-  O426  1  0.80844571  0.64584198  0.13207005  1
  O2-  O427  1  0.83556861  0.66318979  0.47833886  1
  O2-  O428  1  0.82121508  0.67110577  0.82520055  1
  O2-  O429  1  0.85894070  0.91120877  0.13466335  1
  O2-  O430  1  0.82240398  0.91799525  0.50640626  1
  O2-  O431  1  0.81166830  0.90506460  0.82138483  1
  O2-  O432  1  0.11931574  0.02393807  0.26856455  1
  O2-  O433  1  0.16620575  0.09334549  0.50145530  1
  O2-  O434  1  0.15629729  0.07629026  0.85922837  1
  O2-  O435  1  0.16987218  0.33552400  0.18759606  1
  O2-  O436  1  0.19483898  0.39451065  0.53126577  1
  O2-  O437  1  0.17771997  0.33570344  0.85567253  1
  O2-  O438  1  0.16071540  0.57859498  0.18678143  1
  O2-  O439  1  0.15455312  0.56543009  0.48623855  1
  O2-  O440  1  0.14552754  0.58449269  0.87900080  1
  O2-  O441  1  0.16887397  0.84850626  0.18513434  1
  O2-  O442  1  0.16225716  0.82853304  0.52202712  1
  O2-  O443  1  0.18096152  0.83746275  0.85118709  1
  O2-  O444  1  0.42597332  0.07727751  0.19903012  1
  O2-  O445  1  0.41931814  0.08057148  0.50267179  1
  O2-  O446  1  0.41507276  0.10060707  0.83899785  1
  O2-  O447  1  0.41446308  0.32499214  0.19951396  1
  O2-  O448  1  0.40640135  0.31615577  0.51953901  1
  O2-  O449  1  0.43358427  0.35935192  0.84388843  1
  O2-  O450  1  0.42275797  0.57774170  0.17834528  1
  O2-  O451  1  0.40802181  0.57132630  0.51864987  1
  O2-  O452  1  0.40244813  0.57740249  0.85177128  1
  O2-  O453  1  0.39020439  0.81888384  0.20354545  1
  O2-  O454  1  0.41893852  0.83610452  0.52516025  1
  O2-  O455  1  0.44566697  0.80218913  0.87516124  1
  O2-  O456  1  0.67061935  0.09386131  0.19861973  1
  O2-  O457  1  0.67284669  0.08847635  0.50654244  1
  O2-  O458  1  0.67976495  0.07913119  0.86953955  1
  O2-  O459  1  0.66748581  0.31756967  0.20937981  1
  O2-  O460  1  0.67423977  0.35161840  0.55369964  1
  O2-  O461  1  0.63984445  0.31737413  0.86277232  1
  O2-  O462  1  0.65759774  0.56254360  0.20471019  1
  O2-  O463  1  0.67389149  0.58185910  0.52170237  1
  O2-  O464  1  0.65393503  0.55536616  0.85291436  1
  O2-  O465  1  0.69560141  0.84033079  0.16722120  1
  O2-  O466  1  0.63665760  0.81838009  0.51621052  1
  O2-  O467  1  0.65813795  0.82745151  0.85317882  1
  O2-  O468  1  0.91643518  0.07602296  0.17281104  1
  O2-  O469  1  0.91086885  0.08815069  0.52220532  1
  O2-  O470  1  0.88122194  0.05705232  0.86166865  1
  O2-  O471  1  0.91783243  0.33687566  0.19315754  1
  O2-  O472  1  0.91671050  0.32924861  0.51188659  1
  O2-  O473  1  0.92018167  0.33422450  0.84756795  1
  O2-  O474  1  0.90996220  0.58856918  0.17683468  1
  O2-  O475  1  0.92744808  0.58422800  0.50553768  1
  O2-  O476  1  0.91192551  0.59220084  0.85194936  1
  O2-  O477  1  0.98837668  0.88088951  0.17947190  1
  O2-  O478  1  0.90617388  0.82912765  0.49271552  1
  O2-  O479  1  0.90509632  0.82705769  0.86333317  1
  O2-  O480  1  0.19493213  0.11050369  0.26393263  1
  O2-  O481  1  0.16524358  0.06890175  0.65031454  1
  O2-  O482  1  0.16897019  0.09071086  0.98146373  1
  O2-  O483  1  0.16764697  0.34169376  0.31618902  1
  O2-  O484  1  0.17641955  0.32859189  0.64432639  1
  O2-  O485  1  0.16484655  0.33126254  0.97844397  1
  O2-  O486  1  0.17249413  0.59357294  0.31075948  1
  O2-  O487  1  0.18380653  0.57183328  0.71762739  1
  O2-  O488  1  0.16297270  0.58327596  0.99507638  1
  O2-  O489  1  0.16802429  0.83545750  0.30774543  1
  O2-  O490  1  0.15144503  0.81212071  0.64680975  1
  O2-  O491  1  0.15364198  0.83086185  1.01459054  1
  O2-  O492  1  0.41968184  0.08140863  0.32984093  1
  O2-  O493  1  0.41648823  0.09355634  0.65883677  1
  O2-  O494  1  0.45241037  0.11141331  0.96138009  1
  O2-  O495  1  0.40433807  0.32279547  0.31848770  1
  O2-  O496  1  0.44101275  0.34885870  0.64463164  1
  O2-  O497  1  0.43782856  0.35225822  0.95491394  1
  O2-  O498  1  0.45211602  0.61977684  0.29472645  1
  O2-  O499  1  0.40414972  0.57579731  0.64356114  1
  O2-  O500  1  0.42300166  0.58635313  0.97556871  1
  O2-  O501  1  0.40837053  0.82198570  0.31899800  1
  O2-  O502  1  0.41498845  0.82792387  0.65220133  1
  O2-  O503  1  0.42918294  0.82899071  0.99030820  1
  O2-  O504  1  0.66752778  0.09040972  0.32332098  1
  O2-  O505  1  0.67105669  0.08882356  0.63124631  1
  O2-  O506  1  0.68443134  0.09202545  0.98927800  1
  O2-  O507  1  0.65560219  0.32333653  0.33270937  1
  O2-  O508  1  0.68032973  0.34921476  0.62063268  1
  O2-  O509  1  0.66024630  0.33322664  0.99287586  1
  O2-  O510  1  0.67037488  0.55754621  0.32163540  1
  O2-  O511  1  0.66597481  0.58138501  0.64446651  1
  O2-  O512  1  0.69571707  0.59485225  0.99914943  1
  O2-  O513  1  0.66643318  0.85534103  0.28841616  1
  O2-  O514  1  0.64248352  0.81223239  0.64224062  1
  O2-  O515  1  0.66909750  0.83255555  0.96617442  1
  O2-  O516  1  0.90563688  0.07702307  0.29564113  1
  O2-  O517  1  0.91587756  0.09374415  0.63287868  1
  O2-  O518  1  0.91848547  0.08454732  0.98370956  1
  O2-  O519  1  0.92395483  0.33957136  0.31149128  1
  O2-  O520  1  0.92498507  0.33166908  0.63501446  1
  O2-  O521  1  0.91930615  0.32634500  0.98020585  1
  O2-  O522  1  0.91998278  0.58064406  0.30712450  1
  O2-  O523  1  0.93483578  0.57303648  0.62985001  1
  O2-  O524  1  0.88269227  0.58988180  0.97610642  1
  O2-  O525  1  0.92309366  0.82225532  0.29966137  1
  O2-  O526  1  0.90728895  0.83120349  0.65930400  1
  O2-  O527  1  0.93133710  0.81232369  1.01097015  1
  O2-  O528  1  0.08357052  0.16580635  0.02455919  1
  O2-  O529  1  0.06348251  0.12236326  0.34626510  1
  O2-  O530  1  0.09059005  0.16460700  0.68193814  1
  O2-  O531  1  0.08373699  0.41386654  0.02348075  1
  O2-  O532  1  0.09036000  0.42383061  0.34502261  1
  O2-  O533  1  0.08721092  0.40482222  0.68247992  1
  O2-  O534  1  0.04815777  0.65675704  -0.00353478  1
  O2-  O535  1  0.08418872  0.66991626  0.34146433  1
  O2-  O536  1  0.07647791  0.65057210  0.69445758  1
  O2-  O537  1  0.10236127  0.94418064  0.04794449  1
  O2-  O538  1  0.07817245  0.90896112  0.35608429  1
  O2-  O539  1  0.08041995  0.90283656  0.69796741  1
  O2-  O540  1  0.34348429  0.18803974  -0.03731156  1
  O2-  O541  1  0.31935211  0.16061047  0.35010939  1
  O2-  O542  1  0.31490786  0.15245675  0.69460754  1
  O2-  O543  1  0.33158230  0.43342489  0.02411940  1
  O2-  O544  1  0.32290000  0.38888993  0.36137268  1
  O2-  O545  1  0.33746409  0.41484288  0.68731699  1
  O2-  O546  1  0.33722502  0.66198317  0.02281168  1
  O2-  O547  1  0.32711929  0.67391126  0.35977156  1
  O2-  O548  1  0.34711633  0.67297874  0.69306822  1
  O2-  O549  1  0.29965272  0.84289681  0.04421047  1
  O2-  O550  1  0.32630946  0.90926982  0.35828346  1
  O2-  O551  1  0.32514166  0.90365244  0.66803988  1
  O2-  O552  1  0.59503605  0.17034481  0.03149270  1
  O2-  O553  1  0.58146978  0.15598085  0.38372168  1
  O2-  O554  1  0.59303782  0.18310933  0.66139321  1
  O2-  O555  1  0.60122324  0.44138875  0.02942294  1
  O2-  O556  1  0.57555748  0.40415190  0.36273454  1
  O2-  O557  1  0.60011287  0.41371259  0.67467842  1
  O2-  O558  1  0.60369349  0.67431095  0.00615303  1
  O2-  O559  1  0.58443124  0.63868020  0.35958665  1
  O2-  O560  1  0.57004837  0.64783359  0.67806038  1
  O2-  O561  1  0.59751355  0.92001764  0.01253667  1
  O2-  O562  1  0.57177961  0.92023029  0.35348700  1
  O2-  O563  1  0.58387758  0.92246076  0.68948219  1
  O2-  O564  1  0.84043629  0.16695379  0.04068152  1
  O2-  O565  1  0.83816222  0.16864795  0.35153161  1
  O2-  O566  1  0.83873592  0.17004830  0.67828660  1
  O2-  O567  1  0.84450269  0.41888278  -0.00181470  1
  O2-  O568  1  0.85978405  0.42860542  0.34975339  1
  O2-  O569  1  0.83874851  0.41198412  0.67246679  1
  O2-  O570  1  0.78519013  0.64369938  0.02028509  1
  O2-  O571  1  0.83697820  0.66152735  0.35151227  1
  O2-  O572  1  0.81939319  0.67567766  0.70994144  1
  O2-  O573  1  0.84237444  0.91624700  0.00772199  1
  O2-  O574  1  0.83067794  0.91360693  0.31944035  1
  O2-  O575  1  0.87140700  0.95229633  0.69915450  1
