# generated using pymatgen
data_H2O
_symmetry_space_group_name_H-M   'P 1'
_cell_length_a   18.00810367
_cell_length_b   18.01147762
_cell_length_c   22.01345365
_cell_angle_alpha   90.00454403
_cell_angle_beta   90.00536513
_cell_angle_gamma   120.00563137
_symmetry_Int_Tables_number   1
_chemical_formula_structural   H2O
_chemical_formula_sum   'H384 O192'
_cell_volume   6183.17426118
_cell_formula_units_Z   192
loop_
 _symmetry_equiv_pos_site_id
 _symmetry_equiv_pos_as_xyz
  1  'x, y, z'
loop_
 _atom_type_symbol
 _atom_type_oxidation_number
  H+  1.0
  O2-  -2.0
loop_
 _atom_site_type_symbol
 _atom_site_label
 _atom_site_symmetry_multiplicity
 _atom_site_fract_x
 _atom_site_fract_y
 _atom_site_fract_z
 _atom_site_occupancy
  H+  H0  1  0.38454562  0.27130617  0.82582895  1
  H+  H1  1  0.38175289  0.51931170  0.50317666  1
  H+  H2  1  0.37593012  0.61516326  0.65601703  1
  H+  H3  1  0.23518536  0.36268029  0.16871885  1
  H+  H4  1  0.87796164  0.09779621  0.67125780  1
  H+  H5  1  0.25302330  0.60436296  0.82087589  1
  H+  H6  1  0.37482299  0.12308948  0.32688765  1
  H+  H7  1  0.26250180  0.90577566  0.34937715  1
  H+  H8  1  0.61612464  0.31814958  0.15809245  1
  H+  H9  1  0.87348775  0.52025907  0.51118612  1
  H+  H10  1  0.12576253  0.89590532  0.81657925  1
  H+  H11  1  0.33736693  0.39391323  0.67400883  1
  H+  H12  1  0.51701665  0.87202203  0.33431693  1
  H+  H13  1  0.42179826  0.12834405  1.00752363  1
  H+  H14  1  0.10722310  0.11962313  0.01052114  1
  H+  H15  1  0.74848923  0.37305050  0.14329625  1
  H+  H16  1  0.13512466  1.01583398  -0.00786458  1
  H+  H17  1  0.89164109  0.04272868  0.17257107  1
  H+  H18  1  0.61499003  0.38815633  -0.01587673  1
  H+  H19  1  0.86743945  0.71959133  0.83337342  1
  H+  H20  1  0.21551593  0.11921413  0.34450938  1
  H+  H21  1  0.85479954  0.22235344  0.48120970  1
  H+  H22  1  -0.00672143  0.85862497  0.83344565  1
  H+  H23  1  0.62727723  0.60758714  0.83920228  1
  H+  H24  1  0.13222636  0.03233583  0.16442821  1
  H+  H25  1  0.36998653  0.46814727  0.82289040  1
  H+  H26  1  -0.01941896  0.12924236  0.16067871  1
  H+  H27  1  0.40564340  0.56409805  0.89305468  1
  H+  H28  1  0.76896195  0.38631574  0.48724338  1
  H+  H29  1  0.88771734  0.77026509  0.66158366  1
  H+  H30  1  0.47706843  0.60491796  0.32892440  1
  H+  H31  1  0.61811567  0.71614369  0.15791416  1
  H+  H32  1  0.33893008  0.15883978  -0.04237314  1
  H+  H33  1  0.61110842  0.19015101  0.07805898  1
  H+  H34  1  0.88854781  0.61514973  0.66954887  1
  H+  H35  1  0.73482386  0.13804903  0.17313157  1
  H+  H36  1  0.66481352  0.39835215  0.66754167  1
  H+  H37  1  0.41394373  0.12512768  0.87897526  1
  H+  H38  1  0.84977505  -0.03338010  0.96793110  1
  H+  H39  1  1.01369825  0.62570172  1.01036315  1
  H+  H40  1  0.55681886  0.92209800  0.01256657  1
  H+  H41  1  0.22296407  0.11750775  0.16159764  1
  H+  H42  1  0.16793215  0.33614704  0.94063006  1
  H+  H43  1  0.86933780  0.21143191  0.68307395  1
  H+  H44  1  0.80092448  0.41039675  1.04369493  1
  H+  H45  1  0.47135383  0.59565434  0.98771458  1
  H+  H46  1  0.91434632  0.59167975  0.23284274  1
  H+  H47  1  0.82606522  0.46870619  0.14422863  1
  H+  H48  1  0.93059079  0.34759172  0.63917460  1
  H+  H49  1  0.50173879  0.87580000  0.86983875  1
  H+  H50  1  0.21746251  0.60119050  -0.00705461  1
  H+  H51  1  0.60572280  0.38868021  0.84300388  1
  H+  H52  1  0.36006791  0.41022109  0.76147043  1
  H+  H53  1  0.36716342  0.89122750  0.49904005  1
  H+  H54  1  0.86975853  0.39586515  0.33035388  1
  H+  H55  1  0.37841126  0.58563571  0.98847542  1
  H+  H56  1  0.77640480  0.64735814  0.34976076  1
  H+  H57  1  0.24006904  0.89825686  0.18522974  1
  H+  H58  1  0.62274512  0.96112467  0.65116757  1
  H+  H59  1  0.90710118  0.85971894  0.84113125  1
  H+  H60  1  0.86284114  0.88123817  0.68288919  1
  H+  H61  1  0.86895511  0.24975683  0.15239667  1
  H+  H62  1  0.85850162  0.40085056  0.71170458  1
  H+  H63  1  0.11035547  0.22177442  0.33309360  1
  H+  H64  1  0.61808459  0.71683293  0.35440383  1
  H+  H65  1  0.63076324  0.61002149  -0.00308611  1
  H+  H66  1  -0.02871749  0.85590803  0.51137488  1
  H+  H67  1  1.01530832  0.13729594  0.33224904  1
  H+  H68  1  1.03372720  0.14602833  0.82342607  1
  H+  H69  1  0.57427923  0.65628860  0.06553344  1
  H+  H70  1  0.14555091  0.36231636  0.16861695  1
  H+  H71  1  0.14636242  0.57086212  0.35188956  1
  H+  H72  1  0.63882678  0.99840602  0.15928921  1
  H+  H73  1  0.48310255  0.37589353  0.33741095  1
  H+  H74  1  0.48094295  0.86407311  0.50776144  1
  H+  H75  1  0.87615087  0.10658651  0.50723906  1
  H+  H76  1  0.90797895  0.36808843  0.89270285  1
  H+  H77  1  0.88892915  0.28640932  -0.01846238  1
  H+  H78  1  1.05409769  0.38546975  0.68602247  1
  H+  H79  1  0.89708820  0.21494433  0.84703045  1
  H+  H80  1  0.52866186  0.36915485  0.14172366  1
  H+  H81  1  0.47389839  0.12044921  0.50988297  1
  H+  H82  1  0.76581808  0.63809696  0.49842640  1
  H+  H83  1  0.90160083  0.57537005  0.57263659  1
  H+  H84  1  0.36864264  0.62192926  0.34563242  1
  H+  H85  1  0.13121545  0.59874459  0.84005799  1
  H+  H86  1  0.50300244  0.12864352  0.34362533  1
  H+  H87  1  0.36218625  0.39976573  0.50396791  1
  H+  H88  1  0.85685087  0.63746165  0.00485286  1
  H+  H89  1  0.85992725  -0.02947889  0.49482195  1
  H+  H90  1  0.38852996  0.02727499  0.51381022  1
  H+  H91  1  0.88975966  0.12473879  0.31707907  1
  H+  H92  1  0.13342902  1.02502086  0.65501063  1
  H+  H93  1  0.24530566  0.62717589  0.33781766  1
  H+  H94  1  0.76088125  0.13358513  0.33212856  1
  H+  H95  1  0.11805678  0.70251077  0.17353277  1
  H+  H96  1  0.33560131  0.41737596  0.09625351  1
  H+  H97  1  0.71336318  0.35888080  0.95692901  1
  H+  H98  1  0.84724766  0.38639765  -0.00951479  1
  H+  H99  1  0.12715386  0.50594389  0.84467572  1
  H+  H100  1  0.86628763  0.27694229  0.82605502  1
  H+  H101  1  0.11966424  0.14145832  0.82131254  1
  H+  H102  1  1.02751349  0.63395058  0.68230690  1
  H+  H103  1  0.14563294  0.52231685  0.66127648  1
  H+  H104  1  0.76975664  0.64103065  0.00539717  1
  H+  H105  1  0.47872052  0.36938635  0.49971870  1
  H+  H106  1  0.12385882  0.23517086  0.15128373  1
  H+  H107  1  0.86774357  0.16015234  0.15353238  1
  H+  H108  1  0.62203358  0.17424015  0.68096940  1
  H+  H109  1  0.14783259  0.87836939  0.65824846  1
  H+  H110  1  0.63199890  0.52427977  0.51037232  1
  H+  H111  1  0.63586252  0.86015592  -0.00880805  1
  H+  H112  1  0.37015814  0.72741956  0.49806747  1
  H+  H113  1  1.01578443  0.15412226  0.49314087  1
  H+  H114  1  0.71842104  0.61074123  0.84434844  1
  H+  H115  1  0.60345091  0.62414993  0.49954474  1
  H+  H116  1  0.88773690  0.52807082  0.67384397  1
  H+  H117  1  0.64815255  0.96558025  0.47072094  1
  H+  H118  1  0.32411119  0.90162934  0.81761174  1
  H+  H119  1  0.85484668  0.88099348  -0.03461308  1
  H+  H120  1  0.25734032  0.37051419  0.35336881  1
  H+  H121  1  0.11820864  0.75266301  0.84268947  1
  H+  H122  1  0.35546641  0.80519459  0.30435543  1
  H+  H123  1  0.33468322  0.69428042  0.81393010  1
  H+  H124  1  0.38785667  0.26467452  0.14731241  1
  H+  H125  1  0.63628786  0.50703490  0.68507668  1
  H+  H126  1  0.26737821  0.14287831  0.66319621  1
  H+  H127  1  -0.03660136  0.54709927  0.15238011  1
  H+  H128  1  0.36065912  0.90541189  0.01327421  1
  H+  H129  1  0.22360877  0.36939044  0.51907844  1
  H+  H130  1  0.39441099  0.82643995  0.84532338  1
  H+  H131  1  0.87116723  0.89908695  0.18385016  1
  H+  H132  1  0.61979761  0.47820620  0.00037892  1
  H+  H133  1  0.89838874  0.62741070  0.33331871  1
  H+  H134  1  0.76534237  0.13709757  0.49035580  1
  H+  H135  1  0.13658155  0.36833793  -0.00314738  1
  H+  H136  1  0.77129251  0.39796843  0.69382832  1
  H+  H137  1  0.64248640  0.85558239  0.16552629  1
  H+  H138  1  0.26721090  0.63911519  0.66495197  1
  H+  H139  1  0.33016814  0.63999085  0.06655067  1
  H+  H140  1  0.91388482  0.82845662  0.60230628  1
  H+  H141  1  0.14325895  0.77712185  0.51184719  1
  H+  H142  1  0.13816056  0.52539306  0.50199852  1
  H+  H143  1  0.36092664  0.45844972  0.00037883  1
  H+  H144  1  0.65314860  0.85759029  0.82819113  1
  H+  H145  1  0.63859110  0.15258302  1.01653886  1
  H+  H146  1  0.91138723  1.02726704  0.84482431  1
  H+  H147  1  0.66952271  0.82118767  0.60179867  1
  H+  H148  1  0.04064553  0.66620699  0.33925675  1
  H+  H149  1  0.88529224  0.61979032  0.17213866  1
  H+  H150  1  0.43187595  0.84048666  0.96687560  1
  H+  H151  1  0.64161607  0.29995067  0.66869518  1
  H+  H152  1  0.61473727  0.48729945  0.34301156  1
  H+  H153  1  0.39247749  0.52005099  0.17211470  1
  H+  H154  1  0.82535397  0.90558499  0.86638188  1
  H+  H155  1  0.47707750  0.36203078  0.83592423  1
  H+  H156  1  0.48604374  0.94207078  0.21665288  1
  H+  H157  1  0.16105891  0.32059693  0.59677006  1
  H+  H158  1  0.03761215  0.38635720  0.16042360  1
  H+  H159  1  0.63730095  0.76421215  0.50497864  1
  H+  H160  1  0.88174702  1.01142079  0.66750684  1
  H+  H161  1  0.02203584  0.88406652  0.00269155  1
  H+  H162  1  0.21017384  0.09698941  0.50303043  1
  H+  H163  1  0.36681232  -0.01885174  0.67104796  1
  H+  H164  1  0.62993483  0.06313620  0.68708307  1
  H+  H165  1  0.12057515  0.14104249  0.15458489  1
  H+  H166  1  0.37051951  0.98424293  0.16031696  1
  H+  H167  1  0.35251600  0.13736721  0.80030535  1
  H+  H168  1  0.42485195  0.82574912  0.25515761  1
  H+  H169  1  0.01560783  0.12275734  0.01158568  1
  H+  H170  1  0.34221286  0.66632140  0.43843101  1
  H+  H171  1  0.98313204  0.86317587  0.32715763  1
  H+  H172  1  0.12962418  0.28152326  0.50886698  1
  H+  H173  1  0.86873589  0.51537719  0.98694660  1
  H+  H174  1  0.59087885  0.21392643  0.33864284  1
  H+  H175  1  0.02347168  0.89404271  0.15673901  1
  H+  H176  1  0.70814989  0.63343335  0.65760846  1
  H+  H177  1  0.91477395  0.54857530  0.33097662  1
  H+  H178  1  0.64145199  0.49798308  0.15690410  1
  H+  H179  1  0.62510427  0.61975928  0.28866306  1
  H+  H180  1  0.35032646  0.38244557  0.36277016  1
  H+  H181  1  0.50149200  0.63291807  0.67071552  1
  H+  H182  1  0.14473395  0.27456056  0.84001057  1
  H+  H183  1  0.12325622  0.98379351  0.82076475  1
  H+  H184  1  0.35118546  0.23162790  0.34840777  1
  H+  H185  1  0.58342717  0.92311853  0.81504436  1
  H+  H186  1  0.90286700  0.33374089  0.54146996  1
  H+  H187  1  0.59877893  0.70955414  0.82230576  1
  H+  H188  1  0.17049934  0.08591358  0.89524229  1
  H+  H189  1  0.48169093  0.12868667  0.17843987  1
  H+  H190  1  0.50086568  0.83316691  0.86595132  1
  H+  H191  1  0.35430137  0.91013707  0.34974597  1
  H+  H192  1  0.11109832  0.38853143  0.49496547  1
  H+  H193  1  0.48223148  0.35930946  0.01473930  1
  H+  H194  1  0.08024449  0.16721040  0.72964910  1
  H+  H195  1  0.37941807  0.62982834  0.15943148  1
  H+  H196  1  0.55113473  0.91157571  0.15475500  1
  H+  H197  1  0.10622266  0.87973862  0.49796106  1
  H+  H198  1  0.59322463  0.42428069  0.43804491  1
  H+  H199  1  0.12427617  0.64978674  0.49442849  1
  H+  H200  1  0.15317383  0.90444113  0.18173524  1
  H+  H201  1  0.61557242  0.62466617  0.15579329  1
  H+  H202  1  0.40503312  0.33086057  0.45320811  1
  H+  H203  1  0.02689101  0.88397808  0.66712480  1
  H+  H204  1  0.65910231  1.04299723  -0.00477985  1
  H+  H205  1  0.89408091  0.12150855  -0.00424904  1
  H+  H206  1  0.63432160  0.84049167  0.34303454  1
  H+  H207  1  0.33295629  0.92626106  0.44448586  1
  H+  H208  1  0.35659809  0.14377901  0.66804013  1
  H+  H209  1  0.63229730  0.28105324  0.86184279  1
  H+  H210  1  0.61894256  0.40015371  0.33355437  1
  H+  H211  1  0.76280785  0.57672623  0.70264747  1
  H+  H212  1  0.37802356  0.71811210  0.15081735  1
  H+  H213  1  0.12491137  0.75566588  0.00704710  1
  H+  H214  1  0.85280269  0.62377294  0.83069322  1
  H+  H215  1  0.41942423  0.09105097  0.60575666  1
  H+  H216  1  0.07849747  0.80043738  0.87816452  1
  H+  H217  1  0.13009325  0.34434350  0.32057479  1
  H+  H218  1  0.10765510  0.44639325  0.33025083  1
  H+  H219  1  0.53699336  0.14598981  0.01772217  1
  H+  H220  1  0.60509681  0.47690594  0.83808012  1
  H+  H221  1  0.23312187  0.36106675  0.84044481  1
  H+  H222  1  0.10875700  0.87867044  1.00738738  1
  H+  H223  1  1.01008398  0.12751228  0.67350691  1
  H+  H224  1  0.36423410  0.89011083  0.66739349  1
  H+  H225  1  0.47478966  0.12501518  0.66685401  1
  H+  H226  1  0.96474203  0.35399393  0.32413818  1
  H+  H227  1  0.61928919  0.87267357  0.49224071  1
  H+  H228  1  0.22887991  0.61140545  0.50784643  1
  H+  H229  1  0.74711028  0.15004631  0.84534832  1
  H+  H230  1  0.61662908  0.03491076  0.52224698  1
  H+  H231  1  0.61323427  0.62085143  0.65890826  1
  H+  H232  1  0.38387719  0.77288932  0.65986436  1
  H+  H233  1  0.57675786  0.64850694  0.43568808  1
  H+  H234  1  0.94183954  0.40985659  0.16131817  1
  H+  H235  1  0.53275564  0.14391743  0.83780979  1
  H+  H236  1  0.13724454  0.71809680  0.20445053  1
  H+  H237  1  0.48562023  0.61419563  0.49875498  1
  H+  H238  1  0.12803914  0.47236930  0.16232047  1
  H+  H239  1  0.11668336  0.38286220  0.83891553  1
  H+  H240  1  0.61853826  0.39345933  0.49899395  1
  H+  H241  1  0.11498329  0.24520525  0.65878966  1
  H+  H242  1  0.60910027  0.15104953  0.49675103  1
  H+  H243  1  0.25271983  0.90994185  0.85015593  1
  H+  H244  1  0.85129041  0.63115555  0.50212079  1
  H+  H245  1  0.97275922  0.37655938  0.98689238  1
  H+  H246  1  0.17679880  0.84408063  0.59610108  1
  H+  H247  1  0.88761614  0.78129374  0.16781558  1
  H+  H248  1  0.85982741  0.86616860  0.33923868  1
  H+  H249  1  0.12343200  0.02187158  0.34724764  1
  H+  H250  1  0.63580704  0.28297429  0.51138886  1
  H+  H251  1  0.51006504  0.61874116  0.82269244  1
  H+  H252  1  0.88974662  0.09965415  0.83433078  1
  H+  H253  1  0.35811132  0.69309400  0.00616289  1
  H+  H254  1  0.11719858  0.90563841  0.34816839  1
  H+  H255  1  0.64707507  0.81352854  0.89196409  1
  H+  H256  1  0.24199840  0.60415970  0.17867888  1
  H+  H257  1  0.63060049  0.17124572  0.17110681  1
  H+  H258  1  0.38567933  0.02901079  0.86116228  1
  H+  H259  1  0.12996505  0.11211128  0.65541190  1
  H+  H260  1  0.22737211  0.11830487  0.83347335  1
  H+  H261  1  0.37090372  0.58944844  0.83275592  1
  H+  H262  1  1.02300771  0.62325295  0.82683491  1
  H+  H263  1  0.67065524  1.05566696  0.83352206  1
  H+  H264  1  0.66233834  0.58490527  0.93645304  1
  H+  H265  1  0.67613995  0.55155659  0.21685549  1
  H+  H266  1  0.11753847  0.11764030  0.34119530  1
  H+  H267  1  0.13421547  0.67609619  0.33707756  1
  H+  H268  1  0.89372832  0.54603245  0.78383177  1
  H+  H269  1  0.10294617  -0.03225711  0.49794974  1
  H+  H270  1  0.83827289  0.93591501  0.23483998  1
  H+  H271  1  0.23032065  0.86991890  0.51292739  1
  H+  H272  1  0.78872158  0.15347813  0.00189608  1
  H+  H273  1  0.35190827  0.21723981  0.50127131  1
  H+  H274  1  0.77769060  0.63844109  0.15282298  1
  H+  H275  1  0.40687814  0.89582002  0.17309935  1
  H+  H276  1  0.10247690  0.62595422  0.00746495  1
  H+  H277  1  0.73057426  0.11877127  0.67487345  1
  H+  H278  1  0.48352725  0.60707860  0.17387213  1
  H+  H279  1  0.61855196  0.10259322  0.32763974  1
  H+  H280  1  0.62925000  0.76248327  0.66151740  1
  H+  H281  1  0.88545649  0.77441648  0.99143872  1
  H+  H282  1  0.70078582  0.32287471  0.31316162  1
  H+  H283  1  0.36108118  0.13077540  0.15038852  1
  H+  H284  1  0.36906418  0.38651141  0.15202977  1
  H+  H285  1  0.60016251  0.71629059  1.00585461  1
  H+  H286  1  0.72809378  0.85350008  0.50536469  1
  H+  H287  1  0.39057633  0.62039300  0.50150853  1
  H+  H288  1  0.38055188  0.23341271  0.00924258  1
  H+  H289  1  0.67519404  0.34695643  0.56931620  1
  H+  H290  1  0.81995403  0.65485278  0.74392704  1
  H+  H291  1  0.62600160  0.15664321  0.83158791  1
  H+  H292  1  0.62029032  0.94237390  0.06811499  1
  H+  H293  1  0.64231561  0.30458675  0.25586634  1
  H+  H294  1  0.08081540  0.40303017  0.39591675  1
  H+  H295  1  0.56326450  0.65683195  0.73086074  1
  H+  H296  1  0.92742920  0.82678777  0.93028227  1
  H+  H297  1  0.58617855  0.19081084  0.74245177  1
  H+  H298  1  0.07720372  0.41705465  0.06490069  1
  H+  H299  1  0.86233439  0.88280832  0.49856884  1
  H+  H300  1  0.10118699  0.68942375  0.43743758  1
  H+  H301  1  0.83644260  0.90259279  0.39789564  1
  H+  H302  1  0.16176317  0.57703718  0.59929249  1
  H+  H303  1  0.26701077  0.37629331  0.00802843  1
  H+  H304  1  0.77291472  0.87675917  0.68224172  1
  H+  H305  1  0.37096023  0.03328619  0.32991119  1
  H+  H306  1  0.57521240  0.90337048  0.39330891  1
  H+  H307  1  0.42157117  0.83442912  0.56720725  1
  H+  H308  1  0.83804733  0.67593171  0.09553878  1
  H+  H309  1  0.89830264  0.77006188  0.32808167  1
  H+  H310  1  0.32501158  0.16907069  0.40679958  1
  H+  H311  1  0.80800019  0.43410691  0.31534012  1
  H+  H312  1  0.15922328  0.81304380  0.94696364  1
  H+  H313  1  0.26062758  0.87537102  0.01832317  1
  H+  H314  1  0.14375573  0.80214530  0.33071749  1
  H+  H315  1  0.67878260  0.10329656  0.93576737  1
  H+  H316  1  0.66459957  0.09964795  0.57492663  1
  H+  H317  1  0.88047095  0.76826320  0.51198291  1
  H+  H318  1  0.15144075  0.07342066  0.56067876  1
  H+  H319  1  0.08948261  0.92117955  0.72461410  1
  H+  H320  1  0.29921947  0.77788667  0.86746064  1
  H+  H321  1  0.84694545  0.18814126  0.06057930  1
  H+  H322  1  0.59570438  0.39999095  0.08690691  1
  H+  H323  1  0.32175098  0.65604704  0.72534604  1
  H+  H324  1  0.61998993  0.87361072  0.66489622  1
  H+  H325  1  0.82108510  0.16223765  0.39028751  1
  H+  H326  1  0.11322912  0.62898508  0.68027216  1
  H+  H327  1  0.62626127  0.45289838  0.74630338  1
  H+  H328  1  0.42155071  0.30938394  0.20953957  1
  H+  H329  1  0.47663848  0.85800212  0.65954672  1
  H+  H330  1  0.35674604  0.13144526  0.49966831  1
  H+  H331  1  0.38770146  0.35136008  1.01845009  1
  H+  H332  1  0.83308955  0.90930359  0.79171740  1
  H+  H333  1  0.02043832  0.54661605  0.09815908  1
  H+  H334  1  0.92261494  0.35448273  0.22297269  1
  H+  H335  1  0.18369204  0.58068294  0.23771035  1
  H+  H336  1  0.09351394  0.41438687  0.77925739  1
  H+  H337  1  0.17894318  0.87433535  0.27510204  1
  H+  H338  1  0.87880096  0.36469640  0.48286034  1
  H+  H339  1  0.87550504  0.49900916  0.84468041  1
  H+  H340  1  0.72719277  0.85427753  0.17819002  1
  H+  H341  1  0.91094108  0.58597938  0.93552391  1
  H+  H342  1  0.67134782  0.09868710  0.23168143  1
  H+  H343  1  0.17207315  0.32623244  0.26189213  1
  H+  H344  1  0.57496855  0.17381276  0.43630099  1
  H+  H345  1  0.90771556  0.07912915  0.56691375  1
  H+  H346  1  0.14481529  0.39599066  0.68654136  1
  H+  H347  1  0.33112497  0.91643726  0.10513261  1
  H+  H348  1  0.32229485  0.17534881  0.74774262  1
  H+  H349  1  0.62806890  0.94072335  0.75181738  1
  H+  H350  1  0.83714771  0.17149177  0.74737639  1
  H+  H351  1  0.24727473  0.88184091  0.65909434  1
  H+  H352  1  0.92929782  0.09759878  0.93685492  1
  H+  H353  1  0.41908084  0.58213216  0.26943451  1
  H+  H354  1  0.07261473  0.18539272  0.43267285  1
  H+  H355  1  0.62395067  0.01637333  0.32296462  1
  H+  H356  1  0.31852517  0.41735404  0.44659946  1
  H+  H357  1  0.22171651  0.10660031  0.99621746  1
  H+  H358  1  0.32874688  0.14802731  0.08736734  1
  H+  H359  1  0.38043356  0.36879616  0.82870990  1
  H+  H360  1  0.08612194  0.65847775  0.76925951  1
  H+  H361  1  0.92776495  0.11011719  0.25619077  1
  H+  H362  1  0.65453724  0.58654624  0.56909735  1
  H+  H363  1  0.80870923  0.38255169  0.80665432  1
  H+  H364  1  0.41335637  0.09193293  0.23260487  1
  H+  H365  1  0.92496050  0.83226193  0.23000622  1
  H+  H366  1  0.97102623  0.29492829  0.61233472  1
  H+  H367  1  0.45279720  0.08797904  0.95645183  1
  H+  H368  1  0.71391529  0.84855655  0.97184065  1
  H+  H369  1  0.72504622  0.84015349  0.35108244  1
  H+  H370  1  0.37561988  0.71258238  0.34270184  1
  H+  H371  1  0.40262364  0.36400432  0.68878592  1
  H+  H372  1  0.40865967  0.58175712  0.60106402  1
  H+  H373  1  0.10340700  0.47672414  1.00577428  1
  H+  H374  1  0.08297047  0.92141812  0.09723997  1
  H+  H375  1  0.83333294  0.66873730  0.40931882  1
  H+  H376  1  0.87145031  0.27237401  0.32007240  1
  H+  H377  1  0.16123709  0.57694246  0.93187456  1
  H+  H378  1  0.41776033  0.37448337  0.28913363  1
  H+  H379  1  0.02269833  0.38812978  0.48408501  1
  H+  H380  1  0.82600751  0.42206694  0.42565909  1
  H+  H381  1  0.47103140  0.93332607  0.94275895  1
  H+  H382  1  0.07564967  0.91906248  0.40946383  1
  H+  H383  1  0.08411521  0.16160289  0.07923411  1
  O2-  O384  1  0.09009315  0.17326844  0.13680584  1
  O2-  O385  1  0.07050362  0.19969644  0.47579745  1
  O2-  O386  1  0.09222099  0.17385603  0.80525359  1
  O2-  O387  1  0.09719845  0.41307136  0.14407233  1
  O2-  O388  1  0.08439600  0.41752036  0.47243612  1
  O2-  O389  1  0.08362602  0.40985702  0.82362672  1
  O2-  O390  1  -0.01361220  0.51297080  0.13285635  1
  O2-  O391  1  0.10105098  0.68707015  0.48228962  1
  O2-  O392  1  0.08456719  0.65878921  0.81660958  1
  O2-  O393  1  0.08418786  0.92775497  0.14222835  1
  O2-  O394  1  0.07190368  0.90541946  0.48282715  1
  O2-  O395  1  0.09451946  0.92467469  0.80247605  1
  O2-  O396  1  0.33102198  0.15892074  0.13116558  1
  O2-  O397  1  0.32474725  0.15943000  0.48302096  1
  O2-  O398  1  0.32556246  0.17241861  0.79573476  1
  O2-  O399  1  0.33979749  0.41924182  0.14220792  1
  O2-  O400  1  0.32936335  0.42913360  0.49289429  1
  O2-  O401  1  0.34494055  0.40683022  0.80722624  1
  O2-  O402  1  0.34689282  0.65736067  0.14052071  1
  O2-  O403  1  0.34175324  0.66610254  0.48426893  1
  O2-  O404  1  0.31317386  0.63399364  0.80290261  1
  O2-  O405  1  0.34191534  0.92185031  0.15100075  1
  O2-  O406  1  0.33675477  0.92334938  0.48959676  1
  O2-  O407  1  0.30818394  0.94438031  0.82995261  1
  O2-  O408  1  0.59780181  0.19935974  0.15412658  1
  O2-  O409  1  0.57828860  0.18017414  0.48165336  1
  O2-  O410  1  0.59029255  0.18281966  0.82036422  1
  O2-  O411  1  0.59066880  0.39262231  0.13243588  1
  O2-  O412  1  0.58679790  0.42210516  0.48283391  1
  O2-  O413  1  0.57776773  0.41692851  0.82093560  1
  O2-  O414  1  0.58402932  0.65425546  0.14400470  1
  O2-  O415  1  0.57203686  0.65328862  0.48104767  1
  O2-  O416  1  0.57021321  0.64880989  0.80696401  1
  O2-  O417  1  0.61234303  0.93899641  0.14265093  1
  O2-  O418  1  0.59604829  0.91017981  0.47592929  1
  O2-  O419  1  0.64037921  0.95320990  0.79625569  1
  O2-  O420  1  0.83510774  0.18843972  0.13929095  1
  O2-  O421  1  0.82282058  0.15976917  0.47212849  1
  O2-  O422  1  0.85304246  0.21502982  0.82121812  1
  O2-  O423  1  0.78520327  0.42246925  0.11757740  1
  O2-  O424  1  0.82850368  0.41441905  0.47010988  1
  O2-  O425  1  0.82632613  0.39018034  0.84986875  1
  O2-  O426  1  0.83832719  0.67679792  0.14119692  1
  O2-  O427  1  0.82625872  0.66606874  0.48388644  1
  O2-  O428  1  0.82638389  0.65927157  0.82068574  1
  O2-  O429  1  0.84015823  0.93203322  0.19061410  1
  O2-  O430  1  0.83002861  0.90967362  0.48102833  1
  O2-  O431  1  0.86455695  0.92459448  0.83073520  1
  O2-  O432  1  0.16358328  0.09421287  0.17653291  1
  O2-  O433  1  0.14961425  0.06468886  0.51595834  1
  O2-  O434  1  0.16776473  0.08498891  0.85005001  1
  O2-  O435  1  0.17444080  0.32954027  0.18343541  1
  O2-  O436  1  0.16243760  0.33874880  0.53263580  1
  O2-  O437  1  0.17506249  0.33315619  0.85809624  1
  O2-  O438  1  0.18292652  0.56936842  0.19402509  1
  O2-  O439  1  0.16794088  0.58341504  0.52074519  1
  O2-  O440  1  0.16206814  0.56971874  0.85602993  1
  O2-  O441  1  0.19275103  0.89652374  0.20904601  1
  O2-  O442  1  0.17025270  0.83872424  0.52862400  1
  O2-  O443  1  0.13367123  0.81022017  0.86293038  1
  O2-  O444  1  0.41996366  0.09178228  0.18741737  1
  O2-  O445  1  0.41494474  0.08844044  0.52751193  1
  O2-  O446  1  0.43465989  0.08439308  0.87854898  1
  O2-  O447  1  0.42151439  0.32303883  0.16673118  1
  O2-  O448  1  0.41441162  0.33911484  0.49694019  1
  O2-  O449  1  0.41292834  0.32945989  0.84577153  1
  O2-  O450  1  0.42256145  0.58026617  0.18834644  1
  O2-  O451  1  0.42003687  0.58574340  0.51431209  1
  O2-  O452  1  0.40494583  0.56280843  0.84741669  1
  O2-  O453  1  0.45512568  0.88879680  0.19347184  1
  O2-  O454  1  0.42070452  0.83414168  0.52134466  1
  O2-  O455  1  0.33481059  0.79931698  0.83103151  1
  O2-  O456  1  0.67319057  0.10652433  0.18665134  1
  O2-  O457  1  0.65852907  0.09513446  0.52997917  1
  O2-  O458  1  0.68564721  0.10985808  0.85511468  1
  O2-  O459  1  0.64429744  0.28757461  0.17862454  1
  O2-  O460  1  0.67148599  0.34439191  0.52399812  1
  O2-  O461  1  0.65655866  0.34104081  0.87727080  1
  O2-  O462  1  0.66812975  0.55794374  0.17382711  1
  O2-  O463  1  0.65808793  0.58554786  0.52339509  1
  O2-  O464  1  0.65782136  0.57976620  0.85868344  1
  O2-  O465  1  0.66397882  0.81733660  0.17821227  1
  O2-  O466  1  0.66701400  0.82376447  0.52110657  1
  O2-  O467  1  0.65762677  0.81098756  0.84780313  1
  O2-  O468  1  0.92094540  0.10650677  0.17541604  1
  O2-  O469  1  0.90910113  0.07941659  0.52189425  1
  O2-  O470  1  0.93206226  0.08966305  0.85457535  1
  O2-  O471  1  0.93196105  0.35418641  0.17873956  1
  O2-  O472  1  0.90997125  0.33345485  0.49762637  1
  O2-  O473  1  0.89864407  0.37352649  0.84773729  1
  O2-  O474  1  0.89964003  0.57744741  0.18947449  1
  O2-  O475  1  0.89144519  0.57705509  0.52864160  1
  O2-  O476  1  0.90187710  0.55873835  0.82741703  1
  O2-  O477  1  0.92070110  0.84037064  0.18537177  1
  O2-  O478  1  0.91125298  0.82854543  0.52807340  1
  O2-  O479  1  0.93493969  0.82529305  0.85181260  1
  O2-  O480  1  0.15333962  0.08520174  0.33178094  1
  O2-  O481  1  0.16236375  0.08503801  0.63952558  1
  O2-  O482  1  0.16322857  0.07805995  0.97904679  1
  O2-  O483  1  0.16691560  0.32074089  0.30740915  1
  O2-  O484  1  0.15468989  0.31137145  0.64508787  1
  O2-  O485  1  0.16962966  0.33991462  0.98545110  1
  O2-  O486  1  0.18605109  0.61069545  0.32193378  1
  O2-  O487  1  0.16586346  0.58071354  0.64457942  1
  O2-  O488  1  0.15853487  0.57925774  0.97747734  1
  O2-  O489  1  0.17413818  0.86533489  0.32175151  1
  O2-  O490  1  0.18201302  0.85089815  0.64333862  1
  O2-  O491  1  0.15723315  0.81710729  0.99153115  1
  O2-  O492  1  0.40377976  0.09186940  0.31149220  1
  O2-  O493  1  0.41564736  0.08898639  0.65118645  1
  O2-  O494  1  0.45826817  0.10150467  1.00072932  1
  O2-  O495  1  0.42063492  0.34673491  0.32641639  1
  O2-  O496  1  0.39306517  0.41203227  0.69587298  1
  O2-  O497  1  0.42038613  0.32049868  1.02443344  1
  O2-  O498  1  0.41740521  0.58156127  0.31453110  1
  O2-  O499  1  0.40768455  0.58461769  0.64543272  1
  O2-  O500  1  0.41237878  0.56189864  0.96974656  1
  O2-  O501  1  0.40949331  0.80595934  0.29849589  1
  O2-  O502  1  0.41734631  0.83350540  0.64395835  1
  O2-  O503  1  0.45537574  0.89971195  0.98017692  1
  O2-  O504  1  0.65187989  0.07747026  0.30964990  1
  O2-  O505  1  0.67213146  0.09827407  0.65634248  1
  O2-  O506  1  0.68107645  0.10371745  0.98109981  1
  O2-  O507  1  0.64627699  0.31730489  0.30058026  1
  O2-  O508  1  0.68221918  0.35714921  0.65092062  1
  O2-  O509  1  0.65141528  0.32979836  0.94369643  1
  O2-  O510  1  0.63421348  0.61254287  0.33179742  1
  O2-  O511  1  0.64936458  0.59545423  0.64299927  1
  O2-  O512  1  0.66531802  0.58407511  0.98187946  1
  O2-  O513  1  0.65990979  0.80603799  0.35634356  1
  O2-  O514  1  0.66782619  0.82332516  0.64709711  1
  O2-  O515  1  0.64976981  0.81810901  0.97289228  1
  O2-  O516  1  0.92638463  0.10276727  0.30098025  1
  O2-  O517  1  0.90921538  0.07184763  0.65171622  1
  O2-  O518  1  0.92117504  0.08743601  0.98124925  1
  O2-  O519  1  0.90631488  0.33439902  0.30796943  1
  O2-  O520  1  0.95077752  0.30804736  0.64985075  1
  O2-  O521  1  0.91423849  0.34694183  0.96747346  1
  O2-  O522  1  0.93648890  0.60756324  0.31558838  1
  O2-  O523  1  0.91964706  0.58570312  0.65521403  1
  O2-  O524  1  0.90485717  0.57958965  0.97948455  1
  O2-  O525  1  0.92582718  0.82708629  0.30783308  1
  O2-  O526  1  0.91786740  0.83023095  0.64850108  1
  O2-  O527  1  0.91927603  0.83405269  0.97430572  1
  O2-  O528  1  0.07630858  0.14843895  0.02799370  1
  O2-  O529  1  0.07521940  0.16322243  0.35196036  1
  O2-  O530  1  0.07299656  0.16233365  0.68406836  1
  O2-  O531  1  0.07077905  0.41582952  0.01980148  1
  O2-  O532  1  0.07252933  0.39174569  0.35077962  1
  O2-  O533  1  0.11327709  0.42525875  0.69917825  1
  O2-  O534  1  0.07245165  0.65328672  0.02748321  1
  O2-  O535  1  0.10110394  0.70124217  0.35447012  1
  O2-  O536  1  0.08553435  0.65830566  0.70040695  1
  O2-  O537  1  0.08316616  0.91536978  0.01714491  1
  O2-  O538  1  0.08035611  0.92922956  0.36384080  1
  O2-  O539  1  0.08870828  0.91821276  0.67928088  1
  O2-  O540  1  0.34865515  0.16482951  0.00139125  1
  O2-  O541  1  0.31970453  0.17084992  0.36115547  1
  O2-  O542  1  0.32658859  0.17501550  0.68060924  1
  O2-  O543  1  0.32917838  0.40247497  0.02191385  1
  O2-  O544  1  0.30918825  0.39749577  0.37979073  1
  O2-  O545  1  0.23759755  0.32532740  0.66858057  1
  O2-  O546  1  0.32397674  0.63451661  0.02087878  1
  O2-  O547  1  0.34183441  0.65641540  0.36305947  1
  O2-  O548  1  0.32774443  0.67005137  0.68111634  1
  O2-  O549  1  0.31889256  0.91584582  0.03444669  1
  O2-  O550  1  0.32448525  0.93760422  0.36715799  1
  O2-  O551  1  0.33230704  0.91886248  0.68145657  1
  O2-  O552  1  0.60704111  0.18226102  0.03271628  1
  O2-  O553  1  0.56408647  0.15662686  0.35805488  1
  O2-  O554  1  0.58449334  0.19469266  0.69694067  1
  O2-  O555  1  0.59238700  0.41609901  0.01193544  1
  O2-  O556  1  0.58979259  0.42675761  0.35521895  1
  O2-  O557  1  0.65857307  0.47409201  0.70750945  1
  O2-  O558  1  0.57119217  0.65539289  0.02009152  1
  O2-  O559  1  0.58190769  0.64662082  0.36026593  1
  O2-  O560  1  0.56389263  0.66351047  0.68554378  1
  O2-  O561  1  0.61757582  0.94244371  0.02220358  1
  O2-  O562  1  0.57680248  0.90744036  0.34836044  1
  O2-  O563  1  0.59411210  0.91074660  0.67746000  1
  O2-  O564  1  0.84979767  0.18343140  0.01530797  1
  O2-  O565  1  0.82187351  0.16798866  0.34534354  1
  O2-  O566  1  0.82979599  0.15637112  0.70333802  1
  O2-  O567  1  0.80959595  0.41139390  -0.00146013  1
  O2-  O568  1  0.84682590  0.43382919  0.34610126  1
  O2-  O569  1  0.82508543  0.42876285  0.71964992  1
  O2-  O570  1  0.83130138  0.67255499  0.01889948  1
  O2-  O571  1  0.83565193  0.66993748  0.36314050  1
  O2-  O572  1  0.80938447  0.63761725  0.69992452  1
  O2-  O573  1  0.82021533  0.90739716  -0.04823763  1
  O2-  O574  1  0.82564087  0.89215132  0.35367886  1
  O2-  O575  1  0.83168867  0.90934314  0.69984736  1
