# generated using pymatgen
data_H2O
_symmetry_space_group_name_H-M   'P 1'
_cell_length_a   17.99468345
_cell_length_b   17.98862425
_cell_length_c   22.00577313
_cell_angle_alpha   90.03004636
_cell_angle_beta   89.98307403
_cell_angle_gamma   120.00890485
_symmetry_Int_Tables_number   1
_chemical_formula_structural   H2O
_chemical_formula_sum   'H384 O192'
_cell_volume   6168.36959345
_cell_formula_units_Z   192
loop_
 _symmetry_equiv_pos_site_id
 _symmetry_equiv_pos_as_xyz
  1  'x, y, z'
loop_
 _atom_type_symbol
 _atom_type_oxidation_number
  H+  1.0
  O2-  -2.0
loop_
 _atom_site_type_symbol
 _atom_site_label
 _atom_site_symmetry_multiplicity
 _atom_site_fract_x
 _atom_site_fract_y
 _atom_site_fract_z
 _atom_site_occupancy
  H+  H0  1  0.86720807  0.73227763  0.00539802  1
  H+  H1  1  0.78619438  0.41312864  -0.00763843  1
  H+  H2  1  0.17360236  0.83678328  1.05507254  1
  H+  H3  1  0.13388936  0.98115761  0.34701914  1
  H+  H4  1  0.88500898  0.27270965  0.50464685  1
  H+  H5  1  0.46183801  0.87134865  0.33387794  1
  H+  H6  1  0.91346981  0.08870523  0.72666011  1
  H+  H7  1  0.38889879  0.37591257  0.82238620  1
  H+  H8  1  0.89986639  0.28282949  0.64407958  1
  H+  H9  1  0.13723909  0.27563880  0.84042842  1
  H+  H10  1  0.01740341  0.39640661  0.66632883  1
  H+  H11  1  0.36599076  0.23211117  0.81710412  1
  H+  H12  1  0.62035174  0.98920535  0.17338336  1
  H+  H13  1  0.87209872  0.39530332  0.33269309  1
  H+  H14  1  0.38040981  0.48979953  0.33611494  1
  H+  H15  1  0.52054895  0.39564845  1.00059401  1
  H+  H16  1  0.07900593  0.16060215  0.43723106  1
  H+  H17  1  0.60622209  -0.01902245  0.33820036  1
  H+  H18  1  0.66147836  0.29409843  0.28010380  1
  H+  H19  1  0.77575748  0.64925751  0.49083144  1
  H+  H20  1  0.59074068  0.09872814  -0.00530627  1
  H+  H21  1  0.62053695  0.48033030  0.82113446  1
  H+  H22  1  0.34098707  0.10635298  0.01447353  1
  H+  H23  1  0.23091921  0.87034192  0.14394349  1
  H+  H24  1  0.20367112  0.55848182  0.98355846  1
  H+  H25  1  0.62733007  0.77583599  0.33265390  1
  H+  H26  1  0.51887391  0.38919491  0.16084505  1
  H+  H27  1  -0.00646911  0.86309414  0.65375604  1
  H+  H28  1  0.27913175  0.89111687  0.67387503  1
  H+  H29  1  0.84847806  0.13452819  0.00690628  1
  H+  H30  1  0.84788415  0.67625805  0.06699288  1
  H+  H31  1  0.09788043  0.17494235  0.73252029  1
  H+  H32  1  0.78354726  0.89196001  0.82754305  1
  H+  H33  1  0.11343609  0.49377650  0.67140756  1
  H+  H34  1  0.86245288  0.13445941  0.85473644  1
  H+  H35  1  0.23223285  0.11587259  0.65548857  1
  H+  H36  1  0.63728624  0.62084322  0.16066146  1
  H+  H37  1  0.36728593  0.22367204  0.33590739  1
  H+  H38  1  0.89279929  0.77514338  0.83618177  1
  H+  H39  1  0.72432914  0.35304149  0.50502009  1
  H+  H40  1  0.58299562  0.61777665  0.77745582  1
  H+  H41  1  0.72102674  0.10752287  0.64735500  1
  H+  H42  1  0.44191183  0.88748420  0.52455328  1
  H+  H43  1  0.38418138  0.38137425  0.96414148  1
  H+  H44  1  0.88821658  0.02956646  0.49408109  1
  H+  H45  1  0.88503815  0.88474669  0.67772299  1
  H+  H46  1  0.97937320  0.86815162  0.17328219  1
  H+  H47  1  0.88308056  0.11397218  0.50527195  1
  H+  H48  1  0.17770448  0.78658400  0.35171749  1
  H+  H49  1  0.52630352  0.14089580  0.67364784  1
  H+  H50  1  0.72597706  0.86563124  0.17814669  1
  H+  H51  1  0.14906539  0.78130174  0.65417348  1
  H+  H52  1  0.35469745  0.73227261  0.82773977  1
  H+  H53  1  0.36998713  0.22445865  0.66351493  1
  H+  H54  1  0.10714384  0.89206422  -0.00072460  1
  H+  H55  1  0.57553883  0.91885331  0.39632311  1
  H+  H56  1  0.11277161  0.38833061  0.48586526  1
  H+  H57  1  -0.00796982  0.60433706  0.51279179  1
  H+  H58  1  0.09497353  0.18769827  0.10613168  1
  H+  H59  1  0.50798944  0.12123948  0.50335465  1
  H+  H60  1  0.51988962  0.39625598  0.81020005  1
  H+  H61  1  0.89720803  1.02307882  0.84076367  1
  H+  H62  1  0.92590558  0.87236417  0.34095607  1
  H+  H63  1  0.33440952  0.92054445  0.73652246  1
  H+  H64  1  0.35767249  0.12926756  0.34010089  1
  H+  H65  1  0.62217282  1.00817161  0.50442689  1
  H+  H66  1  0.12476328  1.02351479  0.17296535  1
  H+  H67  1  0.49946156  0.13341936  1.01342920  1
  H+  H68  1  0.47196037  0.85769510  0.83550673  1
  H+  H69  1  0.84635817  0.91517595  0.76869245  1
  H+  H70  1  0.58160993  0.19840565  0.35214202  1
  H+  H71  1  0.53779006  1.01399419  -0.04249140  1
  H+  H72  1  0.66222961  0.83629842  0.23642071  1
  H+  H73  1  0.48858407  0.62406755  0.33165957  1
  H+  H74  1  0.62417413  0.48079416  0.66924100  1
  H+  H75  1  0.61811518  0.09619307  0.50834937  1
  H+  H76  1  0.41357564  0.87791678  1.01618681  1
  H+  H77  1  0.35198269  0.64212027  0.83099523  1
  H+  H78  1  0.31006728  0.42244341  -0.08169844  1
  H+  H79  1  0.96163250  0.10612943  1.00337753  1
  H+  H80  1  -0.03305122  0.86517741  -0.01194529  1
  H+  H81  1  0.64243722  0.87019405  0.99738916  1
  H+  H82  1  0.12985399  0.64430654  0.34153365  1
  H+  H83  1  0.88375713  0.73243718  0.34002944  1
  H+  H84  1  0.64761561  0.53604064  0.33632774  1
  H+  H85  1  0.99063667  0.62578430  0.17351548  1
  H+  H86  1  0.51599652  0.13057458  0.17499051  1
  H+  H87  1  0.73086387  0.87590162  0.48677825  1
  H+  H88  1  0.60461909  0.72548464  0.00763177  1
  H+  H89  1  0.98294759  0.61931804  0.83484648  1
  H+  H90  1  0.46364755  0.59823301  0.50647531  1
  H+  H91  1  0.73751713  0.62326344  0.33562506  1
  H+  H92  1  0.38911799  0.11390632  0.66075601  1
  H+  H93  1  0.52412543  0.64378737  0.16514752  1
  H+  H94  1  0.14134814  0.52575073  0.17614859  1
  H+  H95  1  0.72285624  0.10855890  0.85540459  1
  H+  H96  1  0.64191709  0.27601361  0.66345438  1
  H+  H97  1  0.60477799  0.12395158  0.34596780  1
  H+  H98  1  0.62746684  0.39092732  0.67208508  1
  H+  H99  1  0.64011931  0.86740767  0.83794173  1
  H+  H100  1  0.04605836  0.65321484  0.34151592  1
  H+  H101  1  0.87941052  0.02619002  0.16679892  1
  H+  H102  1  0.87770317  0.01539894  0.99783182  1
  H+  H103  1  0.61135122  0.73453469  0.16259575  1
  H+  H104  1  0.63899046  0.61457536  0.65369558  1
  H+  H105  1  0.62083371  0.89865752  0.17114902  1
  H+  H106  1  0.89437910  0.52858876  0.83875844  1
  H+  H107  1  0.51993267  0.88778282  0.02381697  1
  H+  H108  1  0.91656845  0.84263993  0.55984613  1
  H+  H109  1  0.77999782  0.38848110  0.67410560  1
  H+  H110  1  0.32750969  0.86039503  0.35376036  1
  H+  H111  1  0.35898788  1.00967904  0.51677232  1
  H+  H112  1  0.10969736  0.14095791  0.16347282  1
  H+  H113  1  0.90336165  0.53757831  0.16926198  1
  H+  H114  1  0.11241840  0.61820229  0.00546591  1
  H+  H115  1  0.38384506  0.35431511  0.18093403  1
  H+  H116  1  0.48312005  0.35373214  0.65236521  1
  H+  H117  1  0.86436207  0.89433419  0.48240737  1
  H+  H118  1  0.65778825  0.42251864  0.17046697  1
  H+  H119  1  0.11591110  0.64427388  0.67097975  1
  H+  H120  1  0.62549537  0.36180788  1.00812698  1
  H+  H121  1  0.72440614  0.61750799  0.15734759  1
  H+  H122  1  0.66173017  0.50792091  -0.00888195  1
  H+  H123  1  0.10643228  0.21350093  0.34219874  1
  H+  H124  1  0.68459609  0.33585457  1.04421071  1
  H+  H125  1  0.11052167  0.48556798  0.99385352  1
  H+  H126  1  0.75512057  0.59619442  -0.01074270  1
  H+  H127  1  0.75727059  0.12877278  0.50140853  1
  H+  H128  1  0.89963332  0.51897526  0.51062753  1
  H+  H129  1  0.22921013  0.60885067  0.50931705  1
  H+  H130  1  0.11898897  0.88941201  0.82980063  1
  H+  H131  1  0.65160465  0.60363717  0.85612983  1
  H+  H132  1  0.92602628  0.07997585  0.90107250  1
  H+  H133  1  0.21628812  0.10658335  0.99431148  1
  H+  H134  1  0.39186199  1.02573640  0.66466949  1
  H+  H135  1  0.27542616  0.40254800  0.67084508  1
  H+  H136  1  0.33714374  0.67526576  0.43559209  1
  H+  H137  1  0.91805207  0.34259839  0.25308593  1
  H+  H138  1  1.02020162  0.38594689  0.82282563  1
  H+  H139  1  0.13748475  0.73103347  0.49607716  1
  H+  H140  1  0.22531680  0.61336637  0.66252215  1
  H+  H141  1  0.36027230  0.64122355  0.67457340  1
  H+  H142  1  0.29139402  0.40119600  0.33311141  1
  H+  H143  1  0.63366631  0.26435818  0.51089629  1
  H+  H144  1  0.36711496  0.97846787  0.16771453  1
  H+  H145  1  0.39434370  0.27718878  0.49873437  1
  H+  H146  1  0.14084942  0.12674512  0.98593503  1
  H+  H147  1  0.51866417  0.88417248  0.67377585  1
  H+  H148  1  0.46881332  0.62817951  0.84484184  1
  H+  H149  1  0.18976957  0.84069372  0.59414456  1
  H+  H150  1  0.88733587  0.37081520  0.16074060  1
  H+  H151  1  0.13052965  0.36068625  0.84156209  1
  H+  H152  1  0.86122271  0.22273576  0.85469728  1
  H+  H153  1  0.35161474  0.92152499  0.07467366  1
  H+  H154  1  0.62541499  0.64744337  0.34198361  1
  H+  H155  1  0.27532194  0.89063795  0.83120928  1
  H+  H156  1  0.85610614  0.14236923  0.15787883  1
  H+  H157  1  0.01126822  0.89589895  0.49436336  1
  H+  H158  1  0.64694807  0.26886142  0.84624599  1
  H+  H159  1  0.63171980  0.77839807  0.63059034  1
  H+  H160  1  0.37319039  0.64648433  0.34411446  1
  H+  H161  1  0.17945908  0.33316921  0.38224273  1
  H+  H162  1  0.48540948  0.36211335  0.32844324  1
  H+  H163  1  0.41791012  0.60021644  0.90735621  1
  H+  H164  1  0.59713034  0.59836534  0.49201575  1
  H+  H165  1  0.34975513  0.19548715  0.02984981  1
  H+  H166  1  0.12164358  0.14270634  0.82563885  1
  H+  H167  1  0.86892823  0.73138218  0.16353232  1
  H+  H168  1  0.36391800  0.73166305  0.34308318  1
  H+  H169  1  0.13394201  0.27392287  0.49970852  1
  H+  H170  1  0.83662033  0.89618804  0.29633139  1
  H+  H171  1  0.64528326  0.51691603  0.50659662  1
  H+  H172  1  0.36868038  0.88944325  0.16678342  1
  H+  H173  1  0.60922840  0.13096463  0.82872441  1
  H+  H174  1  0.56864225  0.41622865  0.06648737  1
  H+  H175  1  0.10353721  -0.02081259  0.99499792  1
  H+  H176  1  0.40551058  0.07337956  0.57249743  1
  H+  H177  1  0.98829235  0.11991567  0.67946757  1
  H+  H178  1  0.10928054  0.38637916  0.17121297  1
  H+  H179  1  0.51507926  0.63763787  0.65637754  1
  H+  H180  1  0.73111684  0.61790915  0.65911387  1
  H+  H181  1  0.14192624  0.78024662  0.14332997  1
  H+  H182  1  0.90892167  0.83204646  0.92902078  1
  H+  H183  1  0.72863506  0.12306808  0.33307971  1
  H+  H184  1  0.38572776  0.53633238  0.98900555  1
  H+  H185  1  0.89343144  0.86501211  0.83719730  1
  H+  H186  1  0.76866308  0.88418610  0.00918148  1
  H+  H187  1  0.42123828  0.78937330  0.01629781  1
  H+  H188  1  0.38205329  0.53386069  0.66333802  1
  H+  H189  1  0.88187919  0.78290798  0.49998843  1
  H+  H190  1  0.37923033  0.01224919  0.99508609  1
  H+  H191  1  0.87790725  0.96933265  0.68158103  1
  H+  H192  1  0.13587681  0.27413364  0.18474761  1
  H+  H193  1  0.38841444  0.11833216  0.84137298  1
  H+  H194  1  0.02278322  0.39197864  0.33178730  1
  H+  H195  1  0.78174676  0.63357037  0.82629579  1
  H+  H196  1  0.35609278  0.21658229  0.17038133  1
  H+  H197  1  0.03312140  0.63497750  0.00343420  1
  H+  H198  1  0.14865282  0.27914794  0.65462110  1
  H+  H199  1  0.61552970  0.37937381  0.49471269  1
  H+  H200  1  0.67810190  0.69072582  0.77383568  1
  H+  H201  1  0.12065969  0.13848924  0.67284091  1
  H+  H202  1  0.11289615  0.89383214  0.14388654  1
  H+  H203  1  0.62093891  0.39108107  0.33783066  1
  H+  H204  1  0.89470609  0.52903514  0.66561509  1
  H+  H205  1  0.92902798  0.34938508  0.59012809  1
  H+  H206  1  0.38095268  0.65069418  0.01237471  1
  H+  H207  1  0.11102423  0.12677086  0.34190685  1
  H+  H208  1  0.52417025  0.86052206  0.48151465  1
  H+  H209  1  0.62355274  0.88336303  0.48222820  1
  H+  H210  1  0.89266471  0.36751080  0.83952515  1
  H+  H211  1  0.30773791  0.67839714  0.01231501  1
  H+  H212  1  0.87469442  0.14340878  0.65758015  1
  H+  H213  1  0.45416115  0.07911523  0.34178053  1
  H+  H214  1  0.08956259  0.65868222  0.10068311  1
  H+  H215  1  0.14732665  0.90018866  0.35889986  1
  H+  H216  1  0.63053057  0.86458928  0.64169343  1
  H+  H217  1  0.09225410  0.35565736  0.02050077  1
  H+  H218  1  0.38763554  0.29565123  0.96280098  1
  H+  H219  1  0.12268995  0.64128315  0.16349225  1
  H+  H220  1  0.22795541  0.11414481  0.32663971  1
  H+  H221  1  0.15007694  0.76593567  1.00664866  1
  H+  H222  1  0.72724699  0.12411867  0.17721434  1
  H+  H223  1  0.32609503  0.66694642  0.73507030  1
  H+  H224  1  0.86595438  0.63672982  0.66931792  1
  H+  H225  1  -0.07338959  0.58291874  0.60397729  1
  H+  H226  1  0.90561683  0.63143451  0.99129406  1
  H+  H227  1  0.26349854  0.39400315  0.83186548  1
  H+  H228  1  0.38917826  0.52776848  0.18486837  1
  H+  H229  1  0.14453902  1.02537224  0.65973815  1
  H+  H230  1  0.07553040  0.42368045  0.73390043  1
  H+  H231  1  0.60754133  0.97286110  0.67151133  1
  H+  H232  1  0.60203275  0.48679876  0.15057309  1
  H+  H233  1  0.11711291  0.11215841  0.51143796  1
  H+  H234  1  0.59182086  0.42480927  0.74957706  1
  H+  H235  1  0.27932439  0.87416301  0.44805558  1
  H+  H236  1  0.11405816  0.64105184  0.82316874  1
  H+  H237  1  0.59169817  0.21987609  1.01435001  1
  H+  H238  1  0.88151724  0.27757584  0.16408086  1
  H+  H239  1  0.03038744  0.88894859  0.82496659  1
  H+  H240  1  0.14346144  0.52693654  0.32728868  1
  H+  H241  1  0.61265918  0.97301101  0.82627732  1
  H+  H242  1  0.87763350  0.50002007  0.99479085  1
  H+  H243  1  0.66855867  0.84385341  0.54576201  1
  H+  H244  1  0.10930780  0.47560415  0.82012323  1
  H+  H245  1  0.03164859  0.14052100  0.82781860  1
  H+  H246  1  0.27775831  0.64015494  0.16833657  1
  H+  H247  1  0.87550528  0.02663218  0.32995763  1
  H+  H248  1  0.78267010  0.38773291  0.83163962  1
  H+  H249  1  0.35611282  0.47571035  0.49162511  1
  H+  H250  1  0.10925910  1.00721089  0.50692547  1
  H+  H251  1  0.27027003  0.38583176  0.17722823  1
  H+  H252  1  0.13219208  0.89368855  0.66809106  1
  H+  H253  1  0.39289647  0.36606100  0.50101598  1
  H+  H254  1  0.87388587  0.64540880  0.16164451  1
  H+  H255  1  0.58347825  0.66284784  0.40037314  1
  H+  H256  1  0.84915491  0.22234402  0.00500441  1
  H+  H257  1  0.86234228  0.88504563  0.16547296  1
  H+  H258  1  0.39822300  0.36533037  0.32601448  1
  H+  H259  1  0.73832461  0.49928343  0.20062943  1
  H+  H260  1  0.97007605  0.10806976  0.33780277  1
  H+  H261  1  0.37587263  0.10273833  0.18991691  1
  H+  H262  1  0.62068005  0.86319101  0.32857520  1
  H+  H263  1  0.86971637  0.39086054  0.67144009  1
  H+  H264  1  0.86019458  0.38185404  0.48827646  1
  H+  H265  1  0.96678535  0.35679734  0.99902149  1
  H+  H266  1  0.83007438  0.17871588  0.69930690  1
  H+  H267  1  0.13251787  0.27999538  0.95166089  1
  H+  H268  1  0.35323886  0.48751441  0.83359843  1
  H+  H269  1  0.22531931  0.36268160  0.49634137  1
  H+  H270  1  0.78626787  0.39960909  0.33164211  1
  H+  H271  1  0.48182688  0.62415279  0.00046658  1
  H+  H272  1  0.21471371  0.10985500  0.18049372  1
  H+  H273  1  0.48122223  0.86964842  0.18380885  1
  H+  H274  1  0.35844705  0.73075158  0.49722125  1
  H+  H275  1  0.47582768  0.11519510  0.84490500  1
  H+  H276  1  0.87318776  0.64132205  0.82385381  1
  H+  H277  1  0.38107786  0.86305668  0.66908205  1
  H+  H278  1  0.90703829  0.53565530  0.32743877  1
  H+  H279  1  0.32036884  0.85555329  0.51294031  1
  H+  H280  1  0.21928797  0.61317035  0.83810750  1
  H+  H281  1  0.29165351  0.87804808  1.01657111  1
  H+  H282  1  0.88795506  0.28089878  0.31121034  1
  H+  H283  1  0.61336732  0.13835047  0.67324326  1
  H+  H284  1  0.13906612  0.77359034  0.84381466  1
  H+  H285  1  0.88738147  0.37211748  -0.01014050  1
  H+  H286  1  0.75476021  0.88498603  0.32954673  1
  H+  H287  1  0.20270444  0.24732265  0.04211244  1
  H+  H288  1  0.85727088  0.88451302  0.00590346  1
  H+  H289  1  0.11241639  0.47701298  0.49081232  1
  H+  H290  1  0.52869880  0.38494370  0.49151493  1
  H+  H291  1  0.75348823  0.12394771  0.75756004  1
  H+  H292  1  0.07639649  0.42075725  0.39541557  1
  H+  H293  1  0.32630102  0.43552320  0.73346796  1
  H+  H294  1  0.96599195  0.11608278  0.16739492  1
  H+  H295  1  0.31910619  0.14483036  0.11746771  1
  H+  H296  1  0.59032779  0.41340168  0.40039298  1
  H+  H297  1  0.87926259  0.64230277  0.34068324  1
  H+  H298  1  0.42627427  0.59511875  0.27343581  1
  H+  H299  1  0.07344711  0.92543656  0.09414526  1
  H+  H300  1  0.13222750  0.36704112  0.34077604  1
  H+  H301  1  0.33908005  0.17106091  0.43278536  1
  H+  H302  1  0.64361234  0.07138419  0.90030353  1
  H+  H303  1  0.40351411  0.83851086  0.27526086  1
  H+  H304  1  0.02828540  0.64632169  0.67208853  1
  H+  H305  1  0.17048663  0.08598411  0.89233928  1
  H+  H306  1  0.69514217  0.38665913  0.25489278  1
  H+  H307  1  0.15338994  0.08076528  0.57108707  1
  H+  H308  1  0.93621320  0.59523178  0.26843110  1
  H+  H309  1  0.82872892  0.90902876  0.10509838  1
  H+  H310  1  0.84508483  0.43780323  0.08860635  1
  H+  H311  1  0.15111932  0.56966025  0.89284677  1
  H+  H312  1  0.38702980  0.86446250  0.83670698  1
  H+  H313  1  0.60290444  0.93597182  0.08593449  1
  H+  H314  1  0.87379126  0.14324132  0.34554243  1
  H+  H315  1  0.75810614  0.16801886  0.75783896  1
  H+  H316  1  0.65020190  0.07073728  0.59689243  1
  H+  H317  1  0.51970645  0.54346714  0.44916010  1
  H+  H318  1  0.83913102  0.41912918  0.77010896  1
  H+  H319  1  0.67000696  0.57805379  0.56532184  1
  H+  H320  1  0.97697466  0.36135388  0.49740021  1
  H+  H321  1  0.25897586  0.38093474  -0.02169966  1
  H+  H322  1  0.17423071  0.33657647  0.59537716  1
  H+  H323  1  0.16524817  0.33092531  0.24529018  1
  H+  H324  1  0.09027105  0.67879572  0.76469587  1
  H+  H325  1  0.14245391  0.02567040  0.83352324  1
  H+  H326  1  0.34410300  0.67492094  0.11230831  1
  H+  H327  1  0.89667466  0.22724775  0.38443203  1
  H+  H328  1  0.10017795  0.66996191  0.43729123  1
  H+  H329  1  0.67325685  0.09547529  0.27136153  1
  H+  H330  1  0.92415170  0.34168595  0.89981533  1
  H+  H331  1  0.32956686  0.41705936  0.11870627  1
  H+  H332  1  0.57422966  0.66973698  0.06854690  1
  H+  H333  1  0.16033459  0.07788868  0.27082883  1
  H+  H334  1  0.01530439  0.13829771  0.49454380  1
  H+  H335  1  0.40722089  0.58797644  0.60050048  1
  H+  H336  1  0.35892374  -0.00189187  0.34335379  1
  H+  H337  1  0.40206935  0.06492683  0.24685556  1
  H+  H338  1  0.82321127  0.17089503  0.09957330  1
  H+  H339  1  0.39228992  0.83114711  0.58286629  1
  H+  H340  1  0.16800853  0.58199396  0.60078364  1
  H+  H341  1  0.63458733  0.11884849  0.18172080  1
  H+  H342  1  0.27814336  0.14180622  0.82178806  1
  H+  H343  1  0.56876624  0.15939045  0.11387491  1
  H+  H344  1  0.07441656  0.40101540  0.07692009  1
  H+  H345  1  0.38863099  0.61689597  0.18185486  1
  H+  H346  1  0.83848976  0.67934008  0.43342756  1
  H+  H347  1  0.93169914  0.60050107  0.92929560  1
  H+  H348  1  0.93208296  0.83988529  0.23719644  1
  H+  H349  1  0.56599477  0.14744849  0.44397313  1
  H+  H350  1  0.08769618  0.92841821  0.44251032  1
  H+  H351  1  0.68123807  0.32327197  0.90629718  1
  H+  H352  1  0.58491457  0.91398235  0.76607423  1
  H+  H353  1  0.61609612  0.98810107  0.01976258  1
  H+  H354  1  0.64562681  0.78182252  0.83947108  1
  H+  H355  1  0.23491306  0.61505135  0.32959530  1
  H+  H356  1  0.90238397  0.77556803  0.65524549  1
  H+  H357  1  0.37673636  0.77011413  0.66620727  1
  H+  H358  1  0.83831297  0.91985978  0.41927561  1
  H+  H359  1  1.01087515  0.86893285  0.33395842  1
  H+  H360  1  0.39307017  0.77863968  0.18264955  1
  H+  H361  1  0.16854965  0.83018543  0.90455809  1
  H+  H362  1  0.36290780  -0.01910828  0.83036069  1
  H+  H363  1  0.38365879  0.61547332  0.50612346  1
  H+  H364  1  0.09880064  0.91840684  0.72872374  1
  H+  H365  1  0.79180209  0.42578599  0.15018972  1
  H+  H366  1  0.67178033  0.33263740  0.60259250  1
  H+  H367  1  0.14258401  0.61233175  0.50855240  1
  H+  H368  1  0.42857554  0.35340315  0.87790644  1
  H+  H369  1  0.83838984  0.66912377  0.72812914  1
  H+  H370  1  0.42450189  0.32658789  0.59336926  1
  H+  H371  1  0.33674719  0.16752569  0.72496165  1
  H+  H372  1  0.83169477  0.41578949  0.43099622  1
  H+  H373  1  0.40163619  0.07579631  0.93628301  1
  H+  H374  1  0.42099696  0.32641181  0.23641778  1
  H+  H375  1  0.81281455  0.15623615  0.44124978  1
  H+  H376  1  0.17344831  0.58593190  0.23538321  1
  H+  H377  1  0.36448367  0.14142997  0.49373067  1
  H+  H378  1  0.66586351  0.83809158  0.93571273  1
  H+  H379  1  0.58736176  0.69425849  0.70446232  1
  H+  H380  1  0.68905792  0.55926428  0.90284876  1
  H+  H381  1  0.34005108  0.42327298  0.42918453  1
  H+  H382  1  0.58125654  0.16576694  0.77126449  1
  H+  H383  1  0.02069827  0.38803205  0.16420780  1
  O2-  O384  1  0.08616559  0.17882426  0.15031496  1
  O2-  O385  1  0.07879375  0.16687283  0.48223715  1
  O2-  O386  1  0.09210885  0.17450384  0.81223947  1
  O2-  O387  1  0.08302191  0.41754006  0.15169187  1
  O2-  O388  1  0.08107153  0.41832127  0.47204837  1
  O2-  O389  1  0.07982695  0.41536761  0.80401859  1
  O2-  O390  1  0.09208006  0.66959313  0.14538292  1
  O2-  O391  1  0.10218481  0.66887334  0.48257716  1
  O2-  O392  1  0.08810034  0.67642473  0.81035520  1
  O2-  O393  1  0.07895679  0.92374867  0.13902449  1
  O2-  O394  1  0.07569064  0.93154242  0.48642822  1
  O2-  O395  1  0.09158765  0.92013938  0.81105785  1
  O2-  O396  1  0.32140355  0.15318460  0.16204366  1
  O2-  O397  1  0.34434103  0.17930847  0.47737846  1
  O2-  O398  1  0.33893703  0.17026284  0.80705373  1
  O2-  O399  1  0.33186852  0.41572414  0.16291785  1
  O2-  O400  1  0.33203969  0.41674133  0.47402186  1
  O2-  O401  1  0.32736998  0.42529999  0.82457200  1
  O2-  O402  1  0.34056467  0.67233565  0.15727260  1
  O2-  O403  1  0.33542878  0.67202772  0.48129044  1
  O2-  O404  1  0.32066371  0.66949069  0.81375091  1
  O2-  O405  1  0.34167981  0.92055618  0.14722878  1
  O2-  O406  1  0.28361769  0.88105270  0.49470592  1
  O2-  O407  1  0.33431205  0.92117726  0.81385777  1
  O2-  O408  1  0.57532170  0.16093856  0.15848336  1
  O2-  O409  1  0.56898700  0.15139096  0.48906242  1
  O2-  O410  1  0.57936922  0.16316727  0.81658231  1
  O2-  O411  1  0.57538592  0.42298693  0.13995555  1
  O2-  O412  1  0.59044462  0.41351678  0.47757479  1
  O2-  O413  1  0.58328298  0.42343370  0.79854666  1
  O2-  O414  1  0.58177085  0.67498641  0.14562166  1
  O2-  O415  1  0.54899885  0.59978288  0.46863988  1
  O2-  O416  1  0.62379178  0.67387009  0.79448191  1
  O2-  O417  1  0.59021588  0.92918260  0.15595433  1
  O2-  O418  1  0.58041960  0.90829897  0.47080818  1
  O2-  O419  1  0.58488639  0.91211879  0.81158535  1
  O2-  O420  1  0.82625368  0.17500403  0.14549820  1
  O2-  O421  1  0.81760472  0.16259156  0.48584628  1
  O2-  O422  1  0.82621146  0.16034620  0.86264580  1
  O2-  O423  1  0.84770372  0.43605003  0.13395412  1
  O2-  O424  1  0.82672893  0.40996034  0.47602362  1
  O2-  O425  1  0.84291129  0.42234950  0.81541786  1
  O2-  O426  1  0.84171899  0.67289610  0.14507617  1
  O2-  O427  1  0.83545994  0.68829788  0.47766670  1
  O2-  O428  1  0.84024953  0.66939796  0.80903352  1
  O2-  O429  1  0.82829944  0.91124718  0.15045532  1
  O2-  O430  1  0.83646752  0.92532118  0.46361645  1
  O2-  O431  1  0.84466272  0.91953336  0.81510391  1
  O2-  O432  1  0.15250189  0.08230577  0.19153018  1
  O2-  O433  1  0.14379599  0.07665746  0.52545839  1
  O2-  O434  1  0.17325303  0.08729345  0.84726543  1
  O2-  O435  1  0.16734743  0.33498799  0.20084796  1
  O2-  O436  1  0.16400941  0.33686557  0.50915606  1
  O2-  O437  1  0.16259055  0.33418973  0.85952759  1
  O2-  O438  1  0.17382075  0.58692701  0.18968305  1
  O2-  O439  1  0.16908123  0.57789848  0.52477074  1
  O2-  O440  1  0.15615231  0.57829388  0.84832638  1
  O2-  O441  1  0.16961091  0.84193167  0.13070464  1
  O2-  O442  1  0.19495943  0.83170413  0.51972151  1
  O2-  O443  1  0.16947492  0.83417856  0.86018001  1
  O2-  O444  1  0.40755514  0.07266192  0.20185835  1
  O2-  O445  1  0.40135945  0.06930023  0.52659794  1
  O2-  O446  1  0.41494219  0.08634983  0.86004824  1
  O2-  O447  1  0.41539264  0.32366742  0.19069165  1
  O2-  O448  1  0.42663520  0.33898458  0.51404275  1
  O2-  O449  1  0.42394415  0.34861073  0.83275325  1
  O2-  O450  1  0.42142099  0.58904520  0.19704281  1
  O2-  O451  1  0.40507980  0.57823402  0.52322146  1
  O2-  O452  1  0.41118824  0.59467163  0.86158734  1
  O2-  O453  1  0.41997448  0.83942364  0.19705286  1
  O2-  O454  1  0.38755421  0.83680677  0.53555966  1
  O2-  O455  1  0.41175815  0.82867568  0.85025121  1
  O2-  O456  1  0.66879641  0.09181867  0.19686564  1
  O2-  O457  1  0.65094748  0.06743599  0.52187154  1
  O2-  O458  1  0.65766198  0.07583607  0.85643836  1
  O2-  O459  1  0.71426964  0.43831869  0.19127341  1
  O2-  O460  1  0.66564929  0.32543430  0.52394747  1
  O2-  O461  1  0.68393902  0.32819202  0.86212827  1
  O2-  O462  1  0.66281496  0.58366756  0.16788318  1
  O2-  O463  1  0.66797681  0.57771676  0.52003676  1
  O2-  O464  1  0.67697278  0.56652148  0.85685089  1
  O2-  O465  1  0.66430202  0.83910450  0.19099168  1
  O2-  O466  1  0.66949334  0.84495222  0.49969557  1
  O2-  O467  1  0.67258156  0.84012619  0.85604433  1
  O2-  O468  1  0.90421036  0.08794817  0.17611226  1
  O2-  O469  1  0.91837968  0.08716326  0.51358908  1
  O2-  O470  1  0.92911096  0.08394345  0.85585746  1
  O2-  O471  1  0.91508019  0.33956130  0.17833003  1
  O2-  O472  1  0.91784859  0.33493654  0.51532966  1
  O2-  O473  1  0.92505819  0.33896383  0.85429169  1
  O2-  O474  1  0.92984065  0.59543856  0.18862295  1
  O2-  O475  1  0.93565721  0.57269273  0.53312176  1
  O2-  O476  1  0.92354383  0.59020124  0.85220100  1
  O2-  O477  1  0.92135959  0.83741528  0.19276246  1
  O2-  O478  1  0.91360385  0.84557745  0.51473059  1
  O2-  O479  1  0.92426567  0.83499931  0.85258252  1
  O2-  O480  1  0.16519407  0.07899614  0.31610808  1
  O2-  O481  1  0.16974679  0.08550996  0.64384093  1
  O2-  O482  1  0.16062037  0.08700955  0.97288227  1
  O2-  O483  1  0.16662283  0.33606185  0.33934418  1
  O2-  O484  1  0.17828132  0.33923296  0.64009380  1
  O2-  O485  1  0.15153539  0.29904988  0.99427901  1
  O2-  O486  1  0.17538875  0.58746732  0.31243465  1
  O2-  O487  1  0.16455170  0.58260335  0.64668411  1
  O2-  O488  1  0.14499913  0.54452855  0.97502270  1
  O2-  O489  1  0.21222086  0.85033770  0.34211625  1
  O2-  O490  1  0.18396528  0.84208583  0.64015462  1
  O2-  O491  1  0.17946671  0.83002399  1.00993738  1
  O2-  O492  1  0.39500467  0.05583490  0.32556751  1
  O2-  O493  1  0.42173776  0.08474049  0.64667108  1
  O2-  O494  1  0.39774173  0.07240146  0.98210333  1
  O2-  O495  1  0.42495843  0.33122940  0.31230331  1
  O2-  O496  1  0.42365817  0.31896482  0.63824186  1
  O2-  O497  1  0.42337977  0.35725710  0.95654613  1
  O2-  O498  1  0.42633237  0.59389764  0.31906253  1
  O2-  O499  1  0.41418827  0.59512704  0.64568562  1
  O2-  O500  1  0.41873109  0.59896105  0.98246314  1
  O2-  O501  1  0.40029152  0.83745759  0.32070207  1
  O2-  O502  1  0.40730654  0.83043608  0.64952612  1
  O2-  O503  1  0.45229206  0.85265885  1.00582152  1
  O2-  O504  1  0.66950661  0.09242999  0.31748621  1
  O2-  O505  1  0.65802448  0.07725164  0.64230636  1
  O2-  O506  1  0.59554904  0.05137733  0.97316861  1
  O2-  O507  1  0.68379512  0.35291762  0.29398757  1
  O2-  O508  1  0.67366612  0.33671986  0.64809010  1
  O2-  O509  1  0.65986641  0.33113017  1.00396651  1
  O2-  O510  1  0.67576743  0.59725207  0.32509602  1
  O2-  O511  1  0.66985897  0.58263650  0.64494692  1
  O2-  O512  1  0.70972562  0.54828948  0.96478924  1
  O2-  O513  1  0.65368422  0.83513460  0.31455953  1
  O2-  O514  1  0.65999524  0.83932902  0.61886519  1
  O2-  O515  1  0.66533333  0.83446851  0.98109198  1
  O2-  O516  1  0.91006249  0.08976087  0.32592102  1
  O2-  O517  1  0.92322732  0.08978121  0.68293208  1
  O2-  O518  1  0.90806085  0.07575122  0.98085305  1
  O2-  O519  1  0.92031954  0.34208758  0.29907105  1
  O2-  O520  1  0.92907531  0.34622382  0.63599371  1
  O2-  O521  1  0.91154153  0.33538984  0.97713548  1
  O2-  O522  1  0.93913382  0.59671638  0.31381134  1
  O2-  O523  1  0.92368864  0.58893488  0.64990416  1
  O2-  O524  1  0.93470575  0.60018026  0.97488558  1
  O2-  O525  1  0.95012279  0.84297213  0.31815040  1
  O2-  O526  1  0.93284681  0.83566678  0.63964176  1
  O2-  O527  1  0.90596481  0.83294332  0.97466456  1
  O2-  O528  1  0.14388604  0.22251532  0.02570665  1
  O2-  O529  1  0.07794160  0.15423786  0.35780193  1
  O2-  O530  1  0.09201002  0.17080287  0.68733904  1
  O2-  O531  1  0.06867910  0.39294091  0.03134572  1
  O2-  O532  1  0.08172828  0.41984694  0.34982785  1
  O2-  O533  1  0.07664596  0.43067803  0.68718260  1
  O2-  O534  1  0.09184284  0.65621035  0.02138137  1
  O2-  O535  1  0.10545725  0.67926513  0.35849304  1
  O2-  O536  1  0.08988294  0.67815914  0.68624085  1
  O2-  O537  1  0.07397535  0.91961393  0.01162916  1
  O2-  O538  1  0.10758067  0.92255710  0.36598778  1
  O2-  O539  1  0.09944438  0.92140796  0.68354846  1
  O2-  O540  1  0.30986146  0.13425413  0.03473818  1
  O2-  O541  1  0.33025859  0.16370757  0.35094456  1
  O2-  O542  1  0.33549526  0.16309296  0.67991198  1
  O2-  O543  1  0.31776900  0.42072685  -0.03747809  1
  O2-  O544  1  0.35068196  0.42716858  0.34826173  1
  O2-  O545  1  0.33327481  0.44178212  0.68933881  1
  O2-  O546  1  0.36070781  0.68962955  0.03227373  1
  O2-  O547  1  0.33762747  0.67154803  0.35881515  1
  O2-  O548  1  0.32614134  0.66822531  0.68953920  1
  O2-  O549  1  0.35338379  0.91545957  0.02859333  1
  O2-  O550  1  0.29420942  0.88454851  0.37570013  1
  O2-  O551  1  0.33919563  0.92085896  0.69109977  1
  O2-  O552  1  0.55970883  0.15921052  0.02857588  1
  O2-  O553  1  0.56261041  0.13951525  0.36433034  1
  O2-  O554  1  0.58659104  0.17121417  0.68961892  1
  O2-  O555  1  0.57606625  0.41452287  0.02101434  1
  O2-  O556  1  0.58786731  0.41648092  0.35484037  1
  O2-  O557  1  0.59610600  0.42117203  0.68705041  1
  O2-  O558  1  0.56924486  0.66590823  0.02310494  1
  O2-  O559  1  0.59078808  0.67520595  0.35608738  1
  O2-  O560  1  0.57981199  0.66809645  0.66440262  1
  O2-  O561  1  0.60080640  0.93146968  0.03901642  1
  O2-  O562  1  0.57035888  0.91990936  0.35075744  1
  O2-  O563  1  0.57959787  0.91256564  0.68698306  1
  O2-  O564  1  0.82085251  0.16509358  0.02448332  1
  O2-  O565  1  0.85023129  0.18373011  0.35961038  1
  O2-  O566  1  0.84220044  0.17567455  0.65622769  1
  O2-  O567  1  0.84426886  0.43828773  0.00948728  1
  O2-  O568  1  0.84426056  0.42663266  0.35019907  1
  O2-  O569  1  0.83994059  0.41904734  0.69034282  1
  O2-  O570  1  0.84861548  0.67350750  0.02152378  1
  O2-  O571  1  0.84810629  0.67237973  0.35413210  1
  O2-  O572  1  0.83565312  0.66823283  0.68285141  1
  O2-  O573  1  0.82900617  0.91489733  0.02479865  1
  O2-  O574  1  0.81956545  0.91238700  0.33390450  1
  O2-  O575  1  0.85364369  0.91071927  0.69782059  1
