# generated using pymatgen
data_H2O
_symmetry_space_group_name_H-M   'P 1'
_cell_length_a   18.00491814
_cell_length_b   18.00429352
_cell_length_c   22.01425326
_cell_angle_alpha   89.98218174
_cell_angle_beta   89.99208384
_cell_angle_gamma   120.00489978
_symmetry_Int_Tables_number   1
_chemical_formula_structural   H2O
_chemical_formula_sum   'H384 O192'
_cell_volume   6179.88416994
_cell_formula_units_Z   192
loop_
 _symmetry_equiv_pos_site_id
 _symmetry_equiv_pos_as_xyz
  1  'x, y, z'
loop_
 _atom_type_symbol
 _atom_type_oxidation_number
  H+  1.0
  O2-  -2.0
loop_
 _atom_site_type_symbol
 _atom_site_label
 _atom_site_symmetry_multiplicity
 _atom_site_fract_x
 _atom_site_fract_y
 _atom_site_fract_z
 _atom_site_occupancy
  H+  H0  1  0.61783637  0.22713073  0.82753887  1
  H+  H1  1  0.61316274  0.60676257  0.66473740  1
  H+  H2  1  0.36617161  0.47717769  0.33535687  1
  H+  H3  1  0.85749856  0.72222293  1.02062913  1
  H+  H4  1  0.34871348  0.14210101  0.68774643  1
  H+  H5  1  0.26602237  0.63097748  0.81498689  1
  H+  H6  1  0.40509352  0.08048527  0.74640887  1
  H+  H7  1  0.87745066  0.02220838  0.99381568  1
  H+  H8  1  0.83965031  0.89440951  0.50682599  1
  H+  H9  1  0.60571827  0.23142448  0.35937544  1
  H+  H10  1  0.81340602  0.39542466  0.01792795  1
  H+  H11  1  0.28619936  0.65526363  1.00085221  1
  H+  H12  1  0.72773672  0.60687416  0.52469458  1
  H+  H13  1  1.02826398  0.35559698  1.01117795  1
  H+  H14  1  -0.01101815  0.63152467  0.00383848  1
  H+  H15  1  0.63659377  0.52379491  0.50936106  1
  H+  H16  1  0.73713978  0.12364673  0.32100400  1
  H+  H17  1  0.11299902  0.63876137  0.33204636  1
  H+  H18  1  0.48305128  0.37228009  0.50088387  1
  H+  H19  1  0.42787301  0.10022112  0.22998628  1
  H+  H20  1  0.12442166  0.47598998  0.48468472  1
  H+  H21  1  0.47301284  0.61744348  0.84173151  1
  H+  H22  1  0.23300303  0.11950095  0.33381476  1
  H+  H23  1  0.88896177  0.36194679  0.18186604  1
  H+  H24  1  0.88394363  0.27732759  0.65513871  1
  H+  H25  1  0.12674457  0.42532036  0.01995856  1
  H+  H26  1  0.76531560  0.38209909  0.67479898  1
  H+  H27  1  0.14588318  0.75622584  0.65908571  1
  H+  H28  1  0.14708349  0.29780118  0.66446315  1
  H+  H29  1  0.01477337  0.04153878  0.46333401  1
  H+  H30  1  0.29178462  0.40278302  0.68958885  1
  H+  H31  1  0.88253927  0.88532256  0.98537336  1
  H+  H32  1  0.86836236  0.63139175  0.65506166  1
  H+  H33  1  0.89254144  1.03929984  0.33577092  1
  H+  H34  1  0.60562090  0.14340521  0.45337307  1
  H+  H35  1  0.61319081  0.97315005  0.66925540  1
  H+  H36  1  0.31990327  0.23219186  0.00339366  1
  H+  H37  1  0.23890737  0.61148748  0.49105287  1
  H+  H38  1  0.64885715  0.03154451  0.31950666  1
  H+  H39  1  0.16706852  0.60317017  0.88895379  1
  H+  H40  1  0.17478289  1.04114435  0.49433237  1
  H+  H41  1  0.89497893  0.13476936  0.52752444  1
  H+  H42  1  0.11335900  0.71143856  0.48914978  1
  H+  H43  1  0.88445005  0.51263795  0.66443368  1
  H+  H44  1  0.62274225  0.60978165  0.32262005  1
  H+  H45  1  0.87681740  0.25088455  0.33640492  1
  H+  H46  1  0.61395754  0.38826330  0.16453852  1
  H+  H47  1  0.52834201  0.39243361  0.16642746  1
  H+  H48  1  0.47628291  0.61490924  0.32228222  1
  H+  H49  1  0.59127488  0.35776628  0.98338924  1
  H+  H50  1  0.00942970  0.64962588  0.83768979  1
  H+  H51  1  0.40364201  1.01590027  0.83991075  1
  H+  H52  1  1.01844284  0.13573591  0.83834189  1
  H+  H53  1  0.03720763  0.88665917  0.17681905  1
  H+  H54  1  0.38004967  0.98094046  0.16526655  1
  H+  H55  1  0.40336103  0.12542851  0.16686941  1
  H+  H56  1  0.62284582  0.23081987  0.16346510  1
  H+  H57  1  0.36471539  0.63861143  0.32767379  1
  H+  H58  1  0.80867474  0.65789361  0.10729643  1
  H+  H59  1  0.14266338  0.27687134  0.82262254  1
  H+  H60  1  0.71314376  0.09555903  0.50688509  1
  H+  H61  1  0.62206365  0.97302098  0.02295925  1
  H+  H62  1  0.10309486  0.93843498  0.65685127  1
  H+  H63  1  0.63224243  0.77964398  0.49583485  1
  H+  H64  1  0.14900062  0.61057024  0.63101855  1
  H+  H65  1  0.13644363  0.12161985  0.86066318  1
  H+  H66  1  0.66292843  0.32720463  0.23818556  1
  H+  H67  1  0.40387060  0.86286463  1.00230310  1
  H+  H68  1  0.14483886  0.27443241  0.32872302  1
  H+  H69  1  0.87936825  0.16314441  0.34070733  1
  H+  H70  1  0.39491751  0.36309062  0.85310915  1
  H+  H71  1  0.12286702  1.00308291  0.84401007  1
  H+  H72  1  0.28242010  0.89833186  0.33397222  1
  H+  H73  1  0.62508008  0.64467564  0.48981316  1
  H+  H74  1  0.38202396  0.35639866  0.32696166  1
  H+  H75  1  0.96562777  0.93619787  0.94717410  1
  H+  H76  1  0.52078618  0.63433612  0.67686522  1
  H+  H77  1  0.47054420  0.86239494  0.49993907  1
  H+  H78  1  0.67745547  0.06593357  -0.06121180  1
  H+  H79  1  0.37797458  0.48983650  0.67818952  1
  H+  H80  1  0.61140137  0.72146137  0.66972467  1
  H+  H81  1  0.91652292  0.36945619  0.99979938  1
  H+  H82  1  0.91108383  0.83272615  0.89060130  1
  H+  H83  1  0.66280456  0.60876231  0.92697749  1
  H+  H84  1  0.23222442  0.36468991  0.32795371  1
  H+  H85  1  0.22942204  0.12854572  0.84848731  1
  H+  H86  1  0.77441722  0.14146396  0.82457538  1
  H+  H87  1  0.38507656  0.02541507  0.49115367  1
  H+  H88  1  0.70550507  0.65340059  0.16873590  1
  H+  H89  1  0.13347167  0.52298987  0.16918074  1
  H+  H90  1  0.14341847  0.89074507  0.83016027  1
  H+  H91  1  0.17608550  0.33694787  0.23351783  1
  H+  H92  1  0.15651664  0.17837982  0.70068435  1
  H+  H93  1  0.86757066  0.39188833  0.83210022  1
  H+  H94  1  0.63243177  0.78297385  0.83642410  1
  H+  H95  1  0.52638564  0.88405281  0.67057488  1
  H+  H96  1  0.28468019  0.38659828  0.82400949  1
  H+  H97  1  0.28129507  0.63508606  0.15641275  1
  H+  H98  1  0.12805212  0.06338780  0.66144718  1
  H+  H99  1  0.10999639  0.48438612  0.82352483  1
  H+  H100  1  0.36674819  0.20122374  0.09563576  1
  H+  H101  1  0.08475936  0.66583175  0.39256083  1
  H+  H102  1  0.37015280  0.14369492  0.48409192  1
  H+  H103  1  0.16066188  0.03079963  0.17460785  1
  H+  H104  1  0.49082273  0.61041562  0.16773896  1
  H+  H105  1  0.85696933  0.46288066  0.49323249  1
  H+  H106  1  0.51259002  0.37846078  0.66481519  1
  H+  H107  1  0.38375628  0.11972006  0.34102361  1
  H+  H108  1  0.27986453  0.63319495  0.66328925  1
  H+  H109  1  0.78756383  0.88445359  0.16371200  1
  H+  H110  1  0.01589808  0.09993182  0.01742220  1
  H+  H111  1  0.06109866  1.00626522  0.05150501  1
  H+  H112  1  0.56407753  0.80540508  0.17462811  1
  H+  H113  1  0.94834012  0.02751031  0.20547870  1
  H+  H114  1  0.27913119  0.39202035  0.15795675  1
  H+  H115  1  0.10148998  0.61784512  0.70951511  1
  H+  H116  1  0.38077910  0.73774959  0.00576234  1
  H+  H117  1  0.42116364  0.76174004  0.16477980  1
  H+  H118  1  0.35200628  0.62540993  0.81999156  1
  H+  H119  1  0.17257236  0.83739309  1.06746785  1
  H+  H120  1  0.42756505  0.33003948  0.90975153  1
  H+  H121  1  0.62061492  0.82069866  0.99248369  1
  H+  H122  1  0.51376971  0.37341528  0.82877460  1
  H+  H123  1  0.49217271  0.86375977  1.00392236  1
  H+  H124  1  0.22642937  0.61400852  0.31993500  1
  H+  H125  1  0.35975743  0.22458606  0.33720219  1
  H+  H126  1  0.14745177  0.36768005  0.81936790  1
  H+  H127  1  0.60789473  0.22254625  0.67445503  1
  H+  H128  1  0.46963393  0.10409765  -0.00773412  1
  H+  H129  1  0.65160707  0.70712645  -0.00282127  1
  H+  H130  1  0.84024287  0.19829277  0.42711425  1
  H+  H131  1  0.92275091  0.09223111  0.27404412  1
  H+  H132  1  0.09818133  0.74194644  0.83036186  1
  H+  H133  1  0.08775289  0.37315893  0.66791075  1
  H+  H134  1  0.85532585  0.70978328  0.51551019  1
  H+  H135  1  0.60094423  0.88865387  0.48678714  1
  H+  H136  1  0.17145722  0.91853194  0.47255134  1
  H+  H137  1  0.10185987  0.97526384  0.77669372  1
  H+  H138  1  0.37147268  0.47893780  0.15777286  1
  H+  H139  1  0.63024728  0.35852900  0.65562072  1
  H+  H140  1  0.95738630  0.14937444  0.69429357  1
  H+  H141  1  0.64272261  0.12807830  0.17338259  1
  H+  H142  1  0.90337243  0.29102322  0.50277833  1
  H+  H143  1  0.38677693  1.02454331  0.33972207  1
  H+  H144  1  0.40304022  0.61410144  0.16456409  1
  H+  H145  1  0.00112567  0.86671292  0.50062321  1
  H+  H146  1  0.90486353  0.00531956  0.68695614  1
  H+  H147  1  0.87587858  0.14293375  0.01373543  1
  H+  H148  1  0.11713730  0.12770508  0.01941033  1
  H+  H149  1  0.88323138  0.61449741  0.17290258  1
  H+  H150  1  0.63672052  0.87497084  0.83922795  1
  H+  H151  1  0.13537517  0.62661569  0.98939492  1
  H+  H152  1  -0.03182336  0.86206817  0.83180399  1
  H+  H153  1  0.01698569  0.63106985  0.15728587  1
  H+  H154  1  0.38867097  0.36537512  0.17301165  1
  H+  H155  1  0.75875459  0.87864573  -0.00287483  1
  H+  H156  1  0.27257740  0.88169345  0.48699992  1
  H+  H157  1  0.00785470  0.37666451  0.50459593  1
  H+  H158  1  0.11008331  0.47131543  0.66376822  1
  H+  H159  1  0.08808494  0.81069610  0.52193589  1
  H+  H160  1  0.59859827  0.54052106  0.88136498  1
  H+  H161  1  0.35468321  0.23048534  0.67247759  1
  H+  H162  1  0.11908821  0.89379132  0.32207638  1
  H+  H163  1  0.85563920  0.88919688  0.82982638  1
  H+  H164  1  0.88529199  0.77448489  0.16957272  1
  H+  H165  1  0.72770178  0.36786819  0.83957747  1
  H+  H166  1  0.80560931  0.66885590  0.25954613  1
  H+  H167  1  0.66060891  0.32789516  0.59763076  1
  H+  H168  1  0.39333314  0.77825452  0.31467165  1
  H+  H169  1  0.53412923  0.90061388  0.82972651  1
  H+  H170  1  0.88173268  0.02884003  0.84636038  1
  H+  H171  1  0.73820678  0.09850179  -0.00331825  1
  H+  H172  1  0.11551835  0.38416835  0.33820306  1
  H+  H173  1  0.39033423  0.36899636  0.65353732  1
  H+  H174  1  0.14678941  0.60728085  0.49289983  1
  H+  H175  1  0.72782445  0.86612733  0.33372351  1
  H+  H176  1  0.58271481  0.92593123  0.39108336  1
  H+  H177  1  0.72197854  0.36183605  0.50097178  1
  H+  H178  1  0.77886260  0.77436851  0.55277900  1
  H+  H179  1  0.01613104  0.91193086  0.02647068  1
  H+  H180  1  0.02518971  0.38514543  0.33824473  1
  H+  H181  1  0.62391283  0.71806665  0.15434450  1
  H+  H182  1  0.14234100  0.10744653  0.50659713  1
  H+  H183  1  0.27948966  0.88689864  0.81588239  1
  H+  H184  1  0.14092393  0.77518295  0.32296451  1
  H+  H185  1  0.14482203  0.32736717  0.99317213  1
  H+  H186  1  0.00726387  0.11383683  0.49591337  1
  H+  H187  1  0.10010312  0.72612252  1.01624839  1
  H+  H188  1  0.39055068  0.52288002  0.84461849  1
  H+  H189  1  0.61413727  0.72983608  0.33496168  1
  H+  H190  1  0.29521693  0.14794013  0.14709316  1
  H+  H191  1  0.87206003  0.90464720  0.34523433  1
  H+  H192  1  0.60136344  0.46131464  0.81633030  1
  H+  H193  1  0.60954537  0.50468867  0.66330594  1
  H+  H194  1  0.13362516  0.11769669  0.33291378  1
  H+  H195  1  0.71435006  0.87391975  0.50122684  1
  H+  H196  1  0.12745886  0.62656624  0.83367587  1
  H+  H197  1  0.27116804  0.38179574  0.49201525  1
  H+  H198  1  0.38766771  0.61743377  0.66111940  1
  H+  H199  1  0.18558594  0.27626537  0.96246615  1
  H+  H200  1  0.53393048  0.63531907  0.48941342  1
  H+  H201  1  0.14070671  0.35716325  0.49990381  1
  H+  H202  1  0.28562756  0.15206060  0.49172716  1
  H+  H203  1  0.96086503  0.42400973  0.30095651  1
  H+  H204  1  0.42064077  0.58219319  0.26190342  1
  H+  H205  1  0.05023155  0.23223266  0.64367134  1
  H+  H206  1  0.63979062  0.86524460  0.32846627  1
  H+  H207  1  0.97913439  0.11888358  0.17560352  1
  H+  H208  1  0.86427366  0.23021053  0.82295366  1
  H+  H209  1  0.73776324  0.12935344  0.17416283  1
  H+  H210  1  0.37437257  0.51051402  1.00151245  1
  H+  H211  1  0.14687251  0.54723376  0.97814177  1
  H+  H212  1  0.89782451  0.60221990  0.51699624  1
  H+  H213  1  0.85534355  0.38180474  0.33736767  1
  H+  H214  1  0.53151590  0.13369635  0.83004003  1
  H+  H215  1  0.87968401  0.62002756  1.00270096  1
  H+  H216  1  0.42462996  0.07446007  0.89843908  1
  H+  H217  1  0.40284185  0.87118197  0.84370744  1
  H+  H218  1  -0.03526777  0.85033210  0.65761027  1
  H+  H219  1  0.39399678  0.50344934  0.50871541  1
  H+  H220  1  0.85207872  0.94270939  0.74145615  1
  H+  H221  1  0.38971551  1.01100793  -0.00713065  1
  H+  H222  1  0.75703149  0.64001449  0.01422768  1
  H+  H223  1  0.48113537  0.12352274  0.35219939  1
  H+  H224  1  0.88970155  0.78821260  0.31362328  1
  H+  H225  1  0.61593045  0.39212783  0.49129942  1
  H+  H226  1  0.61135038  0.49695234  0.02070325  1
  H+  H227  1  0.78362963  0.21374951  0.47440368  1
  H+  H228  1  0.51609986  0.38038389  0.33973720  1
  H+  H229  1  0.86513379  0.14594839  0.16832639  1
  H+  H230  1  0.85043569  0.46808211  0.33638143  1
  H+  H231  1  0.83454267  0.65433070  0.57599440  1
  H+  H232  1  0.71708467  0.11435224  0.65494964  1
  H+  H233  1  0.48192447  0.37306154  0.00947283  1
  H+  H234  1  0.63009999  0.27789947  0.49256490  1
  H+  H235  1  0.39607043  0.86780111  0.31048300  1
  H+  H236  1  0.75671211  0.62502319  0.84771529  1
  H+  H237  1  0.99768759  0.90533459  0.49166947  1
  H+  H238  1  0.38701229  0.62010248  0.99240379  1
  H+  H239  1  0.59771195  0.97618268  0.48873851  1
  H+  H240  1  0.09974132  0.23884303  0.15882461  1
  H+  H241  1  0.77141301  0.64591096  0.32332378  1
  H+  H242  1  0.10628372  0.62722711  0.15410309  1
  H+  H243  1  -0.02085740  0.36642802  0.83918860  1
  H+  H244  1  0.37752305  0.64652956  0.48254042  1
  H+  H245  1  0.73599138  0.36457284  -0.03345761  1
  H+  H246  1  0.60304790  0.47133686  0.33762665  1
  H+  H247  1  0.85800224  0.71566278  0.65746040  1
  H+  H248  1  0.14420369  0.37115793  0.17862375  1
  H+  H249  1  0.61057349  0.65164700  0.83744296  1
  H+  H250  1  0.86993171  0.23726985  0.17041028  1
  H+  H251  1  0.76845498  0.89323041  0.83139395  1
  H+  H252  1  0.86395840  0.47769122  0.17022738  1
  H+  H253  1  0.97274516  0.61594274  0.32312685  1
  H+  H254  1  0.31235438  0.17720295  0.76944756  1
  H+  H255  1  0.83456716  0.98412108  0.15512431  1
  H+  H256  1  0.91052939  0.86840712  0.15040239  1
  H+  H257  1  0.88437390  0.11906599  0.84199268  1
  H+  H258  1  0.22011791  0.09851321  1.00584247  1
  H+  H259  1  -0.02362826  0.59929585  0.66773875  1
  H+  H260  1  0.02698630  0.13541485  0.33658227  1
  H+  H261  1  0.36070771  0.38166253  0.48734820  1
  H+  H262  1  0.73015427  0.32116061  0.97529500  1
  H+  H263  1  0.65906646  0.85749980  0.15087456  1
  H+  H264  1  0.39191767  0.77043922  0.65517892  1
  H+  H265  1  0.62694519  0.35669199  0.33301110  1
  H+  H266  1  0.36397527  0.97243550  0.68055281  1
  H+  H267  1  0.53162486  0.89662909  0.32864932  1
  H+  H268  1  0.35978535  0.87944317  0.48958588  1
  H+  H269  1  1.03015670  0.89641513  0.32785713  1
  H+  H270  1  0.88475912  0.61732434  0.31287125  1
  H+  H271  1  0.84453161  0.70852395  0.83192828  1
  H+  H272  1  0.64626004  0.11992337  0.84329823  1
  H+  H273  1  0.89746320  0.27199411  0.99738011  1
  H+  H274  1  0.64735938  0.03209474  0.83873044  1
  H+  H275  1  0.39352100  0.86024552  0.65387450  1
  H+  H276  1  0.88534064  0.52595020  0.85154714  1
  H+  H277  1  0.52250163  0.89791217  0.12347782  1
  H+  H278  1  0.57761294  0.22437446  0.99916534  1
  H+  H279  1  0.62858147  0.84991340  0.65852123  1
  H+  H280  1  0.05463757  0.13230159  0.68332759  1
  H+  H281  1  0.33510172  0.41887153  0.39602043  1
  H+  H282  1  0.88886885  0.48952014  0.01776023  1
  H+  H283  1  1.06678810  0.16484712  0.10635496  1
  H+  H284  1  0.29138763  0.87144693  0.02529441  1
  H+  H285  1  0.28051487  0.88018831  0.66536498  1
  H+  H286  1  0.71534531  0.35429415  0.33370861  1
  H+  H287  1  0.35371494  0.22706096  0.83237071  1
  H+  H288  1  0.53587843  0.14046735  0.16087623  1
  H+  H289  1  0.92132327  0.33790384  0.24391514  1
  H+  H290  1  0.86828562  0.82446631  0.58479008  1
  H+  H291  1  0.83646909  0.42118035  0.77333601  1
  H+  H292  1  0.33244016  0.17061565  0.40121269  1
  H+  H293  1  0.28487338  0.39890642  0.00251376  1
  H+  H294  1  0.19219536  0.10789303  0.22010179  1
  H+  H295  1  0.07146864  0.67111120  0.74602129  1
  H+  H296  1  0.82113163  0.40899378  0.43240288  1
  H+  H297  1  0.34203572  0.90569927  0.76045637  1
  H+  H298  1  0.79518490  0.59885914  0.41545438  1
  H+  H299  1  0.67745216  0.09619348  0.23944442  1
  H+  H300  1  0.08459930  0.93016585  0.11629523  1
  H+  H301  1  0.93742578  0.11415375  0.58435874  1
  H+  H302  1  0.82940538  0.17137762  0.73029301  1
  H+  H303  1  0.29302375  0.89285917  0.15819851  1
  H+  H304  1  0.84393565  0.17506927  0.07110438  1
  H+  H305  1  0.33986977  0.43395933  0.06740119  1
  H+  H306  1  0.92366308  0.85661804  0.26260811  1
  H+  H307  1  0.08432008  0.41120613  0.42730197  1
  H+  H308  1  0.13604167  0.83830696  0.65297561  1
  H+  H309  1  0.39595755  0.28107459  0.49891115  1
  H+  H310  1  0.56784806  0.40382970  0.72699089  1
  H+  H311  1  0.07727120  0.14806739  0.39841217  1
  H+  H312  1  0.08089688  0.14329577  0.78338988  1
  H+  H313  1  1.02083259  0.38305190  0.17069418  1
  H+  H314  1  0.93624626  0.34358781  0.57025569  1
  H+  H315  1  0.62235295  0.65668130  0.10136220  1
  H+  H316  1  0.35983434  0.91325701  0.07903203  1
  H+  H317  1  0.85564385  0.14373934  0.66816214  1
  H+  H318  1  0.07232999  0.87389787  0.71579892  1
  H+  H319  1  0.13889581  0.77024630  0.14787362  1
  H+  H320  1  0.41351612  0.58398108  0.93269645  1
  H+  H321  1  0.14302598  0.86300273  0.15299819  1
  H+  H322  1  0.58911414  0.16806173  0.73666033  1
  H+  H323  1  0.13857185  0.52411597  0.32332228  1
  H+  H324  1  0.84332486  0.62222238  0.41386668  1
  H+  H325  1  0.13954460  1.02330440  0.32424225  1
  H+  H326  1  0.45826899  0.83015865  0.21797785  1
  H+  H327  1  0.47115417  0.11348190  0.48065246  1
  H+  H328  1  0.33829177  0.66348896  0.09594533  1
  H+  H329  1  0.58237211  0.17574811  0.05858422  1
  H+  H330  1  0.72796756  0.36276629  0.18157157  1
  H+  H331  1  0.15788132  0.04934830  0.59541152  1
  H+  H332  1  0.89038088  0.87298492  0.67415982  1
  H+  H333  1  0.07694010  0.39673329  0.11092504  1
  H+  H334  1  0.15357488  0.31733188  0.55939740  1
  H+  H335  1  0.41141188  0.32710097  0.26711093  1
  H+  H336  1  0.65300548  0.08368049  0.56205453  1
  H+  H337  1  0.62717063  0.11049306  0.65858106  1
  H+  H338  1  0.65912990  0.82241572  0.92659853  1
  H+  H339  1  0.06600763  0.65452740  0.07010212  1
  H+  H340  1  0.18301479  0.86450061  0.88393334  1
  H+  H341  1  0.58992788  0.92399654  0.76739876  1
  H+  H342  1  0.41412264  0.82782586  0.56137819  1
  H+  H343  1  0.91218257  0.59050147  0.93921982  1
  H+  H344  1  0.16076792  0.87051995  1.00217707  1
  H+  H345  1  0.91853152  0.58784122  0.23085649  1
  H+  H346  1  0.92312592  0.33255695  0.89954979  1
  H+  H347  1  0.15865875  0.81482656  0.56582495  1
  H+  H348  1  0.20033179  0.12515519  0.94204685  1
  H+  H349  1  0.61424415  0.32232578  0.92411109  1
  H+  H350  1  0.07984750  0.42276526  0.76599797  1
  H+  H351  1  0.83954293  0.93277801  0.40492066  1
  H+  H352  1  0.33135363  0.65942183  0.72752309  1
  H+  H353  1  0.17959472  0.57154360  0.58125582  1
  H+  H354  1  0.47015472  0.11234274  0.69257404  1
  H+  H355  1  0.64768952  0.57192155  0.60157828  1
  H+  H356  1  0.16399433  0.58572665  0.22599637  1
  H+  H357  1  0.02773212  0.62053217  0.48999051  1
  H+  H358  1  0.58581949  0.42342327  0.43258257  1
  H+  H359  1  0.47507871  0.52804786  0.54757501  1
  H+  H360  1  0.42082737  0.58054522  0.60541250  1
  H+  H361  1  0.37099270  0.73171259  0.48746098  1
  H+  H362  1  0.39401837  0.27915201  0.17299514  1
  H+  H363  1  0.64767972  0.81896439  0.59615668  1
  H+  H364  1  0.85428256  0.99000243  0.50560262  1
  H+  H365  1  0.85354444  0.38177018  0.67329961  1
  H+  H366  1  0.33933865  0.67229571  0.38637069  1
  H+  H367  1  0.80976206  0.91593264  0.05941133  1
  H+  H368  1  -0.02765885  0.36849938  0.65961781  1
  H+  H369  1  0.91901349  0.08880282  0.93922395  1
  H+  H370  1  0.43997031  0.85026407  0.90347934  1
  H+  H371  1  0.41528709  0.33611775  0.59217441  1
  H+  H372  1  0.93133072  0.56678912  0.56794705  1
  H+  H373  1  0.58373378  0.66682667  0.39207456  1
  H+  H374  1  0.33786069  0.91867766  0.39496907  1
  H+  H375  1  0.13799723  0.94528560  0.41473501  1
  H+  H376  1  0.63583598  0.36035048  0.82853729  1
  H+  H377  1  0.86985193  0.60726930  0.85398289  1
  H+  H378  1  0.58451555  0.67024776  0.77129768  1
  H+  H379  1  0.58705114  0.43185995  0.07755904  1
  H+  H380  1  0.36044577  0.42273915  0.77731415  1
  H+  H381  1  0.17655908  0.83087499  0.26303345  1
  H+  H382  1  0.84438471  0.41955918  0.11249374  1
  H+  H383  1  0.64654047  0.56994999  0.26641247  1
  O2-  O384  1  0.04895061  0.18819527  0.14071528  1
  O2-  O385  1  0.04663308  0.10359709  0.46945218  1
  O2-  O386  1  0.08014704  0.16089830  0.82617621  1
  O2-  O387  1  0.08119695  0.41412288  0.15413247  1
  O2-  O388  1  0.08770999  0.41361028  0.47371960  1
  O2-  O389  1  0.08221897  0.42306542  0.81112587  1
  O2-  O390  1  0.07506551  0.65671427  0.13728649  1
  O2-  O391  1  0.08738519  0.65275381  0.47189466  1
  O2-  O392  1  0.06803168  0.68013951  0.81886455  1
  O2-  O393  1  0.09590237  0.91939668  0.15980885  1
  O2-  O394  1  0.17835359  0.96800707  0.44918966  1
  O2-  O395  1  0.09362067  0.94930903  0.81687861  1
  O2-  O396  1  0.35836221  0.18159415  0.13825154  1
  O2-  O397  1  0.34316668  0.17938987  0.47137888  1
  O2-  O398  1  0.30972556  0.17165467  0.81491081  1
  O2-  O399  1  0.33847601  0.41953781  0.14053393  1
  O2-  O400  1  0.33137038  0.41421171  0.47474797  1
  O2-  O401  1  0.34955497  0.41811353  0.82165610  1
  O2-  O402  1  0.34078218  0.65937083  0.14123412  1
  O2-  O403  1  0.34360633  0.67191145  0.46887180  1
  O2-  O404  1  0.32276294  0.65040459  0.79656256  1
  O2-  O405  1  0.35557717  0.92022376  0.15312223  1
  O2-  O406  1  0.33120441  0.91011685  0.47106066  1
  O2-  O407  1  0.34016722  0.90925656  0.80560366  1
  O2-  O408  1  0.59708138  0.17048259  0.14763628  1
  O2-  O409  1  0.57711323  0.17668464  0.44260442  1
  O2-  O410  1  0.59174367  0.16690966  0.81227797  1
  O2-  O411  1  0.58797203  0.42250975  0.15084366  1
  O2-  O412  1  0.58753458  0.42556463  0.47816420  1
  O2-  O413  1  0.56949451  0.40138168  0.80393005  1
  O2-  O414  1  0.62009551  0.66101209  0.14634594  1
  O2-  O415  1  0.59261740  0.67147436  0.47295376  1
  O2-  O416  1  0.57947298  0.67674379  0.81571009  1
  O2-  O417  1  0.55495708  0.95015459  0.09738852  1
  O2-  O418  1  0.56898583  0.91723058  0.47116734  1
  O2-  O419  1  0.59522570  0.92952909  0.81243433  1
  O2-  O420  1  0.83738093  0.17643189  0.15211764  1
  O2-  O421  1  0.83184465  0.20325324  0.47246428  1
  O2-  O422  1  0.83437286  0.17073412  0.80608358  1
  O2-  O423  1  0.83563504  0.41643998  0.15714242  1
  O2-  O424  1  0.81815251  0.40435597  0.47746497  1
  O2-  O425  1  0.83940262  0.42499242  0.81853682  1
  O2-  O426  1  0.82525997  0.67235347  0.15165687  1
  O2-  O427  1  0.83387483  0.65043019  0.52872876  1
  O2-  O428  1  0.81388013  0.64522628  0.82956732  1
  O2-  O429  1  0.79331049  0.92893585  0.13565422  1
  O2-  O430  1  0.82565947  0.93439227  0.48403541  1
  O2-  O431  1  0.83089131  0.92610921  0.81977099  1
  O2-  O432  1  0.19484970  0.09428211  0.17754423  1
  O2-  O433  1  0.18430859  0.09098750  0.52043162  1
  O2-  O434  1  0.17205203  0.09577999  0.87389718  1
  O2-  O435  1  0.17590953  0.34017410  0.18824054  1
  O2-  O436  1  0.17064315  0.32798459  0.51627286  1
  O2-  O437  1  0.18042424  0.33817320  0.81229656  1
  O2-  O438  1  0.16334054  0.58525061  0.18058584  1
  O2-  O439  1  0.17864254  0.57757863  0.50666350  1
  O2-  O440  1  0.15786046  0.59507585  0.84455082  1
  O2-  O441  1  0.17586112  0.83309833  0.14150096  1
  O2-  O442  1  0.14490128  0.81610141  0.52109178  1
  O2-  O443  1  0.16683383  0.85226501  0.84130952  1
  O2-  O444  1  0.43022879  0.09388586  0.18607362  1
  O2-  O445  1  0.41430509  0.08743985  0.50008685  1
  O2-  O446  1  0.43313375  0.07642768  0.85292364  1
  O2-  O447  1  0.41786651  0.33678940  0.19251696  1
  O2-  O448  1  0.42171608  0.34112266  0.51499409  1
  O2-  O449  1  0.42514416  0.33102945  0.86437481  1
  O2-  O450  1  0.43083986  0.58274787  0.18216900  1
  O2-  O451  1  0.44213780  0.55366460  0.53202102  1
  O2-  O452  1  0.41327272  0.58375678  0.85783848  1
  O2-  O453  1  0.47274723  0.81592323  0.17790961  1
  O2-  O454  1  0.40981319  0.82778183  0.51561163  1
  O2-  O455  1  0.44259918  0.85231554  0.85851772  1
  O2-  O456  1  0.67694417  0.09940362  0.19054028  1
  O2-  O457  1  0.65478925  0.08268936  0.51619680  1
  O2-  O458  1  0.67933529  0.09140374  0.85637667  1
  O2-  O459  1  0.66615726  0.32960062  0.19311650  1
  O2-  O460  1  0.65947209  0.33235276  0.51528332  1
  O2-  O461  1  0.66536169  0.33306600  0.84872390  1
  O2-  O462  1  0.74577291  0.63499362  0.18801758  1
  O2-  O463  1  0.66360735  0.58176642  0.52971830  1
  O2-  O464  1  0.64963583  0.59728537  0.88031754  1
  O2-  O465  1  0.61822377  0.80368856  0.17038784  1
  O2-  O466  1  0.65300092  0.83775787  0.51332919  1
  O2-  O467  1  0.66504554  0.84166048  0.85457972  1
  O2-  O468  1  0.92713771  0.06709479  0.19803021  1
  O2-  O469  1  0.92139112  0.10120762  0.54006830  1
  O2-  O470  1  0.91383970  0.08996027  0.86066329  1
  O2-  O471  1  0.91839698  0.33060905  0.19603297  1
  O2-  O472  1  0.94488485  0.34708491  0.52373235  1
  O2-  O473  1  0.91858980  0.33495994  0.85461884  1
  O2-  O474  1  0.91729373  0.58738257  0.18496468  1
  O2-  O475  1  0.93021084  0.57101088  0.52261742  1
  O2-  O476  1  0.90926318  0.58504471  0.86939877  1
  O2-  O477  1  0.92182838  0.83681112  0.18150190  1
  O2-  O478  1  0.83921820  0.81271014  0.54342973  1
  O2-  O479  1  0.90821842  0.82727813  0.84561016  1
  O2-  O480  1  0.17075184  0.08960638  0.31702279  1
  O2-  O481  1  0.14429740  0.02689957  0.63764848  1
  O2-  O482  1  0.21422435  0.14406486  0.98641610  1
  O2-  O483  1  0.17118888  0.33361983  0.31301080  1
  O2-  O484  1  0.10252271  0.29519733  0.63794903  1
  O2-  O485  1  0.19454351  0.33348142  0.96985356  1
  O2-  O486  1  0.16488896  0.58365703  0.30686056  1
  O2-  O487  1  0.17439593  0.57403393  0.62696962  1
  O2-  O488  1  0.17354838  0.60846946  0.97009410  1
  O2-  O489  1  0.17235941  0.83613839  0.30691990  1
  O2-  O490  1  0.17266685  0.81330884  0.63920762  1
  O2-  O491  1  0.16918202  0.82668141  1.02174767  1
  O2-  O492  1  0.42013318  0.09129055  0.33086998  1
  O2-  O493  1  0.40701701  0.07970381  0.70192093  1
  O2-  O494  1  0.41045954  0.06816755  0.97485833  1
  O2-  O495  1  0.40926895  0.32258220  0.31307354  1
  O2-  O496  1  0.41617861  0.33520245  0.63778677  1
  O2-  O497  1  0.42399326  0.34070165  0.98815527  1
  O2-  O498  1  0.41561519  0.58231415  0.30708134  1
  O2-  O499  1  0.41972603  0.58560916  0.65031468  1
  O2-  O500  1  0.41260315  0.58423554  0.97869826  1
  O2-  O501  1  0.42724575  0.83805649  0.29868167  1
  O2-  O502  1  0.42308417  0.82970997  0.63778606  1
  O2-  O503  1  0.43449236  0.83383835  0.98415486  1
  O2-  O504  1  0.67914794  0.09154855  0.30287283  1
  O2-  O505  1  0.65744635  0.08215781  0.63940050  1
  O2-  O506  1  0.68608203  0.04920189  0.97986284  1
  O2-  O507  1  0.65307752  0.32065656  0.32180050  1
  O2-  O508  1  0.66182400  0.32886834  0.64291924  1
  O2-  O509  1  0.57589859  0.30565857  0.95959367  1
  O2-  O510  1  0.65018435  0.57456814  0.31062833  1
  O2-  O511  1  0.63714554  0.56732666  0.64755016  1
  O2-  O512  1  0.67614044  0.61038914  0.99438649  1
  O2-  O513  1  0.66799543  0.83099814  0.32009476  1
  O2-  O514  1  0.64816268  0.81178784  0.64066574  1
  O2-  O515  1  0.66156929  0.80931010  0.97134397  1
  O2-  O516  1  0.92623931  0.09956176  0.31916148  1
  O2-  O517  1  0.97983473  0.14155640  0.65598466  1
  O2-  O518  1  0.92002982  0.08345832  0.98450373  1
  O2-  O519  1  0.93156411  0.36254159  0.30944115  1
  O2-  O520  1  0.91455442  0.33743703  0.63890872  1
  O2-  O521  1  0.93593111  0.33218273  0.98089251  1
  O2-  O522  1  0.91375900  0.58331386  0.30593615  1
  O2-  O523  1  0.92072474  0.57112218  0.64617980  1
  O2-  O524  1  0.91717545  0.59594575  0.98647006  1
  O2-  O525  1  0.92521529  0.85180900  0.30742838  1
  O2-  O526  1  0.90273451  0.83027017  0.65319646  1
  O2-  O527  1  0.93007201  0.87950148  0.96515301  1
  O2-  O528  1  0.06303357  0.10297554  0.04336428  1
  O2-  O529  1  0.08724929  0.15821141  0.35356143  1
  O2-  O530  1  0.10140488  0.12642834  0.70714876  1
  O2-  O531  1  0.08305647  0.36842637  0.03316781  1
  O2-  O532  1  0.08657487  0.41508925  0.35451025  1
  O2-  O533  1  0.07250340  0.41592204  0.68452698  1
  O2-  O534  1  0.06415068  0.66159952  0.02274377  1
  O2-  O535  1  0.08531176  0.67158426  0.34735570  1
  O2-  O536  1  0.08024858  0.65748937  0.70267513  1
  O2-  O537  1  0.06631210  0.95342193  0.05014329  1
  O2-  O538  1  0.09349879  0.92838265  0.33737254  1
  O2-  O539  1  0.07175290  0.87384961  0.67156953  1
  O2-  O540  1  0.37563592  0.26320348  0.02511954  1
  O2-  O541  1  0.32886366  0.16348549  0.35445994  1
  O2-  O542  1  0.31910641  0.17525348  0.69361204  1
  O2-  O543  1  0.34150703  0.44134667  0.02167235  1
  O2-  O544  1  0.33579588  0.41657679  0.35060464  1
  O2-  O545  1  0.35374509  0.42883232  0.69351021  1
  O2-  O546  1  0.34313638  0.67501139  0.01889527  1
  O2-  O547  1  0.33521281  0.67056962  0.34139409  1
  O2-  O548  1  0.33822824  0.66508967  0.68080945  1
  O2-  O549  1  0.35314324  0.90570688  0.03323139  1
  O2-  O550  1  0.34221703  0.93002432  0.34981501  1
  O2-  O551  1  0.34009655  0.90887425  0.68133569  1
  O2-  O552  1  0.57223453  0.16968120  0.01463262  1
  O2-  O553  1  0.57094646  0.16922011  0.37554940  1
  O2-  O554  1  0.58020805  0.16312642  0.69106828  1
  O2-  O555  1  0.58182774  0.43540858  0.03186868  1
  O2-  O556  1  0.57653838  0.41194806  0.35486422  1
  O2-  O557  1  0.57314329  0.41108114  0.68174327  1
  O2-  O558  1  0.63539800  0.65559710  0.02272842  1
  O2-  O559  1  0.58043722  0.66667472  0.34702053  1
  O2-  O560  1  0.58277207  0.66081048  0.68879653  1
  O2-  O561  1  0.58400880  0.91757487  0.04668302  1
  O2-  O562  1  0.59059769  0.92870454  0.34614876  1
  O2-  O563  1  0.58624766  0.91437508  0.68668563  1
  O2-  O564  1  0.84650106  0.17538634  0.02598175  1
  O2-  O565  1  0.84689558  0.19207117  0.35349274  1
  O2-  O566  1  0.82750711  0.17422108  0.68413783  1
  O2-  O567  1  0.87159648  0.43195841  0.03418337  1
  O2-  O568  1  0.82033713  0.40850473  0.35203113  1
  O2-  O569  1  0.82495294  0.41134703  0.69166289  1
  O2-  O570  1  0.82464120  0.66108914  0.03031323  1
  O2-  O571  1  0.82716246  0.67731731  0.30194459  1
  O2-  O572  1  0.83071488  0.65508147  0.64444509  1
  O2-  O573  1  0.81791502  0.91517264  0.01471932  1
  O2-  O574  1  0.84352094  0.93643076  0.35965841  1
  O2-  O575  1  0.86631620  0.94518829  0.69752660  1
