# generated using pymatgen
data_H2O
_symmetry_space_group_name_H-M   'P 1'
_cell_length_a   17.97649412
_cell_length_b   17.97049708
_cell_length_c   21.96427132
_cell_angle_alpha   90.01603601
_cell_angle_beta   90.03234559
_cell_angle_gamma   120.05438323
_symmetry_Int_Tables_number   1
_chemical_formula_structural   H2O
_chemical_formula_sum   'H384 O192'
_cell_volume   6141.49500256
_cell_formula_units_Z   192
loop_
 _symmetry_equiv_pos_site_id
 _symmetry_equiv_pos_as_xyz
  1  'x, y, z'
loop_
 _atom_type_symbol
 _atom_type_oxidation_number
  H+  1.0
  O2-  -2.0
loop_
 _atom_site_type_symbol
 _atom_site_label
 _atom_site_symmetry_multiplicity
 _atom_site_fract_x
 _atom_site_fract_y
 _atom_site_fract_z
 _atom_site_occupancy
  H+  H0  1  0.36522420  0.04440339  0.35365506  1
  H+  H1  1  0.73031162  0.61249165  0.33305587  1
  H+  H2  1  0.71139366  0.34796161  0.66400584  1
  H+  H3  1  0.35783568  0.22882283  0.16338558  1
  H+  H4  1  0.63608791  0.11042169  0.99489001  1
  H+  H5  1  0.37744998  0.36117965  0.50086978  1
  H+  H6  1  0.38385341  0.61714886  0.50111247  1
  H+  H7  1  0.91714547  0.08977091  0.89154087  1
  H+  H8  1  0.78280659  0.15603302  0.48767422  1
  H+  H9  1  0.12922903  0.27607114  0.32528567  1
  H+  H10  1  0.77349453  0.36660406  0.83733335  1
  H+  H11  1  0.61224436  0.89312072  0.00319667  1
  H+  H12  1  0.60982938  0.21562686  0.01039677  1
  H+  H13  1  0.38654660  0.27797472  0.33299646  1
  H+  H14  1  0.06684285  0.88989492  0.16555953  1
  H+  H15  1  0.86656821  0.89722148  -0.00636386  1
  H+  H16  1  0.37167149  0.36094307  0.83152390  1
  H+  H17  1  0.54791655  0.51984082  0.97194832  1
  H+  H18  1  0.64059859  0.77475989  0.50282281  1
  H+  H19  1  0.51535008  0.37816415  0.15943914  1
  H+  H20  1  0.35570360  0.38848268  0.34234822  1
  H+  H21  1  0.62894461  0.09751764  0.84022448  1
  H+  H22  1  0.86169509  0.72548951  0.49046676  1
  H+  H23  1  0.88630779  0.74024432  0.82361488  1
  H+  H24  1  0.35611414  0.88491617  0.66057391  1
  H+  H25  1  0.14198972  0.73853029  0.98677658  1
  H+  H26  1  0.70815675  0.33641427  0.50085737  1
  H+  H27  1  0.38703463  0.50238442  0.81751673  1
  H+  H28  1  0.26702113  0.68357220  0.35119393  1
  H+  H29  1  0.57187605  0.10959312  0.15964029  1
  H+  H30  1  0.35890099  0.64270140  0.01127267  1
  H+  H31  1  0.78002782  0.89522484  0.66799278  1
  H+  H32  1  0.87973013  0.50567474  0.84586374  1
  H+  H33  1  0.58196613  0.41919956  0.58682318  1
  H+  H34  1  0.66590522  0.02308784  0.33024398  1
  H+  H35  1  0.34531756  0.96845216  0.81933151  1
  H+  H36  1  0.63744071  1.02308707  -0.00458999  1
  H+  H37  1  0.12051528  0.50827153  0.00951278  1
  H+  H38  1  0.89439198  0.27880073  0.99751253  1
  H+  H39  1  0.76833689  0.80077594  0.10192005  1
  H+  H40  1  0.02759535  0.14345562  0.15994352  1
  H+  H41  1  0.36280111  0.85483530  0.83915440  1
  H+  H42  1  0.26706905  0.38621316  0.49411992  1
  H+  H43  1  0.38372134  0.62142884  0.83802508  1
  H+  H44  1  0.86721343  0.59367375  0.50380518  1
  H+  H45  1  0.47172654  0.86605943  0.99405614  1
  H+  H46  1  0.85944255  0.63091537  0.33972573  1
  H+  H47  1  0.68090009  0.43358797  0.78633631  1
  H+  H48  1  0.76993607  0.63946857  0.48937721  1
  H+  H49  1  0.18815528  0.88840349  0.15903378  1
  H+  H50  1  0.26887610  0.87411532  -0.00071820  1
  H+  H51  1  0.49314523  0.39738324  0.81939627  1
  H+  H52  1  0.37550616  0.10662535  0.83607859  1
  H+  H53  1  0.12159671  0.14305319  0.15895721  1
  H+  H54  1  0.10170936  0.38656765  0.01238073  1
  H+  H55  1  0.91076300  0.10254868  0.67600487  1
  H+  H56  1  0.62013801  0.89495904  0.16246593  1
  H+  H57  1  0.62663140  0.53060634  0.64631118  1
  H+  H58  1  0.45027013  0.09727528  0.16712991  1
  H+  H59  1  0.01359321  0.62364003  0.82317759  1
  H+  H60  1  0.47640601  0.36472582  0.33264589  1
  H+  H61  1  0.13176110  0.02027274  0.83655924  1
  H+  H62  1  0.72381206  0.35855190  0.16870549  1
  H+  H63  1  0.88302305  0.86510563  0.65654107  1
  H+  H64  1  -0.02167425  0.86481338  -0.00824305  1
  H+  H65  1  0.02040549  0.64653793  0.33842672  1
  H+  H66  1  0.78005145  0.90193079  -0.00493360  1
  H+  H67  1  0.11891025  0.88784777  0.00551308  1
  H+  H68  1  0.98857332  0.37094847  1.00158215  1
  H+  H69  1  0.35684072  0.72995385  0.01364242  1
  H+  H70  1  0.21833470  0.86819383  0.33850695  1
  H+  H71  1  0.69338872  0.08814266  0.24360512  1
  H+  H72  1  1.01399630  0.88567347  0.66804904  1
  H+  H73  1  0.87208516  0.27446345  0.66319030  1
  H+  H74  1  -0.00795184  0.61900701  0.66699009  1
  H+  H75  1  0.76682440  0.13025880  0.82552962  1
  H+  H76  1  0.13867006  0.35895110  0.84560587  1
  H+  H77  1  0.63725029  0.78422297  0.65635917  1
  H+  H78  1  0.91758398  0.83503803  0.89707710  1
  H+  H79  1  0.13232289  0.02227244  0.33019445  1
  H+  H80  1  0.68392151  0.45050293  0.81824546  1
  H+  H81  1  0.88665423  0.60625589  0.17597106  1
  H+  H82  1  0.83124029  0.66404456  0.39932011  1
  H+  H83  1  0.34796166  0.92913883  0.44692083  1
  H+  H84  1  0.93997197  1.00333608  0.16168890  1
  H+  H85  1  0.68441193  0.14558924  0.19249619  1
  H+  H86  1  0.89271807  0.52141770  0.17406499  1
  H+  H87  1  0.38495969  0.53421346  -0.00352730  1
  H+  H88  1  0.10858759  0.61902984  1.01394138  1
  H+  H89  1  0.64100255  0.79209656  0.83885453  1
  H+  H90  1  0.08517525  0.66712683  0.06797293  1
  H+  H91  1  0.14810727  0.38101795  0.16963132  1
  H+  H92  1  1.02890938  0.42697987  0.37059782  1
  H+  H93  1  0.47081839  0.60917399  0.33038228  1
  H+  H94  1  0.88324346  0.59690502  0.84548654  1
  H+  H95  1  0.87277709  0.38808431  0.33873706  1
  H+  H96  1  0.21307861  0.10492397  0.50858832  1
  H+  H97  1  0.56040391  0.91587353  0.71189956  1
  H+  H98  1  0.60627000  0.37889936  0.15872185  1
  H+  H99  1  0.56216533  0.11642440  0.37101845  1
  H+  H100  1  0.38030233  0.31923239  0.89304206  1
  H+  H101  1  0.13148651  0.26467565  0.66041315  1
  H+  H102  1  0.38281727  0.76418948  0.49769282  1
  H+  H103  1  0.38439232  0.86877032  0.99758167  1
  H+  H104  1  0.89360220  0.02138281  0.32380369  1
  H+  H105  1  0.86079830  0.59850467  0.65926780  1
  H+  H106  1  0.61906186  0.53329835  0.83471189  1
  H+  H107  1  0.79961155  0.83896206  0.12043017  1
  H+  H108  1  0.61210063  0.01998077  0.64170965  1
  H+  H109  1  0.73309187  0.87574528  0.83882875  1
  H+  H110  1  0.48169459  0.86499371  0.17411748  1
  H+  H111  1  0.39958333  0.83129726  0.89921427  1
  H+  H112  1  0.26283126  0.12951758  0.82185451  1
  H+  H113  1  0.47230690  0.62632952  -0.00601812  1
  H+  H114  1  0.83945757  0.91928206  0.39707366  1
  H+  H115  1  1.02305889  0.13608882  0.82311893  1
  H+  H116  1  0.13923685  0.52289198  0.17558602  1
  H+  H117  1  0.87254583  0.38262159  0.00932707  1
  H+  H118  1  0.84970185  0.38047697  0.67833178  1
  H+  H119  1  0.39401901  0.77528001  0.18011477  1
  H+  H120  1  0.02549651  0.89143456  0.34868053  1
  H+  H121  1  0.51317525  0.38528647  0.63936201  1
  H+  H122  1  0.64167476  0.33654897  0.85611860  1
  H+  H123  1  0.60450293  0.65051526  0.00489368  1
  H+  H124  1  0.86569970  0.46916885  0.01113833  1
  H+  H125  1  0.62161343  0.88757798  0.34033764  1
  H+  H126  1  0.60236396  0.88992642  0.65697597  1
  H+  H127  1  0.54020052  0.90188002  0.33706419  1
  H+  H128  1  0.88785994  1.02796091  0.83257322  1
  H+  H129  1  0.60975454  0.65265659  0.82660180  1
  H+  H130  1  0.61259729  0.63881354  0.34299417  1
  H+  H131  1  0.12948825  0.78919443  0.32199273  1
  H+  H132  1  0.51797800  0.37960524  0.50036252  1
  H+  H133  1  0.35061130  0.39402505  1.00931865  1
  H+  H134  1  0.14308843  0.61342713  0.17844416  1
  H+  H135  1  0.60388772  0.20408668  0.83210072  1
  H+  H136  1  0.86740110  0.88481139  0.33877942  1
  H+  H137  1  0.88519595  0.11188964  0.51630480  1
  H+  H138  1  0.35855887  0.90147685  0.35028304  1
  H+  H139  1  0.10935480  0.90000997  0.66030741  1
  H+  H140  1  0.22404873  0.10717371  0.65836475  1
  H+  H141  1  0.10702035  0.88216841  0.82205051  1
  H+  H142  1  0.21760197  0.60490804  0.82532803  1
  H+  H143  1  0.55547079  0.20548822  0.48349294  1
  H+  H144  1  0.88614778  0.26912023  0.84503389  1
  H+  H145  1  0.86493438  0.13762828  0.00432257  1
  H+  H146  1  -0.02260864  0.60613978  0.00017855  1
  H+  H147  1  0.86170969  0.38327461  0.16435897  1
  H+  H148  1  0.84225490  0.45676493  0.49561089  1
  H+  H149  1  0.87701391  0.23309725  0.49710046  1
  H+  H150  1  0.09595292  0.36703510  0.67651303  1
  H+  H151  1  0.11292604  0.13689755  0.34366295  1
  H+  H152  1  0.85827903  0.50736040  0.66522003  1
  H+  H153  1  0.81193626  0.68131136  0.19406668  1
  H+  H154  1  0.95182488  0.88113645  0.17533508  1
  H+  H155  1  0.37647461  0.36184849  0.65566790  1
  H+  H156  1  0.27526685  0.39262683  0.16325961  1
  H+  H157  1  0.38008434  0.11002772  0.66688873  1
  H+  H158  1  0.60618594  0.37304607  0.50196364  1
  H+  H159  1  0.72386841  0.85835574  0.17711534  1
  H+  H160  1  0.97751791  0.86818757  0.83725900  1
  H+  H161  1  0.36728112  0.47908339  0.16368804  1
  H+  H162  1  0.76099349  0.63948032  0.67048450  1
  H+  H163  1  0.65395399  0.13576081  0.46113580  1
  H+  H164  1  0.22444720  0.36786819  0.99806619  1
  H+  H165  1  0.63588395  0.52681237  0.50787189  1
  H+  H166  1  0.15544138  0.67950992  0.48144216  1
  H+  H167  1  0.08435198  0.70130715  0.65922350  1
  H+  H168  1  0.11820924  0.13819247  0.67254102  1
  H+  H169  1  0.32600957  0.70737609  0.41092060  1
  H+  H170  1  0.91643009  0.57377928  0.94144810  1
  H+  H171  1  0.25584789  0.87935336  0.81524924  1
  H+  H172  1  0.87244669  0.63983770  0.00840392  1
  H+  H173  1  0.62332891  0.98493389  0.16269228  1
  H+  H174  1  0.88886065  0.76870701  0.33013380  1
  H+  H175  1  0.62634936  0.35201514  0.64770890  1
  H+  H176  1  0.47787512  0.11219624  0.66895231  1
  H+  H177  1  0.39256024  0.91050435  0.50125819  1
  H+  H178  1  0.08662918  0.44217957  0.45741527  1
  H+  H179  1  0.37858436  0.01310302  0.66391256  1
  H+  H180  1  1.02527071  1.00615805  0.14622313  1
  H+  H181  1  0.60265851  0.44388320  0.00175560  1
  H+  H182  1  0.33885856  0.25400793  -0.01261210  1
  H+  H183  1  0.79028338  0.13445240  0.16258334  1
  H+  H184  1  0.13913385  0.49639217  0.65928268  1
  H+  H185  1  0.96628898  0.35864155  0.66748574  1
  H+  H186  1  0.88955943  0.02892148  0.98401436  1
  H+  H187  1  0.38726785  0.52885282  0.50477014  1
  H+  H188  1  0.13304716  0.02162639  0.99117486  1
  H+  H189  1  0.89138762  0.77474436  0.99160173  1
  H+  H190  1  0.37590483  0.02348240  0.99381489  1
  H+  H191  1  0.35999527  0.22439284  0.66972149  1
  H+  H192  1  0.02334992  0.12680287  0.66928415  1
  H+  H193  1  0.97382172  0.86006900  0.50493388  1
  H+  H194  1  0.78404766  0.38953927  0.33667875  1
  H+  H195  1  0.39948832  0.81256851  0.33163949  1
  H+  H196  1  0.88545559  0.14005525  0.34495668  1
  H+  H197  1  0.82233240  0.13156803  0.66582923  1
  H+  H198  1  0.92084237  0.27410395  0.33149401  1
  H+  H199  1  0.97710236  0.11992670  0.98740328  1
  H+  H200  1  0.13546242  0.63071446  0.32555713  1
  H+  H201  1  -0.01561685  0.11079708  0.32800916  1
  H+  H202  1  0.11961969  0.22957595  0.00948837  1
  H+  H203  1  0.65519561  0.57067835  0.07289450  1
  H+  H204  1  0.11797608  0.51635175  0.36733434  1
  H+  H205  1  0.47336555  -0.01123412  0.29281949  1
  H+  H206  1  0.71510598  0.60936142  0.84635481  1
  H+  H207  1  0.13828772  0.27086399  0.84436333  1
  H+  H208  1  0.57918842  0.67615915  0.72893649  1
  H+  H209  1  0.46133607  0.85870443  0.64742485  1
  H+  H210  1  0.10834653  0.38160328  0.50905455  1
  H+  H211  1  0.81018201  0.16248646  0.73166398  1
  H+  H212  1  0.75994272  0.61966066  0.14130101  1
  H+  H213  1  0.61003539  0.63767663  0.14235065  1
  H+  H214  1  1.01475848  0.38750609  0.51370079  1
  H+  H215  1  0.29922551  0.81767693  0.38312016  1
  H+  H216  1  0.14285662  0.76025729  0.48582743  1
  H+  H217  1  0.10395490  0.13800088  0.49660529  1
  H+  H218  1  0.10520857  -0.02516463  0.49899172  1
  H+  H219  1  0.64067826  0.79215088  0.98978531  1
  H+  H220  1  0.88055968  0.77396946  0.65545852  1
  H+  H221  1  0.07255557  0.40073074  0.73750373  1
  H+  H222  1  0.88937696  0.52206436  0.33034846  1
  H+  H223  1  0.58678024  0.96007594  0.81283154  1
  H+  H224  1  0.35824314  0.47867208  0.34244475  1
  H+  H225  1  0.38469919  0.36528461  0.17526380  1
  H+  H226  1  0.12363046  0.27149914  0.50750057  1
  H+  H227  1  0.08740793  0.16715108  0.09069035  1
  H+  H228  1  0.24621717  0.63322368  0.50388550  1
  H+  H229  1  0.35665553  0.13725460  0.00681405  1
  H+  H230  1  0.35878257  0.47857139  0.65945739  1
  H+  H231  1  0.11299798  0.13566575  1.00748551  1
  H+  H232  1  1.02966074  0.39427079  0.15867267  1
  H+  H233  1  0.23474580  0.89740387  0.62746375  1
  H+  H234  1  0.40174637  0.06407987  0.37624860  1
  H+  H235  1  0.47510387  0.85033790  0.50229214  1
  H+  H236  1  0.12050453  0.76181907  0.82660586  1
  H+  H237  1  0.63466628  0.56730609  0.93615704  1
  H+  H238  1  0.57489972  0.38802576  1.06155530  1
  H+  H239  1  0.42283553  0.04636316  0.49721705  1
  H+  H240  1  0.27530493  0.63637923  0.16964001  1
  H+  H241  1  0.30176833  0.60028234  0.44093257  1
  H+  H242  1  0.89285078  0.27212110  0.17275142  1
  H+  H243  1  0.35615655  0.72256378  0.66681978  1
  H+  H244  1  0.21780472  0.35845294  0.65850357  1
  H+  H245  1  0.86621590  0.88972138  0.49126235  1
  H+  H246  1  0.59225959  0.12365694  0.66562034  1
  H+  H247  1  0.35526520  0.13831849  0.36554389  1
  H+  H248  1  0.41388398  0.59269405  0.89889554  1
  H+  H249  1  0.93512115  0.09391290  0.23375169  1
  H+  H250  1  0.65163028  0.37289611  0.32877178  1
  H+  H251  1  0.69584537  0.11209961  0.64813427  1
  H+  H252  1  0.13155724  0.87472383  0.53164309  1
  H+  H253  1  0.35148557  0.72290055  0.82479128  1
  H+  H254  1  0.86678985  0.37703136  0.83349983  1
  H+  H255  1  0.34962418  0.22034064  0.82079402  1
  H+  H256  1  0.27735913  0.62429690  0.66915242  1
  H+  H257  1  0.46149213  0.10022187  0.83839602  1
  H+  H258  1  0.61388065  0.72704646  0.16176927  1
  H+  H259  1  0.85826413  0.13519322  0.81951454  1
  H+  H260  1  0.73648501  0.35006660  1.00119110  1
  H+  H261  1  0.47394645  0.61450238  0.17446615  1
  H+  H262  1  0.15648746  0.32824665  0.56906163  1
  H+  H263  1  0.90280994  0.11948053  0.17160457  1
  H+  H264  1  0.22611111  0.12176025  0.17450871  1
  H+  H265  1  0.16988726  0.58939370  0.27615758  1
  H+  H266  1  0.11174130  0.47054924  0.82201018  1
  H+  H267  1  0.63271447  0.27018067  0.17185066  1
  H+  H268  1  1.02515292  0.37963681  0.83053015  1
  H+  H269  1  0.75905177  0.11347482  0.33092452  1
  H+  H270  1  0.03795422  0.65126160  0.16653550  1
  H+  H271  1  0.64038631  0.77215026  0.32822054  1
  H+  H272  1  0.22010520  0.11225387  0.32999474  1
  H+  H273  1  0.88469904  0.36406654  0.51019196  1
  H+  H274  1  0.38881498  0.61654836  0.65588445  1
  H+  H275  1  0.77572789  0.13703229  0.00919694  1
  H+  H276  1  0.61248657  0.47522276  0.35054491  1
  H+  H277  1  0.13274345  0.73558027  0.16015431  1
  H+  H278  1  0.60753441  0.63755375  0.49066203  1
  H+  H279  1  0.59520933  0.21517573  0.67296998  1
  H+  H280  1  0.51909546  0.64024742  0.49144633  1
  H+  H281  1  0.65196336  0.12920391  0.35922779  1
  H+  H282  1  0.36543923  0.10045955  0.17693567  1
  H+  H283  1  0.60950139  0.88097805  0.49486565  1
  H+  H284  1  0.32502021  0.15628816  0.55988036  1
  H+  H285  1  0.86583642  0.89226122  0.82185304  1
  H+  H286  1  0.82800692  0.66971030  0.72728627  1
  H+  H287  1  0.51546208  0.13075698  1.00538784  1
  H+  H288  1  0.38435778  0.61282897  0.17695799  1
  H+  H289  1  0.15862666  0.81397275  0.88794070  1
  H+  H290  1  0.32543936  0.16807262  0.10370707  1
  H+  H291  1  0.93188553  0.78410086  0.16807906  1
  H+  H292  1  0.67765701  0.34585165  0.26674582  1
  H+  H293  1  0.85152079  0.67915914  0.06545782  1
  H+  H294  1  0.37933756  0.27150024  0.50795707  1
  H+  H295  1  0.93199373  0.82914205  0.27223113  1
  H+  H296  1  0.41184428  0.57833748  0.27190585  1
  H+  H297  1  0.16786279  0.32765501  0.93551278  1
  H+  H298  1  0.66474512  0.07378814  0.89871939  1
  H+  H299  1  0.82638702  0.40002468  0.43597411  1
  H+  H300  1  0.37398792  0.13533355  0.51029313  1
  H+  H301  1  0.06184852  0.65541352  0.75800349  1
  H+  H302  1  0.33454284  0.42839005  0.07264350  1
  H+  H303  1  0.13121892  0.10975208  0.83659752  1
  H+  H304  1  0.16309824  0.08742725  0.23370361  1
  H+  H305  1  0.20824771  0.66062079  0.56065433  1
  H+  H306  1  0.33912270  0.42827908  0.72134783  1
  H+  H307  1  0.17378783  0.54653287  0.59592677  1
  H+  H308  1  0.32482731  0.41528261  0.43346637  1
  H+  H309  1  0.87670980  0.98228806  0.66773074  1
  H+  H310  1  0.45159386  0.05393178  0.26231722  1
  H+  H311  1  0.91520871  0.57946753  0.26962927  1
  H+  H312  1  0.08140475  0.42162095  0.09433801  1
  H+  H313  1  0.08483673  0.16501749  0.76488211  1
  H+  H314  1  0.65305946  0.30748002  0.56146336  1
  H+  H315  1  0.58329315  0.92041188  0.06458064  1
  H+  H316  1  0.66840923  0.83180225  0.23830528  1
  H+  H317  1  0.44254836  0.46884349  0.78533151  1
  H+  H318  1  0.85739272  0.17421571  0.40492448  1
  H+  H319  1  0.31934685  0.17488342  0.41375877  1
  H+  H320  1  0.16011547  0.08048894  0.93094751  1
  H+  H321  1  0.57979648  0.68444397  0.06425395  1
  H+  H322  1  0.21157733  0.60118059  1.01098960  1
  H+  H323  1  0.32831583  0.16384622  0.72974113  1
  H+  H324  1  0.21159826  0.36736544  0.32789721  1
  H+  H325  1  0.11724702  0.89612738  0.34562993  1
  H+  H326  1  0.86582796  -0.02112212  0.49500696  1
  H+  H327  1  0.17101307  0.34841926  0.23055448  1
  H+  H328  1  0.67016393  0.84017367  0.59587953  1
  H+  H329  1  0.64426765  0.34735117  0.99811511  1
  H+  H330  1  0.33117819  -0.04069960  0.16303584  1
  H+  H331  1  0.88585700  0.55875425  0.56487174  1
  H+  H332  1  0.39889007  0.82226126  0.59074865  1
  H+  H333  1  0.67159819  0.85111188  0.92944761  1
  H+  H334  1  0.40524426  0.08031109  0.93347747  1
  H+  H335  1  0.14210411  0.98717650  0.16119033  1
  H+  H336  1  0.13020897  0.02178102  0.65977725  1
  H+  H337  1  0.31148517  0.91066602  0.06459491  1
  H+  H338  1  0.65486657  0.10795461  0.53101424  1
  H+  H339  1  0.08550029  0.91543386  0.44063568  1
  H+  H340  1  0.92483966  0.33009307  0.23282177  1
  H+  H341  1  0.07925643  0.16593929  0.40249337  1
  H+  H342  1  0.07855159  0.91478270  0.76285361  1
  H+  H343  1  0.56544929  0.15309177  0.09835485  1
  H+  H344  1  0.40012161  0.32854028  0.59519953  1
  H+  H345  1  0.33316771  0.66830734  0.10934803  1
  H+  H346  1  0.93237659  0.70143180  0.78580891  1
  H+  H347  1  0.91774566  0.08027308  0.57577022  1
  H+  H348  1  0.62816206  0.62125272  0.65787443  1
  H+  H349  1  0.67174849  0.30610162  0.91393566  1
  H+  H350  1  0.55035836  0.42779271  0.75927013  1
  H+  H351  1  0.58125994  0.67097868  0.39998119  1
  H+  H352  1  0.15470395  0.07936214  0.56701582  1
  H+  H353  1  0.73084974  0.86443473  0.50166791  1
  H+  H354  1  0.43327736  0.85118570  0.26449755  1
  H+  H355  1  0.27612879  0.28219726  0.95856779  1
  H+  H356  1  0.12824197  0.60325809  0.82196699  1
  H+  H357  1  0.92025642  0.32958152  0.90573463  1
  H+  H358  1  0.26352438  0.12838384  0.00760722  1
  H+  H359  1  0.57055795  0.15060916  0.76960918  1
  H+  H360  1  0.58358179  0.41302084  0.40774351  1
  H+  H361  1  0.41508111  0.33474933  0.23467739  1
  H+  H362  1  0.10211334  0.92125143  0.06769784  1
  H+  H363  1  0.32160920  0.91052548  0.72115787  1
  H+  H364  1  0.73211876  0.86129867  0.32713182  1
  H+  H365  1  0.83784215  0.92133489  0.76101050  1
  H+  H366  1  0.49191813  0.88055532  0.81105700  1
  H+  H367  1  0.01398618  0.13550491  0.49877034  1
  H+  H368  1  0.66338219  0.57530542  0.27775110  1
  H+  H369  1  0.91309409  0.33819141  0.57338726  1
  H+  H370  1  0.84387942  0.16413458  0.09981140  1
  H+  H371  1  0.52028575  0.64269022  0.66840240  1
  H+  H372  1  0.81835559  0.40283662  0.74003894  1
  H+  H373  1  1.01437233  0.33738841  0.30676493  1
  H+  H374  1  0.41852858  0.58923044  0.59457932  1
  H+  H375  1  0.91159518  0.83105874  0.56245775  1
  H+  H376  1  0.83601749  0.41258683  0.10308801  1
  H+  H377  1  0.62430097  0.50808927  0.12966018  1
  H+  H378  1  0.66579702  0.59490343  0.56207330  1
  H+  H379  1  0.58145734  0.91250181  0.43656431  1
  H+  H380  1  0.52112322  0.65219489  0.82645334  1
  H+  H381  1  0.22087283  0.76331961  0.94374081  1
  H+  H382  1  0.33371236  0.66721684  0.76326574  1
  H+  H383  1  0.09619316  0.69216363  0.38948047  1
  O2-  O384  1  0.08811378  0.16880682  0.13957716  1
  O2-  O385  1  0.07417597  0.16861776  0.48142454  1
  O2-  O386  1  0.08487625  0.16300505  0.81066967  1
  O2-  O387  1  0.08867126  0.42641492  0.14234727  1
  O2-  O388  1  0.07997797  0.41921634  0.50212509  1
  O2-  O389  1  0.08329828  0.40668777  0.81181067  1
  O2-  O390  1  0.09590301  0.67471193  0.14827646  1
  O2-  O391  1  0.13961514  0.71697356  0.45764361  1
  O2-  O392  1  0.07022691  0.66105173  0.80350367  1
  O2-  O393  1  0.12223617  0.92863800  0.14418806  1
  O2-  O394  1  0.08118028  0.91349558  0.48631417  1
  O2-  O395  1  0.07921683  0.91575819  0.80846793  1
  O2-  O396  1  0.32353500  0.16739699  0.14920636  1
  O2-  O397  1  0.33123247  0.15721948  0.51566182  1
  O2-  O398  1  0.32334108  0.15994324  0.80552566  1
  O2-  O399  1  0.33729157  0.41874930  0.14749066  1
  O2-  O400  1  0.32738331  0.41405056  0.47957272  1
  O2-  O401  1  0.38224115  0.45227424  0.79334497  1
  O2-  O402  1  0.33628767  0.66702677  0.15482603  1
  O2-  O403  1  0.32547104  0.64742252  0.47030614  1
  O2-  O404  1  0.32906413  0.66336130  0.80873673  1
  O2-  O405  1  0.30161140  0.90201325  0.14139667  1
  O2-  O406  1  0.37409644  0.95147113  0.48775655  1
  O2-  O407  1  0.31691558  0.90963888  0.80095840  1
  O2-  O408  1  0.56127785  0.15449658  0.14450190  1
  O2-  O409  1  0.50287117  0.16358254  0.46099658  1
  O2-  O410  1  0.56785832  0.14526272  0.81471734  1
  O2-  O411  1  0.57361436  0.40474514  0.13980877  1
  O2-  O412  1  0.58201893  0.41291885  0.49628252  1
  O2-  O413  1  0.53720318  0.44906238  0.79615801  1
  O2-  O414  1  0.57957888  0.67073943  0.14038195  1
  O2-  O415  1  0.57990749  0.67024718  0.47546217  1
  O2-  O416  1  0.58039104  0.68111370  0.80832227  1
  O2-  O417  1  0.59235729  0.92622987  0.14544873  1
  O2-  O418  1  0.57289436  0.90468300  0.48120334  1
  O2-  O419  1  0.54389351  0.91531750  0.78605107  1
  O2-  O420  1  0.84972192  0.16536348  0.14576884  1
  O2-  O421  1  0.84566900  0.17348757  0.48082502  1
  O2-  O422  1  0.82544906  0.16423811  0.80660475  1
  O2-  O423  1  0.83236089  0.41435071  0.14878612  1
  O2-  O424  1  0.81880330  0.39514531  0.48093848  1
  O2-  O425  1  0.83140916  0.40346715  0.81924836  1
  O2-  O426  1  0.82032841  0.65544590  0.15760070  1
  O2-  O427  1  0.83002562  0.66539025  0.47391821  1
  O2-  O428  1  0.87573012  0.68512017  0.80232775  1
  O2-  O429  1  0.96326762  0.96759866  0.14527363  1
  O2-  O430  1  0.83711029  0.92080962  0.47512021  1
  O2-  O431  1  0.83828449  0.92477886  0.80679910  1
  O2-  O432  1  0.16336842  0.08887937  0.18784455  1
  O2-  O433  1  0.15240904  0.07952201  0.52110370  1
  O2-  O434  1  0.16263611  0.08028191  0.85300645  1
  O2-  O435  1  0.18038962  0.35344567  0.18580275  1
  O2-  O436  1  0.15468517  0.33241454  0.52310894  1
  O2-  O437  1  0.16751580  0.32874675  0.86326976  1
  O2-  O438  1  0.17045962  0.58170104  0.19533519  1
  O2-  O439  1  0.18958936  0.62316690  0.52512402  1
  O2-  O440  1  0.15579126  0.57068292  0.83600371  1
  O2-  O441  1  0.21652777  0.85419641  0.16943764  1
  O2-  O442  1  0.15494555  0.84567488  0.55855450  1
  O2-  O443  1  0.15198795  0.82218236  0.84390454  1
  O2-  O444  1  0.39185062  0.06428580  0.18507502  1
  O2-  O445  1  0.44615482  0.11071504  0.51044014  1
  O2-  O446  1  0.40062172  0.07244218  0.85296305  1
  O2-  O447  1  0.41393118  0.33265454  0.18920865  1
  O2-  O448  1  0.41035541  0.33375399  0.51792841  1
  O2-  O449  1  0.39464382  0.32484385  0.84858440  1
  O2-  O450  1  0.41486615  0.58156044  0.19092602  1
  O2-  O451  1  0.41849629  0.58966616  0.51847295  1
  O2-  O452  1  0.41824700  0.59480428  0.85344859  1
  O2-  O453  1  0.42497978  0.83606923  0.19418088  1
  O2-  O454  1  0.41247825  0.82193886  0.51600620  1
  O2-  O455  1  0.39303178  0.82463688  0.85411317  1
  O2-  O456  1  0.68908091  0.09415122  0.19701269  1
  O2-  O457  1  0.69012738  0.14541694  0.49804221  1
  O2-  O458  1  0.66377103  0.07137487  0.85328467  1
  O2-  O459  1  0.66319965  0.33137481  0.18413323  1
  O2-  O460  1  0.64798807  0.31093745  0.51669203  1
  O2-  O461  1  0.66834038  0.30275270  0.86724451  1
  O2-  O462  1  0.65759257  0.57124777  0.11752416  1
  O2-  O463  1  0.66468558  0.58941606  0.51664393  1
  O2-  O464  1  0.65566896  0.58617728  0.85944104  1
  O2-  O465  1  0.66477446  0.83078168  0.19180350  1
  O2-  O466  1  0.67152159  0.83477334  0.51900869  1
  O2-  O467  1  0.67506726  0.84956739  0.85746556  1
  O2-  O468  1  0.94034747  0.09680544  0.18793074  1
  O2-  O469  1  0.91530702  0.08057067  0.52913734  1
  O2-  O470  1  0.91715259  0.08975618  0.84587329  1
  O2-  O471  1  0.91636614  0.33192604  0.18839223  1
  O2-  O472  1  0.92100144  0.34061866  0.52790101  1
  O2-  O473  1  0.91832810  0.32959436  0.85958443  1
  O2-  O474  1  0.92220929  0.58187843  0.19006082  1
  O2-  O475  1  0.88589036  0.55421645  0.51985632  1
  O2-  O476  1  0.91242328  0.56670580  0.86111024  1
  O2-  O477  1  0.96288858  0.83547435  0.19334131  1
  O2-  O478  1  0.91164403  0.83008929  0.51679223  1
  O2-  O479  1  0.91619796  0.83425076  0.85126600  1
  O2-  O480  1  0.16169562  0.08238288  0.31212686  1
  O2-  O481  1  0.16437336  0.08128388  0.64244363  1
  O2-  O482  1  0.16099782  0.08229288  0.97680662  1
  O2-  O483  1  0.15260976  0.33581109  0.31070506  1
  O2-  O484  1  0.15702040  0.32541863  0.64417613  1
  O2-  O485  1  0.16837095  0.32225241  0.98185337  1
  O2-  O486  1  0.16983156  0.60076411  0.32067301  1
  O2-  O487  1  0.18497251  0.54980453  0.63981237  1
  O2-  O488  1  0.15131017  0.57298432  0.99730741  1
  O2-  O489  1  0.16394555  0.85285079  0.31675881  1
  O2-  O490  1  0.18915498  0.90671884  0.60965861  1
  O2-  O491  1  0.18738037  0.78818932  0.95972469  1
  O2-  O492  1  0.49271824  0.05018681  0.28968186  1
  O2-  O493  1  0.41182124  0.07903909  0.65378751  1
  O2-  O494  1  0.40805113  0.08424658  0.97893748  1
  O2-  O495  1  0.41693411  0.33642356  0.31537853  1
  O2-  O496  1  0.40431397  0.32834645  0.64079525  1
  O2-  O497  1  0.33724368  0.30192175  0.96452531  1
  O2-  O498  1  0.41019242  0.57534274  0.31709845  1
  O2-  O499  1  0.41841070  0.58526939  0.64037856  1
  O2-  O500  1  0.41248922  0.59310965  0.97795074  1
  O2-  O501  1  0.44081929  0.86661838  0.30984036  1
  O2-  O502  1  0.39848316  0.82714872  0.63656391  1
  O2-  O503  1  0.41027647  0.83559299  0.98038946  1
  O2-  O504  1  0.70008722  0.08291354  0.31276403  1
  O2-  O505  1  0.63730005  0.08246470  0.63066441  1
  O2-  O506  1  0.66980882  0.08392279  0.97996118  1
  O2-  O507  1  0.68978913  0.35399830  0.31091590  1
  O2-  O508  1  0.65274187  0.31506807  0.64503432  1
  O2-  O509  1  0.67559140  0.31629194  0.98511018  1
  O2-  O510  1  0.66646447  0.58069338  0.32190494  1
  O2-  O511  1  0.66112559  0.59391151  0.64078064  1
  O2-  O512  1  0.61001630  0.55257789  0.97833205  1
  O2-  O513  1  0.67180434  0.83232658  0.31108517  1
  O2-  O514  1  0.66817830  0.84452914  0.64138360  1
  O2-  O515  1  0.67116497  0.85285826  0.97599061  1
  O2-  O516  1  0.92489740  0.08253612  0.30943362  1
  O2-  O517  1  0.93003887  0.07372537  0.64808833  1
  O2-  O518  1  0.91855566  0.09184481  0.97016191  1
  O2-  O519  1  0.95824323  0.33301418  0.31275924  1
  O2-  O520  1  0.90660705  0.33542679  0.64987230  1
  O2-  O521  1  0.92382379  0.33841065  0.98159465  1
  O2-  O522  1  0.91304702  0.58229139  0.31500700  1
  O2-  O523  1  0.88859845  0.56527875  0.64565413  1
  O2-  O524  1  0.91543564  0.57641880  0.98671086  1
  O2-  O525  1  0.92062343  0.83013351  0.31633077  1
  O2-  O526  1  0.91375548  0.83439268  0.64063345  1
  O2-  O527  1  0.91990232  0.83475589  0.97424680  1
  O2-  O528  1  0.08645329  0.16789681  0.02609144  1
  O2-  O529  1  0.08098758  0.16625276  0.35689653  1
  O2-  O530  1  0.08523883  0.16566569  0.68700210  1
  O2-  O531  1  0.07056804  0.41451511  0.02743626  1
  O2-  O532  1  0.08063369  0.46546150  0.39397256  1
  O2-  O533  1  0.06650835  0.39808367  0.69149837  1
  O2-  O534  1  0.08064176  0.65824779  0.02310155  1
  O2-  O535  1  0.08355486  0.68257889  0.34461917  1
  O2-  O536  1  0.05245794  0.64916031  0.68307143  1
  O2-  O537  1  0.09172797  0.91847085  0.02254987  1
  O2-  O538  1  0.08583927  0.92625495  0.36326165  1
  O2-  O539  1  0.07452753  0.91807947  0.68469085  1
  O2-  O540  1  0.32361084  0.16434693  0.02321362  1
  O2-  O541  1  0.32547863  0.17127704  0.36978164  1
  O2-  O542  1  0.33226233  0.16310677  0.68380606  1
  O2-  O543  1  0.33264897  0.43332368  0.02672999  1
  O2-  O544  1  0.32480906  0.41708729  0.35832133  1
  O2-  O545  1  0.32855932  0.41852718  0.67657980  1
  O2-  O546  1  0.32936921  0.67084213  0.03095721  1
  O2-  O547  1  0.31594216  0.73254961  0.37273973  1
  O2-  O548  1  0.33681335  0.66479810  0.68513216  1
  O2-  O549  1  0.32301832  0.91758030  0.01972529  1
  O2-  O550  1  0.30895379  0.87751126  0.37796074  1
  O2-  O551  1  0.32855596  0.91893179  0.67592538  1
  O2-  O552  1  0.57359566  0.15443216  0.02432674  1
  O2-  O553  1  0.62002141  0.14447151  0.38862241  1
  O2-  O554  1  0.56356584  0.15372373  0.68759961  1
  O2-  O555  1  0.58196932  0.38533889  0.01673638  1
  O2-  O556  1  0.58149445  0.41357098  0.36277563  1
  O2-  O557  1  0.57701940  0.41773678  0.63168858  1
  O2-  O558  1  0.57975530  0.68578775  0.01849538  1
  O2-  O559  1  0.58382313  0.67169056  0.35406234  1
  O2-  O560  1  0.58134353  0.67407275  0.68351549  1
  O2-  O561  1  0.57859321  0.92007806  0.01939891  1
  O2-  O562  1  0.59909129  0.92471828  0.35536638  1
  O2-  O563  1  0.56643027  0.91671693  0.66628018  1
  O2-  O564  1  0.83604632  0.16629494  0.02487025  1
  O2-  O565  1  0.86024624  0.17579550  0.35899361  1
  O2-  O566  1  0.80272323  0.16691715  0.68610261  1
  O2-  O567  1  0.83705116  0.40837591  0.02590913  1
  O2-  O568  1  0.84409267  0.41745725  0.35550682  1
  O2-  O569  1  0.81314252  0.40361382  0.69471307  1
  O2-  O570  1  0.84616885  0.67517885  0.02117575  1
  O2-  O571  1  0.82954608  0.66287838  0.35314441  1
  O2-  O572  1  0.82316907  0.66673632  0.68230426  1
  O2-  O573  1  0.84208509  0.93321388  0.00646036  1
  O2-  O574  1  0.83783157  0.91693159  0.35129590  1
  O2-  O575  1  0.83952796  0.91843196  0.68365815  1
