# generated using pymatgen
data_H2O
_symmetry_space_group_name_H-M   'P 1'
_cell_length_a   17.97749889
_cell_length_b   17.98235052
_cell_length_c   21.99450587
_cell_angle_alpha   90.00606118
_cell_angle_beta   90.01122852
_cell_angle_gamma   119.98427938
_symmetry_Int_Tables_number   1
_chemical_formula_structural   H2O
_chemical_formula_sum   'H384 O192'
_cell_volume   6158.70391883
_cell_formula_units_Z   192
loop_
 _symmetry_equiv_pos_site_id
 _symmetry_equiv_pos_as_xyz
  1  'x, y, z'
loop_
 _atom_type_symbol
 _atom_type_oxidation_number
  H+  1.0
  O2-  -2.0
loop_
 _atom_site_type_symbol
 _atom_site_label
 _atom_site_symmetry_multiplicity
 _atom_site_fract_x
 _atom_site_fract_y
 _atom_site_fract_z
 _atom_site_occupancy
  H+  H0  1  0.63992003  0.61608378  0.83352403  1
  H+  H1  1  0.23126794  0.87046427  -0.00359480  1
  H+  H2  1  0.12184225  0.46522181  0.14249045  1
  H+  H3  1  0.57345170  0.39866748  0.76082108  1
  H+  H4  1  0.39273728  0.79908893  0.99288649  1
  H+  H5  1  0.73788011  0.13478421  0.00203217  1
  H+  H6  1  0.11232021  0.22432785  0.81248080  1
  H+  H7  1  0.41104867  0.08616799  0.95812967  1
  H+  H8  1  0.47800503  0.12269005  1.01145977  1
  H+  H9  1  0.39849722  0.78338682  0.83779125  1
  H+  H10  1  0.63738517  0.84922335  0.65770826  1
  H+  H11  1  0.62528479  0.52310839  0.33050314  1
  H+  H12  1  0.35402987  0.14326486  0.01675284  1
  H+  H13  1  0.40586922  0.33425614  0.89694767  1
  H+  H14  1  0.36774226  0.89819195  0.00627081  1
  H+  H15  1  0.63475415  0.60231854  0.65821082  1
  H+  H16  1  0.14456965  0.85935770  0.51546569  1
  H+  H17  1  0.11338679  0.12296501  0.17098064  1
  H+  H18  1  0.62350215  0.74948630  0.50060575  1
  H+  H19  1  0.39384459  0.86236335  0.50437050  1
  H+  H20  1  0.60985691  0.71123642  0.67446515  1
  H+  H21  1  0.95696841  0.10623321  0.82343799  1
  H+  H22  1  0.34124642  0.90876653  0.35354291  1
  H+  H23  1  0.12967308  0.88423025  0.16280041  1
  H+  H24  1  0.22305280  0.61142785  0.99944189  1
  H+  H25  1  0.35399428  0.14608729  0.16182245  1
  H+  H26  1  0.92374021  0.33739387  0.23024665  1
  H+  H27  1  0.62971122  0.63414219  0.98286438  1
  H+  H28  1  0.84089506  0.34850883  0.79582139  1
  H+  H29  1  0.42922353  0.13030692  0.27385878  1
  H+  H30  1  -0.03463050  0.85538366  0.66689462  1
  H+  H31  1  0.63839366  0.35823948  0.65030523  1
  H+  H32  1  0.78871021  0.04841113  0.81771943  1
  H+  H33  1  0.96880286  0.60439129  0.66372692  1
  H+  H34  1  0.61677753  0.46904067  0.66704697  1
  H+  H35  1  0.40854909  0.85052546  0.34782381  1
  H+  H36  1  0.88566238  0.81109928  0.89677558  1
  H+  H37  1  -0.00973568  0.33485001  0.80264039  1
  H+  H38  1  0.91333126  0.05353445  0.49513928  1
  H+  H39  1  0.71499215  0.83550848  0.50102682  1
  H+  H40  1  0.13054123  0.35418892  0.65000141  1
  H+  H41  1  0.61811596  0.14031897  0.34832528  1
  H+  H42  1  0.84346895  0.17102317  0.39730803  1
  H+  H43  1  0.03472841  0.62587484  0.17202096  1
  H+  H44  1  0.52879008  0.88083549  0.48700242  1
  H+  H45  1  0.12312528  -0.03070816  0.16581680  1
  H+  H46  1  0.63450673  0.76691242  0.32912643  1
  H+  H47  1  0.64153188  0.10716560  0.50737387  1
  H+  H48  1  0.87133454  0.62623614  0.17348126  1
  H+  H49  1  0.16436610  0.50949272  0.98428769  1
  H+  H50  1  0.23741934  0.13272849  0.53626210  1
  H+  H51  1  0.43687392  0.59361149  0.17228463  1
  H+  H52  1  0.57321744  0.65390611  0.42965184  1
  H+  H53  1  0.48400235  0.14543978  0.33413205  1
  H+  H54  1  0.36152299  0.63762785  0.49450832  1
  H+  H55  1  0.86711774  0.47604461  0.49072313  1
  H+  H56  1  0.63985135  0.27513172  0.83495785  1
  H+  H57  1  0.96621966  0.37287228  0.32718496  1
  H+  H58  1  0.04259332  0.51096238  0.36538919  1
  H+  H59  1  0.64654048  1.02117011  0.65906722  1
  H+  H60  1  0.10670811  0.23384383  -0.01202943  1
  H+  H61  1  0.11634221  0.50068075  0.49809823  1
  H+  H62  1  0.38541520  0.59539974  0.66429315  1
  H+  H63  1  0.14281540  0.75839403  0.18229160  1
  H+  H64  1  0.52119030  0.62761152  0.33351339  1
  H+  H65  1  0.28248552  0.39868793  0.48642637  1
  H+  H66  1  0.10196781  0.87859786  0.34735497  1
  H+  H67  1  0.91838304  0.08072048  0.23157286  1
  H+  H68  1  0.85677839  0.96553413  0.82195941  1
  H+  H69  1  1.04748017  0.90841006  0.50845481  1
  H+  H70  1  0.89689552  0.12090438  0.17224086  1
  H+  H71  1  0.12579666  0.73102848  0.83632342  1
  H+  H72  1  0.90499216  0.76842749  0.19603558  1
  H+  H73  1  0.22172812  0.35592481  0.64360355  1
  H+  H74  1  0.36790040  0.70506101  0.66656882  1
  H+  H75  1  0.88841361  0.36603389  0.64919420  1
  H+  H76  1  0.38275986  0.27660908  0.99317485  1
  H+  H77  1  0.41066867  0.28865201  0.49627185  1
  H+  H78  1  0.13945575  0.98657048  0.51227596  1
  H+  H79  1  0.88753105  1.01652100  0.32572471  1
  H+  H80  1  0.76721763  0.87718274  0.66915033  1
  H+  H81  1  0.35494811  0.38327595  -0.00034615  1
  H+  H82  1  0.12791249  0.90929563  0.00252750  1
  H+  H83  1  0.36132445  0.88114779  0.82073551  1
  H+  H84  1  0.10523008  0.88391742  0.83494235  1
  H+  H85  1  0.86258142  0.98482373  0.14844017  1
  H+  H86  1  0.74949867  0.13163045  0.17426750  1
  H+  H87  1  0.25089151  0.63302875  0.84090955  1
  H+  H88  1  0.87530420  0.23195442  1.00508529  1
  H+  H89  1  0.62753388  0.81909148  0.23271370  1
  H+  H90  1  0.68938105  0.78347670  1.06338236  1
  H+  H91  1  0.16158367  0.56033465  0.74077567  1
  H+  H92  1  0.74319036  0.62792039  0.83234436  1
  H+  H93  1  0.72870164  0.85518803  0.32740306  1
  H+  H94  1  0.89297984  0.59862068  0.27745343  1
  H+  H95  1  0.48547872  0.87299768  0.83376986  1
  H+  H96  1  0.63168558  0.35896665  0.83580585  1
  H+  H97  1  0.61253264  0.38675853  0.00149737  1
  H+  H98  1  0.09246374  0.68839258  0.33717976  1
  H+  H99  1  0.16437354  0.36564107  0.32066788  1
  H+  H100  1  0.53049032  0.78311387  0.21754316  1
  H+  H101  1  0.86756565  0.13950757  0.00186997  1
  H+  H102  1  0.11332062  0.37064050  -0.01334693  1
  H+  H103  1  0.32283057  0.57184771  0.97792851  1
  H+  H104  1  0.36009508  0.28665452  0.33820251  1
  H+  H105  1  0.52953612  0.91303507  -0.00423883  1
  H+  H106  1  0.14074925  0.80837999  0.60767494  1
  H+  H107  1  0.96396810  0.84927073  0.36072195  1
  H+  H108  1  0.83134768  0.40710420  0.06565364  1
  H+  H109  1  0.12283965  0.26509200  0.48364773  1
  H+  H110  1  0.70308234  0.75492856  0.07835360  1
  H+  H111  1  0.47341833  0.36410032  -0.00916356  1
  H+  H112  1  0.85786933  0.72293167  0.66775719  1
  H+  H113  1  0.73452481  0.09289178  0.83258673  1
  H+  H114  1  0.85180939  0.75175172  0.99547660  1
  H+  H115  1  0.62110140  0.13564458  0.66122366  1
  H+  H116  1  -0.01921542  0.37266309  0.50029047  1
  H+  H117  1  0.48859793  0.62969928  1.00361241  1
  H+  H118  1  0.37676866  0.69455772  0.32768795  1
  H+  H119  1  0.42794874  0.10367295  0.84237021  1
  H+  H120  1  0.37483568  0.64392601  0.83283031  1
  H+  H121  1  0.58893015  0.90566313  0.72521838  1
  H+  H122  1  0.51391986  0.62717800  0.49038379  1
  H+  H123  1  0.63762229  -0.01940788  0.34457521  1
  H+  H124  1  0.57661420  0.65036723  0.76697845  1
  H+  H125  1  0.64649786  1.02069760  0.50395365  1
  H+  H126  1  0.10927400  0.13157493  0.81225258  1
  H+  H127  1  0.63357368  0.87824522  0.98184437  1
  H+  H128  1  0.72994559  0.36098508  0.64730031  1
  H+  H129  1  0.12144359  0.34471533  0.16403964  1
  H+  H130  1  0.26629512  0.14496121  0.00484701  1
  H+  H131  1  0.64799987  0.26950888  0.17467746  1
  H+  H132  1  0.89699320  0.62460701  0.84363147  1
  H+  H133  1  0.73899767  0.11278992  0.33449564  1
  H+  H134  1  0.86063882  0.23232766  0.76278264  1
  H+  H135  1  0.38524012  0.52795547  0.50357954  1
  H+  H136  1  1.02086002  0.13424425  0.33843936  1
  H+  H137  1  0.79595590  0.40035490  0.16061803  1
  H+  H138  1  0.64679836  0.05007100  0.99069257  1
  H+  H139  1  0.77521208  0.62217445  0.02633360  1
  H+  H140  1  0.38432917  0.02449439  0.51934264  1
  H+  H141  1  0.33973383  0.14477279  0.80487990  1
  H+  H142  1  0.71860528  0.35616659  -0.00662313  1
  H+  H143  1  0.02731767  0.38348222  0.15327058  1
  H+  H144  1  0.82759613  0.40723671  0.39539064  1
  H+  H145  1  0.65574578  0.57555076  0.26695017  1
  H+  H146  1  0.63469587  0.88055431  0.34129225  1
  H+  H147  1  0.61001217  0.50188112  0.50851397  1
  H+  H148  1  -0.01562636  0.62347864  0.84679947  1
  H+  H149  1  0.36757232  0.14806959  0.50033470  1
  H+  H150  1  0.35223951  0.50307429  0.17054801  1
  H+  H151  1  0.38614170  0.53064375  0.84778352  1
  H+  H152  1  0.42515121  0.88124162  0.72874171  1
  H+  H153  1  0.72267372  0.85282532  0.83191969  1
  H+  H154  1  0.87666240  0.85744688  0.66165834  1
  H+  H155  1  0.25366604  0.37332256  0.14875135  1
  H+  H156  1  0.37392396  -0.05259936  0.25658638  1
  H+  H157  1  0.13654573  0.01947453  0.33316755  1
  H+  H158  1  0.60499777  0.86633503  0.81670409  1
  H+  H159  1  0.83675987  0.69333955  0.45486266  1
  H+  H160  1  0.75863933  0.38088258  0.34300416  1
  H+  H161  1  0.15200506  0.61208968  0.30615216  1
  H+  H162  1  0.10215028  0.71111684  0.68311167  1
  H+  H163  1  0.12476215  0.23057541  0.66091469  1
  H+  H164  1  0.35625576  0.68152209  0.05647906  1
  H+  H165  1  0.88140229  0.11252147  0.66099732  1
  H+  H166  1  0.38208736  0.57888115  0.33036071  1
  H+  H167  1  0.77100553  0.63149329  0.66814327  1
  H+  H168  1  0.87855236  0.23531773  0.15822330  1
  H+  H169  1  0.85339623  0.37120922  0.00667107  1
  H+  H170  1  0.38818300  0.83620501  0.73137299  1
  H+  H171  1  0.57931699  0.38329404  0.35601640  1
  H+  H172  1  0.87045123  0.35198849  0.32256073  1
  H+  H173  1  0.35701816  0.39424257  0.83319492  1
  H+  H174  1  0.60905279  0.23731380  0.00632033  1
  H+  H175  1  0.85260023  0.97125045  0.66848380  1
  H+  H176  1  0.28100419  0.62255032  0.33622113  1
  H+  H177  1  0.53798013  0.87486229  0.66165403  1
  H+  H178  1  0.20480792  0.34506773  0.97663523  1
  H+  H179  1  0.02139894  0.37781243  0.66076110  1
  H+  H180  1  0.63881030  0.39614357  0.16169818  1
  H+  H181  1  0.62748546  0.60284620  0.17439333  1
  H+  H182  1  0.38593816  1.01028611  0.81004745  1
  H+  H183  1  0.27580685  0.62234995  0.68539489  1
  H+  H184  1  0.08481920  0.86549498  0.68122915  1
  H+  H185  1  0.39303191  0.27618202  0.63934339  1
  H+  H186  1  0.88477224  0.02622535  0.97940456  1
  H+  H187  1  0.27760259  0.88396024  0.51241082  1
  H+  H188  1  0.68445547  0.17411941  0.84595436  1
  H+  H189  1  0.80855030  0.94973232  0.52062089  1
  H+  H190  1  0.36760394  0.14757302  0.66988639  1
  H+  H191  1  0.88268257  0.76284567  0.34082479  1
  H+  H192  1  0.88150464  0.59842587  0.49861796  1
  H+  H193  1  0.10485484  0.62288946  0.68998665  1
  H+  H194  1  0.87016830  0.23555266  0.66597533  1
  H+  H195  1  0.13621436  0.12300448  0.98347696  1
  H+  H196  1  0.51312930  0.37562843  0.81914543  1
  H+  H197  1  0.40743682  0.83501758  0.64836541  1
  H+  H198  1  0.36576746  0.16829109  0.34865461  1
  H+  H199  1  0.61714593  0.15221744  0.00953962  1
  H+  H200  1  0.22297214  0.86256127  0.84106436  1
  H+  H201  1  0.52577513  0.13214152  0.50283464  1
  H+  H202  1  0.99258708  0.97199368  0.56065514  1
  H+  H203  1  0.13128452  0.14181263  0.65804562  1
  H+  H204  1  0.61773409  0.27341548  0.34366959  1
  H+  H205  1  0.19556184  0.84138683  0.34168009  1
  H+  H206  1  0.88347513  0.61025588  0.65868964  1
  H+  H207  1  0.66616668  0.33050460  0.55974423  1
  H+  H208  1  0.62710214  0.35009004  0.50093153  1
  H+  H209  1  0.87680969  0.91902056  0.50909344  1
  H+  H210  1  0.10904934  0.49417891  0.33615827  1
  H+  H211  1  0.62219161  0.22702299  0.65768285  1
  H+  H212  1  0.43281683  0.34355285  0.58287232  1
  H+  H213  1  0.63954161  0.52033216  0.17459939  1
  H+  H214  1  0.20822345  0.35211615  0.83710035  1
  H+  H215  1  0.42177869  0.09245735  0.72565046  1
  H+  H216  1  1.01393358  0.66468257  1.01983813  1
  H+  H217  1  0.62249800  0.59500221  0.50132707  1
  H+  H218  1  0.91390818  0.08912753  0.60073236  1
  H+  H219  1  0.38968562  0.77070142  0.49423723  1
  H+  H220  1  0.59821036  0.98145297  0.15836635  1
  H+  H221  1  0.36658106  0.27906962  0.83545383  1
  H+  H222  1  0.41873261  0.97424211  0.26900941  1
  H+  H223  1  0.85741641  0.47132484  0.66199814  1
  H+  H224  1  0.78190048  0.62906282  0.17268976  1
  H+  H225  1  0.60734893  0.13535776  0.15379995  1
  H+  H226  1  0.14946292  0.71039066  0.50860432  1
  H+  H227  1  0.90023003  0.37252223  0.17039196  1
  H+  H228  1  0.24971938  0.13874159  0.81417099  1
  H+  H229  1  0.03419207  0.74193584  0.06544648  1
  H+  H230  1  0.36553952  0.27627929  0.17747116  1
  H+  H231  1  0.23315807  0.63570892  0.50693670  1
  H+  H232  1  0.88511771  0.48951730  0.16564420  1
  H+  H233  1  0.08824464  0.18907602  0.42364919  1
  H+  H234  1  0.06251368  0.90190306  0.74016126  1
  H+  H235  1  0.10850596  0.21806893  0.16269189  1
  H+  H236  1  0.57111887  0.70126565  0.16265538  1
  H+  H237  1  0.36229048  -0.01828632  1.02282556  1
  H+  H238  1  0.35472237  0.50514694  -0.00882563  1
  H+  H239  1  0.14187805  0.03630081  0.98906240  1
  H+  H240  1  0.88836005  0.36643084  0.49766627  1
  H+  H241  1  0.76586906  0.89563793  0.99225724  1
  H+  H242  1  0.77049102  0.37468830  0.81182537  1
  H+  H243  1  0.93495075  0.60006041  0.94200330  1
  H+  H244  1  0.61501683  0.22054134  0.49854356  1
  H+  H245  1  0.89255114  0.60935081  1.00263116  1
  H+  H246  1  0.13230597  0.10630330  0.33178974  1
  H+  H247  1  0.58284011  0.88668307  0.15798739  1
  H+  H248  1  0.47769472  0.12876390  0.17130965  1
  H+  H249  1  0.57568019  0.71978645  0.00344934  1
  H+  H250  1  0.34962386  0.98460208  0.67407294  1
  H+  H251  1  0.90056331  0.13527967  0.49962391  1
  H+  H252  1  0.26794838  0.14618690  0.34906801  1
  H+  H253  1  0.77321332  0.89993353  0.14311989  1
  H+  H254  1  0.19768882  0.85253404  0.66521638  1
  H+  H255  1  0.11285236  0.22228832  0.33266694  1
  H+  H256  1  0.85810131  0.87388075  0.35471799  1
  H+  H257  1  0.36384486  0.37198784  0.65139392  1
  H+  H258  1  0.61107542  0.47442544  0.00563267  1
  H+  H259  1  0.78174903  0.14130889  0.49143581  1
  H+  H260  1  0.88812913  0.10675666  0.32597343  1
  H+  H261  1  0.86962839  0.22756327  0.33609221  1
  H+  H262  1  0.54757024  0.13049652  0.80504121  1
  H+  H263  1  0.15297728  0.63347905  0.84606920  1
  H+  H264  1  0.73011865  0.69000029  0.96760255  1
  H+  H265  1  0.08444796  0.35044374  0.81613939  1
  H+  H266  1  0.23799167  0.12194775  0.62964413  1
  H+  H267  1  0.12562534  0.02013144  0.83801407  1
  H+  H268  1  0.20647452  0.59342059  0.25561764  1
  H+  H269  1  0.36432274  0.82334550  0.33389430  1
  H+  H270  1  0.01469240  0.88131432  0.83697636  1
  H+  H271  1  0.77405261  0.61723507  0.31754053  1
  H+  H272  1  0.78296738  0.14751112  0.67779854  1
  H+  H273  1  0.52789836  0.38204518  0.66107774  1
  H+  H274  1  0.61333943  0.63545603  0.33613988  1
  H+  H275  1  1.01554528  0.12352088  0.16567340  1
  H+  H276  1  0.52117125  0.62125733  0.67383112  1
  H+  H277  1  -0.00851979  0.85232860  0.18896519  1
  H+  H278  1  0.97475857  0.11592483  0.97996808  1
  H+  H279  1  0.01999925  0.60828473  0.30197613  1
  H+  H280  1  0.39362333  0.76244315  0.21810882  1
  H+  H281  1  0.98942615  0.36729036  0.98359333  1
  H+  H282  1  0.31708853  0.40635719  0.05816176  1
  H+  H283  1  0.19247742  0.59024853  0.90434836  1
  H+  H284  1  0.49580857  0.39360772  0.34842459  1
  H+  H285  1  0.16431756  0.34399722  0.55446865  1
  H+  H286  1  1.02984587  0.16536803  0.48843069  1
  H+  H287  1  0.38579195  0.50719601  0.65733493  1
  H+  H288  1  0.06830632  0.38518973  0.72491732  1
  H+  H289  1  0.33379596  0.66089010  0.43145171  1
  H+  H290  1  0.59898713  0.41718592  0.10425832  1
  H+  H291  1  0.33777641  0.75081749  0.08260193  1
  H+  H292  1  0.44722322  0.81917946  0.27118806  1
  H+  H293  1  0.42902916  0.81210791  0.58370706  1
  H+  H294  1  0.71019567  0.15235237  0.91118575  1
  H+  H295  1  0.23399528  0.84198630  0.18487323  1
  H+  H296  1  0.91271137  0.57621949  0.56020504  1
  H+  H297  1  0.82438790  0.40409057  0.71840115  1
  H+  H298  1  0.39119466  0.04422341  0.18793207  1
  H+  H299  1  0.82830423  0.90758883  0.76193638  1
  H+  H300  1  0.41473266  0.09113995  0.57380244  1
  H+  H301  1  0.67593422  0.07853991  0.27761932  1
  H+  H302  1  0.61417779  0.87276545  0.49204007  1
  H+  H303  1  0.53202441  0.39690020  0.44213610  1
  H+  H304  1  0.41601518  0.58299064  0.56520205  1
  H+  H305  1  0.08405893  0.45061308  0.43571268  1
  H+  H306  1  0.66297111  0.33338942  0.93073296  1
  H+  H307  1  0.09342063  0.66509181  0.77837644  1
  H+  H308  1  0.29404937  0.59133942  0.18003240  1
  H+  H309  1  0.91879668  0.33602761  0.58994758  1
  H+  H310  1  0.37333893  0.40300094  0.48360740  1
  H+  H311  1  0.70860152  0.17316304  0.21349154  1
  H+  H312  1  0.33022986  0.17783657  0.44493890  1
  H+  H313  1  0.33620980  0.44063533  0.77897320  1
  H+  H314  1  0.17751903  0.61385176  0.56698245  1
  H+  H315  1  0.16017369  0.08856065  0.89312903  1
  H+  H316  1  0.34620306  0.66902812  0.76995030  1
  H+  H317  1  0.90963191  0.07996593  0.88810570  1
  H+  H318  1  0.15052029  0.81459698  0.27750305  1
  H+  H319  1  0.09614421  0.92267949  0.40861910  1
  H+  H320  1  0.33848931  0.89890956  0.10412403  1
  H+  H321  1  0.83201325  0.23315863  0.83096628  1
  H+  H322  1  0.41118539  0.58776368  0.90661630  1
  H+  H323  1  0.47530479  0.19743301  0.89333206  1
  H+  H324  1  0.21978157  0.11600721  0.17785174  1
  H+  H325  1  0.13195854  0.50204728  0.68372011  1
  H+  H326  1  0.83053147  0.92506291  0.04866494  1
  H+  H327  1  0.16809811  0.83547658  0.90305268  1
  H+  H328  1  0.82763767  0.66583129  0.76166994  1
  H+  H329  1  0.63549251  0.76131607  0.83485668  1
  H+  H330  1  0.38788352  0.33867843  0.23431902  1
  H+  H331  1  0.77742466  0.38593600  0.48904107  1
  H+  H332  1  0.61197068  0.17837613  0.75251680  1
  H+  H333  1  0.67778529  0.07979100  0.59988163  1
  H+  H334  1  0.58275101  0.17493675  0.09705385  1
  H+  H335  1  0.10148900  0.93420007  0.06416569  1
  H+  H336  1  0.63803725  0.96308913  0.80699600  1
  H+  H337  1  0.08950707  0.40721284  0.04832842  1
  H+  H338  1  0.87822191  0.85583954  0.83609422  1
  H+  H339  1  0.68021025  0.60657774  0.89846576  1
  H+  H340  1  0.09969767  0.16976566  0.73367463  1
  H+  H341  1  0.84771021  0.17309205  0.09923095  1
  H+  H342  1  0.13446600  0.79170485  1.00146576  1
  H+  H343  1  0.32482027  0.98563408  0.35972068  1
  H+  H344  1  0.65970028  0.81108983  0.59903344  1
  H+  H345  1  0.85885861  0.72868884  0.82158440  1
  H+  H346  1  0.34554505  0.38116419  0.15584181  1
  H+  H347  1  0.62405245  0.33114287  0.28731195  1
  H+  H348  1  0.32859374  0.92321687  0.45212189  1
  H+  H349  1  0.58581652  0.16270318  0.40973929  1
  H+  H350  1  0.82587186  0.91947349  0.39990570  1
  H+  H351  1  0.15798587  0.31954440  0.22435436  1
  H+  H352  1  0.70873733  0.32078572  0.23086113  1
  H+  H353  1  0.48655307  0.12027450  0.67211980  1
  H+  H354  1  0.07822848  0.17010266  0.04914844  1
  H+  H355  1  0.40250588  0.55520596  0.26571780  1
  H+  H356  1  0.60132080  0.91366425  0.40639617  1
  H+  H357  1  0.31083151  0.35884553  0.71076767  1
  H+  H358  1  0.44490261  0.87262992  0.14098573  1
  H+  H359  1  0.83521754  0.62446128  0.36960454  1
  H+  H360  1  0.58620786  0.93787684  0.05535592  1
  H+  H361  1  0.16120428  0.08181345  0.23942621  1
  H+  H362  1  0.93549207  0.87555833  0.58124605  1
  H+  H363  1  0.65698158  0.83586649  0.92590959  1
  H+  H364  1  0.32783938  0.89803086  0.64272032  1
  H+  H365  1  0.23977660  0.34525776  0.31405743  1
  H+  H366  1  0.83843220  0.65741959  0.08330535  1
  H+  H367  1  0.31926023  0.17891831  0.71395852  1
  H+  H368  1  0.50670997  0.18340228  0.90310135  1
  H+  H369  1  0.54995568  0.64615746  0.10256835  1
  H+  H370  1  0.31734203  0.17181644  0.10372895  1
  H+  H371  1  0.31701077  0.89748897  0.76198556  1
  H+  H372  1  0.15505560  0.60776920  0.14630075  1
  H+  H373  1  0.52330322  0.62747760  0.83089832  1
  H+  H374  1  0.86906954  0.23458474  0.48895735  1
  H+  H375  1  0.08325745  0.67127315  0.11064052  1
  H+  H376  1  0.83622447  0.83272245  0.98392236  1
  H+  H377  1  0.92074898  0.33449269  0.92990547  1
  H+  H378  1  0.14165548  0.38713250  0.49745121  1
  H+  H379  1  0.42139861  0.84945523  0.92821048  1
  H+  H380  1  0.14534729  0.31159458  0.89635139  1
  H+  H381  1  0.66243846  0.57377858  0.59678212  1
  H+  H382  1  0.75549462  0.60716330  0.47625646  1
  H+  H383  1  0.37403045  0.44669457  0.33004487  1
  O2-  O384  1  0.07927263  0.15298220  0.15128795  1
  O2-  O385  1  0.09073588  0.19950254  0.46983197  1
  O2-  O386  1  0.08616888  0.16556698  0.79050473  1
  O2-  O387  1  0.08508858  0.40251505  0.13476713  1
  O2-  O388  1  0.09096423  0.44235805  0.48002788  1
  O2-  O389  1  0.05225327  0.37458582  0.79491710  1
  O2-  O390  1  0.09394296  0.65577521  0.15221803  1
  O2-  O391  1  0.13387857  0.75112404  0.48986648  1
  O2-  O392  1  0.10330609  0.66906113  0.82371552  1
  O2-  O393  1  0.10071228  0.91375671  0.14480820  1
  O2-  O394  1  0.10706960  0.92785562  0.49483439  1
  O2-  O395  1  0.07466520  0.91417545  0.82085235  1
  O2-  O396  1  0.31639373  0.16939234  0.14938046  1
  O2-  O397  1  0.34068037  0.18317013  0.48995242  1
  O2-  O398  1  0.30858057  0.17475435  0.79479765  1
  O2-  O399  1  0.31432563  0.40928226  0.13585631  1
  O2-  O400  1  0.34315128  0.43460895  0.47436354  1
  O2-  O401  1  0.32697174  0.42788062  0.82222546  1
  O2-  O402  1  0.25663008  0.61739111  0.18625774  1
  O2-  O403  1  0.33262280  0.66830146  0.47650362  1
  O2-  O404  1  0.34437729  0.67379185  0.81531177  1
  O2-  O405  1  0.34470770  0.88811236  0.14866625  1
  O2-  O406  1  0.33770496  0.91964320  0.49649668  1
  O2-  O407  1  0.32567956  0.90681035  0.80632645  1
  O2-  O408  1  0.58099352  0.17035106  0.14335853  1
  O2-  O409  1  0.58512668  0.15806571  0.48649905  1
  O2-  O410  1  0.60745683  0.17489382  0.79798572  1
  O2-  O411  1  0.60610050  0.42358738  0.14880020  1
  O2-  O412  1  0.53223223  0.38675063  0.48775163  1
  O2-  O413  1  0.57276450  0.39718373  0.80588515  1
  O2-  O414  1  0.54820765  0.64188338  0.14757716  1
  O2-  O415  1  0.57474787  0.65304544  0.47514158  1
  O2-  O416  1  0.58206986  0.65304802  0.81269358  1
  O2-  O417  1  0.56546677  0.92582532  0.13815964  1
  O2-  O418  1  0.59109163  0.90913238  0.47480362  1
  O2-  O419  1  0.58405405  0.90506053  0.80112826  1
  O2-  O420  1  0.84766337  0.17318248  0.14514455  1
  O2-  O421  1  0.84167158  0.17281699  0.47490318  1
  O2-  O422  1  0.73438860  0.04634810  0.80782124  1
  O2-  O423  1  0.85599405  0.42945141  0.14670402  1
  O2-  O424  1  0.83732916  0.41444724  0.47399311  1
  O2-  O425  1  0.82411026  0.39253119  0.78880231  1
  O2-  O426  1  0.84082493  0.65610089  0.15609098  1
  O2-  O427  1  0.81305317  0.63133847  0.45696408  1
  O2-  O428  1  0.82587908  0.66665083  0.80758455  1
  O2-  O429  1  0.83059297  0.93012187  0.12575354  1
  O2-  O430  1  0.83362816  0.93170203  0.48843437  1
  O2-  O431  1  0.82692033  0.90435222  0.80755903  1
  O2-  O432  1  0.15850881  0.08401091  0.19364700  1
  O2-  O433  1  0.17635414  0.09521115  0.54906579  1
  O2-  O434  1  0.15563693  0.08348896  0.84726846  1
  O2-  O435  1  0.14880099  0.31051897  0.17967093  1
  O2-  O436  1  0.16714197  0.35022591  0.50885845  1
  O2-  O437  1  0.14797408  0.31101811  0.84762625  1
  O2-  O438  1  0.18973822  0.57791879  0.13904745  1
  O2-  O439  1  0.17366233  0.61576957  0.52286782  1
  O2-  O440  1  0.18968453  0.60340929  0.85873432  1
  O2-  O441  1  0.17367789  0.81927080  0.19742413  1
  O2-  O442  1  0.17204171  0.82576841  0.53136950  1
  O2-  O443  1  0.16337600  0.83107842  0.85719149  1
  O2-  O444  1  0.41971904  0.10679394  0.19016496  1
  O2-  O445  1  0.41550908  0.08747939  0.52954470  1
  O2-  O446  1  0.42118931  0.07479203  0.80347763  1
  O2-  O447  1  0.39046731  0.33721865  0.18967545  1
  O2-  O448  1  0.44143763  0.35282438  0.50597978  1
  O2-  O449  1  0.40120254  0.33819593  0.85160318  1
  O2-  O450  1  0.37807715  0.56176105  0.19010512  1
  O2-  O451  1  0.41511526  0.58898663  0.52027178  1
  O2-  O452  1  0.42127813  0.59184650  0.86124709  1
  O2-  O453  1  0.38203624  0.83103904  0.14493521  1
  O2-  O454  1  0.42567219  0.83073982  0.51138046  1
  O2-  O455  1  0.42492732  0.84482702  0.84992270  1
  O2-  O456  1  0.69403137  0.11743386  0.19620270  1
  O2-  O457  1  0.67712597  0.08069994  0.51898441  1
  O2-  O458  1  0.73147838  0.17360382  0.86931670  1
  O2-  O459  1  0.68464696  0.32797112  0.19310942  1
  O2-  O460  1  0.66356255  0.32655311  0.51350393  1
  O2-  O461  1  0.66601571  0.33335014  0.85304529  1
  O2-  O462  1  0.66306658  0.58031454  0.19167433  1
  O2-  O463  1  0.65120796  0.56322571  0.51662905  1
  O2-  O464  1  0.67958318  0.59648949  0.85245977  1
  O2-  O465  1  0.58766657  0.80434165  0.19798012  1
  O2-  O466  1  0.65593719  0.81113940  0.51634167  1
  O2-  O467  1  0.66198082  0.82246458  0.84748332  1
  O2-  O468  1  0.92359302  0.08601475  0.18616137  1
  O2-  O469  1  0.93897033  0.11148587  0.51307576  1
  O2-  O470  1  0.90141974  0.06932583  0.84306361  1
  O2-  O471  1  0.92663374  0.33738790  0.18479174  1
  O2-  O472  1  0.91956501  0.33565188  0.51225535  1
  O2-  O473  1  0.87566228  0.26861969  0.80013209  1
  O2-  O474  1  0.93270242  0.58542113  0.19554390  1
  O2-  O475  1  0.91307585  0.57114543  0.51535724  1
  O2-  O476  1  0.92738175  0.60000692  0.86546071  1
  O2-  O477  1  0.94170736  0.82380377  0.21623987  1
  O2-  O478  1  0.95629217  0.91482609  0.54340232  1
  O2-  O479  1  0.90573084  0.82357087  0.85356724  1
  O2-  O480  1  0.16567851  0.07979373  0.31641703  1
  O2-  O481  1  0.17622131  0.09375731  0.61653817  1
  O2-  O482  1  0.17057397  0.09576960  0.96982259  1
  O2-  O483  1  0.17778694  0.32423992  0.30246356  1
  O2-  O484  1  0.16060487  0.32514260  0.63002539  1
  O2-  O485  1  0.14464957  0.31634781  0.96266795  1
  O2-  O486  1  0.18970295  0.58621060  0.29944075  1
  O2-  O487  1  0.16494051  0.56533823  0.69649241  1
  O2-  O488  1  0.21191303  0.56780710  0.96845604  1
  O2-  O489  1  0.13882547  0.81023603  0.32213224  1
  O2-  O490  1  0.13838566  0.81003700  0.65292081  1
  O2-  O491  1  0.17325867  0.84494000  0.97754656  1
  O2-  O492  1  0.42595497  0.12917000  0.31882934  1
  O2-  O493  1  0.42250589  0.09298134  0.68040429  1
  O2-  O494  1  0.41400588  0.08939107  1.00235365  1
  O2-  O495  1  0.39025766  0.34633372  0.31902308  1
  O2-  O496  1  0.42469350  0.33848822  0.62813575  1
  O2-  O497  1  0.41366046  0.33514376  0.97441626  1
  O2-  O498  1  0.41373886  0.55309915  0.31032497  1
  O2-  O499  1  0.41721098  0.56852746  0.64579609  1
  O2-  O500  1  0.37518759  0.56695581  0.97809906  1
  O2-  O501  1  0.43278806  0.76544779  0.25063375  1
  O2-  O502  1  0.43209060  0.80341515  0.62907486  1
  O2-  O503  1  0.42408759  0.85683004  0.97340935  1
  O2-  O504  1  0.67597901  0.07671669  0.32261534  1
  O2-  O505  1  0.67415100  0.08191032  0.64497530  1
  O2-  O506  1  0.67911847  0.11375039  0.98453763  1
  O2-  O507  1  0.63615565  0.33374545  0.33078764  1
  O2-  O508  1  0.66802184  0.32837795  0.63246956  1
  O2-  O509  1  0.65858127  0.33306582  0.97641937  1
  O2-  O510  1  0.66028820  0.58113938  0.31273636  1
  O2-  O511  1  0.66671400  0.57432772  0.64208105  1
  O2-  O512  1  0.67952415  0.62988746  0.96742169  1
  O2-  O513  1  0.66631587  0.82910908  0.31523553  1
  O2-  O514  1  0.66270614  0.81296281  0.64414395  1
  O2-  O515  1  0.65617972  0.83940805  0.97122091  1
  O2-  O516  1  0.91879771  0.07706190  0.31023884  1
  O2-  O517  1  0.89884573  0.07243640  0.64335672  1
  O2-  O518  1  0.91336615  0.08740210  0.96537430  1
  O2-  O519  1  0.91016293  0.32988922  0.30930909  1
  O2-  O520  1  0.92078761  0.33668476  0.63543458  1
  O2-  O521  1  0.92561188  0.33451626  0.97400071  1
  O2-  O522  1  0.92642397  0.57177243  0.26232079  1
  O2-  O523  1  0.91214517  0.57853773  0.64328928  1
  O2-  O524  1  0.93703741  0.59693094  0.98739310  1
  O2-  O525  1  0.90101463  0.81405866  0.36667720  1
  O2-  O526  1  0.90777052  0.82879387  0.64435484  1
  O2-  O527  1  0.83181959  0.77942232  0.96548970  1
  O2-  O528  1  0.07689727  0.16783567  0.00480910  1
  O2-  O529  1  0.08138876  0.16623255  0.35460227  1
  O2-  O530  1  0.10591216  0.17267210  0.68048729  1
  O2-  O531  1  0.09182150  0.41282840  0.00352963  1
  O2-  O532  1  0.05776688  0.46530490  0.36327049  1
  O2-  O533  1  0.08004699  0.39935076  0.67923721  1
  O2-  O534  1  0.06243460  0.71336462  0.04663693  1
  O2-  O535  1  0.07006214  0.62641864  0.33013567  1
  O2-  O536  1  0.07383090  0.65292598  0.70271186  1
  O2-  O537  1  0.10118778  0.94149624  0.01948793  1
  O2-  O538  1  0.08443013  0.91919191  0.36443605  1
  O2-  O539  1  0.05741750  0.89837885  0.69514101  1
  O2-  O540  1  0.32401648  0.17558454  0.02608596  1
  O2-  O541  1  0.32600571  0.18711128  0.36596619  1
  O2-  O542  1  0.33220591  0.17630855  0.67009722  1
  O2-  O543  1  0.31888103  0.40823086  0.01260007  1
  O2-  O544  1  0.33853628  0.38375965  0.34127977  1
  O2-  O545  1  0.32510668  0.39078701  0.67263905  1
  O2-  O546  1  0.33167131  0.71714005  0.04529555  1
  O2-  O547  1  0.34037325  0.64545158  0.35405003  1
  O2-  O548  1  0.33934167  0.65205544  0.69200403  1
  O2-  O549  1  0.33392779  0.91872398  0.03027574  1
  O2-  O550  1  0.30620011  0.92781377  0.37537667  1
  O2-  O551  1  0.31138964  0.92079213  0.67716814  1
  O2-  O552  1  0.58145377  0.17739353  0.02471890  1
  O2-  O553  1  0.58853990  0.17003673  0.36427735  1
  O2-  O554  1  0.59180569  0.16754313  0.67577324  1
  O2-  O555  1  0.58055811  0.41483947  0.01931762  1
  O2-  O556  1  0.55268883  0.41788871  0.36897997  1
  O2-  O557  1  0.58618766  0.40708553  0.67923432  1
  O2-  O558  1  0.54965776  0.65901218  0.01629963  1
  O2-  O559  1  0.58034062  0.66439188  0.35027129  1
  O2-  O560  1  0.58074586  0.65112660  0.69087291  1
  O2-  O561  1  0.59046423  0.94280622  0.01047210  1
  O2-  O562  1  0.60820656  0.91786875  0.35930795  1
  O2-  O563  1  0.59602403  0.90968040  0.67946300  1
  O2-  O564  1  0.84312150  0.17260250  0.02245263  1
  O2-  O565  1  0.84133182  0.16670611  0.35174580  1
  O2-  O566  1  0.84429901  0.18077389  0.68984085  1
  O2-  O567  1  0.80900739  0.38045038  0.02558406  1
  O2-  O568  1  0.81854432  0.39670373  0.35072039  1
  O2-  O569  1  0.82776128  0.40863094  0.67187192  1
  O2-  O570  1  0.83576523  0.65808363  0.03701309  1
  O2-  O571  1  0.83555128  0.63721822  0.32601610  1
  O2-  O572  1  0.83060793  0.66346423  0.68520115  1
  O2-  O573  1  0.82787689  0.92029178  0.00321263  1
  O2-  O574  1  0.82952983  0.91092982  0.35602077  1
  O2-  O575  1  0.82726188  0.91104280  0.68480679  1
