# generated using pymatgen
data_H2O
_symmetry_space_group_name_H-M   'P 1'
_cell_length_a   18.00879673
_cell_length_b   18.00069845
_cell_length_c   22.01891595
_cell_angle_alpha   90.01263570
_cell_angle_beta   90.01696275
_cell_angle_gamma   120.03109239
_symmetry_Int_Tables_number   1
_chemical_formula_structural   H2O
_chemical_formula_sum   'H384 O192'
_cell_volume   6179.65751411
_cell_formula_units_Z   192
loop_
 _symmetry_equiv_pos_site_id
 _symmetry_equiv_pos_as_xyz
  1  'x, y, z'
loop_
 _atom_type_symbol
 _atom_type_oxidation_number
  H+  1.0
  O2-  -2.0
loop_
 _atom_site_type_symbol
 _atom_site_label
 _atom_site_symmetry_multiplicity
 _atom_site_fract_x
 _atom_site_fract_y
 _atom_site_fract_z
 _atom_site_occupancy
  H+  H0  1  0.89069527  0.26969103  0.50941442  1
  H+  H1  1  0.61754101  0.24272332  0.67061633  1
  H+  H2  1  0.85009881  -0.05748987  0.67101250  1
  H+  H3  1  0.10077283  0.11981606  0.49180393  1
  H+  H4  1  0.62062424  0.15226321  0.82702250  1
  H+  H5  1  0.22221698  0.35676417  0.80153732  1
  H+  H6  1  0.88896421  0.52699963  0.84077751  1
  H+  H7  1  0.63385645  0.61055965  0.00308971  1
  H+  H8  1  0.36818156  0.39388517  0.34287248  1
  H+  H9  1  0.67858579  0.09731273  0.12087925  1
  H+  H10  1  0.52551156  0.62865301  0.00257092  1
  H+  H11  1  0.54044004  0.62546080  0.49633757  1
  H+  H12  1  0.14062337  0.09909750  0.65418213  1
  H+  H13  1  0.34868316  0.09348637  0.48750388  1
  H+  H14  1  0.58870568  0.23324986  0.33666954  1
  H+  H15  1  0.01397730  0.87183651  0.46054834  1
  H+  H16  1  0.61288264  0.39365608  0.82947249  1
  H+  H17  1  0.48995000  0.38845203  0.50766133  1
  H+  H18  1  0.66019197  0.60771287  0.51616535  1
  H+  H19  1  0.05685150  0.90596777  0.68405049  1
  H+  H20  1  0.10033028  0.92483789  0.24079950  1
  H+  H21  1  0.41084734  0.53367531  0.66651093  1
  H+  H22  1  0.88567748  0.85371881  0.97161269  1
  H+  H23  1  0.87434021  0.72673268  0.82132283  1
  H+  H24  1  0.37848509  0.61086305  0.32007974  1
  H+  H25  1  0.13211173  0.89502540  0.83356246  1
  H+  H26  1  0.08766665  0.87858816  0.37085164  1
  H+  H27  1  0.88655318  0.76777232  -0.01237797  1
  H+  H28  1  0.76907298  0.62318987  0.15974400  1
  H+  H29  1  0.85616026  0.91299729  0.51781366  1
  H+  H30  1  0.63493074  0.61757497  0.34336281  1
  H+  H31  1  0.62498592  0.48150616  0.49433208  1
  H+  H32  1  0.86311897  0.39166471  0.83078318  1
  H+  H33  1  0.61659315  0.97074998  -0.00407401  1
  H+  H34  1  0.38070265  0.11615630  1.00343481  1
  H+  H35  1  0.16454425  0.34201092  0.70885152  1
  H+  H36  1  0.03295850  0.39900718  0.16874280  1
  H+  H37  1  0.14268636  0.86020027  0.17867168  1
  H+  H38  1  0.52375855  0.39037282  1.00070611  1
  H+  H39  1  0.87576987  0.62625354  0.48888405  1
  H+  H40  1  0.92808802  0.80084595  0.63994898  1
  H+  H41  1  0.63109461  0.60108236  0.17275017  1
  H+  H42  1  0.11135231  0.38623162  0.81407078  1
  H+  H43  1  0.63947885  0.38363438  0.66456113  1
  H+  H44  1  0.85568205  0.38106690  0.67711445  1
  H+  H45  1  0.84894412  0.46281669  0.33610859  1
  H+  H46  1  0.11577515  0.52306583  0.34688699  1
  H+  H47  1  0.75246727  0.85417005  0.32978468  1
  H+  H48  1  0.86037427  0.13296438  0.00513940  1
  H+  H49  1  0.87261543  0.60331938  0.67572936  1
  H+  H50  1  0.12135221  0.23516208  0.15776271  1
  H+  H51  1  0.42444329  0.85818573  0.36336791  1
  H+  H52  1  0.47592636  0.36639950  0.83772983  1
  H+  H53  1  0.34440426  0.72417985  0.49892000  1
  H+  H54  1  0.86017598  0.71165474  0.15539376  1
  H+  H55  1  0.36577034  0.01144459  0.68934279  1
  H+  H56  1  0.63725711  0.28321346  0.83770289  1
  H+  H57  1  0.14181272  1.02748622  -0.00551388  1
  H+  H58  1  0.97961499  0.37407290  0.84599264  1
  H+  H59  1  0.15734288  0.33711688  0.63308457  1
  H+  H60  1  0.23017516  0.13309502  0.32070064  1
  H+  H61  1  0.56468277  0.89092062  0.32768759  1
  H+  H62  1  0.35631467  0.10825308  0.33396755  1
  H+  H63  1  0.87636629  0.35530664  0.33290021  1
  H+  H64  1  0.15395832  0.52988926  0.16859326  1
  H+  H65  1  0.89503003  0.13769056  0.51155432  1
  H+  H66  1  0.13471495  0.61223833  0.84064734  1
  H+  H67  1  0.51255130  0.37116922  0.15217148  1
  H+  H68  1  0.63919031  0.36467053  -0.00700088  1
  H+  H69  1  0.88563513  0.88322749  0.32494895  1
  H+  H70  1  1.00734340  0.62478793  0.35725759  1
  H+  H71  1  0.26067486  0.62979978  0.50472046  1
  H+  H72  1  0.38764208  0.60650082  0.16049204  1
  H+  H73  1  0.89864741  0.84394563  0.15420871  1
  H+  H74  1  0.57815175  0.13169485  0.15082217  1
  H+  H75  1  0.85799599  0.22082122  0.66582317  1
  H+  H76  1  0.11936647  0.52897367  0.66590508  1
  H+  H77  1  0.81152059  0.36068469  0.48203952  1
  H+  H78  1  0.89461599  0.28656120  0.83892459  1
  H+  H79  1  0.97525103  0.60972699  0.67719311  1
  H+  H80  1  0.11330201  0.12807617  0.82462748  1
  H+  H81  1  0.60352303  -0.04153623  0.14394606  1
  H+  H82  1  0.38053356  1.01841276  0.00314335  1
  H+  H83  1  0.36527030  0.64095364  0.99145071  1
  H+  H84  1  0.65411334  0.32866585  0.26234222  1
  H+  H85  1  0.72202014  0.36437841  0.17073960  1
  H+  H86  1  0.12333317  0.74067245  0.51036158  1
  H+  H87  1  0.59962380  0.86867973  0.15680692  1
  H+  H88  1  0.10951558  0.63695043  -0.00210297  1
  H+  H89  1  0.20570178  0.60749246  0.34382375  1
  H+  H90  1  0.76624106  -0.12335183  0.97027281  1
  H+  H91  1  0.47580964  0.11739204  -0.00103161  1
  H+  H92  1  0.89587722  0.37993764  0.17996180  1
  H+  H93  1  0.98846181  0.85646321  0.17784008  1
  H+  H94  1  0.02696181  0.64468117  0.83431946  1
  H+  H95  1  0.14307051  0.37040690  0.16890927  1
  H+  H96  1  0.14694015  0.98484942  0.66984252  1
  H+  H97  1  0.14030165  0.85304383  0.65998054  1
  H+  H98  1  0.57362254  0.13933954  0.34357799  1
  H+  H99  1  0.39211220  0.27864736  0.98906522  1
  H+  H100  1  0.88035533  0.04311720  0.72676185  1
  H+  H101  1  0.36761799  0.17848816  0.16589741  1
  H+  H102  1  0.60715307  -0.02899510  0.49406843  1
  H+  H103  1  0.24269611  0.14918156  0.17408623  1
  H+  H104  1  0.61172928  0.38323792  0.34220970  1
  H+  H105  1  0.83736441  0.79538239  0.49062550  1
  H+  H106  1  0.38845849  0.86285036  0.65929951  1
  H+  H107  1  0.36794982  0.46964939  0.16045485  1
  H+  H108  1  0.35398842  0.72879852  0.82974683  1
  H+  H109  1  0.27795527  0.63141181  0.14544874  1
  H+  H110  1  0.39162821  0.53146652  0.31774595  1
  H+  H111  1  0.13526833  0.27314297  1.02017422  1
  H+  H112  1  0.13402342  0.52395324  0.99428956  1
  H+  H113  1  0.64309406  0.71848987  0.34800316  1
  H+  H114  1  0.97124830  0.61189605  0.99235106  1
  H+  H115  1  0.51655605  0.62290578  0.15791913  1
  H+  H116  1  0.52963855  0.14513672  0.82141762  1
  H+  H117  1  0.58861374  0.90314210  0.04987336  1
  H+  H118  1  0.72740134  0.12851946  0.84598112  1
  H+  H119  1  0.10790432  0.40896053  0.68061862  1
  H+  H120  1  0.52736588  0.13917223  0.49873021  1
  H+  H121  1  0.74582413  0.60534213  0.50741244  1
  H+  H122  1  0.39596261  0.44006582  0.49548548  1
  H+  H123  1  0.36180327  0.23188984  0.34527952  1
  H+  H124  1  0.39415862  0.52812283  0.98945027  1
  H+  H125  1  0.39036196  0.32010983  0.50147124  1
  H+  H126  1  0.11855431  0.73291530  0.83325859  1
  H+  H127  1  1.03314783  0.14669079  0.16453357  1
  H+  H128  1  0.17158427  0.33429298  1.07615268  1
  H+  H129  1  0.60591244  0.22478323  -0.00056688  1
  H+  H130  1  0.13787759  0.77584212  -0.00558149  1
  H+  H131  1  0.36446630  -0.08592014  0.84181346  1
  H+  H132  1  0.27467781  0.14198844  0.00731463  1
  H+  H133  1  0.46135388  0.02675052  0.54914153  1
  H+  H134  1  0.42531702  0.07926151  0.58258266  1
  H+  H135  1  0.22801563  0.86526711  -0.00509267  1
  H+  H136  1  0.36569362  0.90273642  0.15333338  1
  H+  H137  1  0.89995448  0.11589099  0.33378299  1
  H+  H138  1  0.88153058  0.02034526  0.97993150  1
  H+  H139  1  0.63368867  0.11873227  0.65304498  1
  H+  H140  1  0.44512808  0.10890682  0.33330487  1
  H+  H141  1  0.62937864  0.76085253  0.67820857  1
  H+  H142  1  0.62777510  0.27536619  0.51630865  1
  H+  H143  1  0.88468795  0.51303928  0.67264600  1
  H+  H144  1  0.90773299  0.03007414  0.32642384  1
  H+  H145  1  0.20606014  0.08463683  0.49789752  1
  H+  H146  1  0.59893129  0.46422923  0.15834191  1
  H+  H147  1  0.07665217  0.14151570  0.72878089  1
  H+  H148  1  0.38696861  0.27641347  0.83715951  1
  H+  H149  1  0.30649392  0.93006828  0.42120517  1
  H+  H150  1  0.87699215  0.59785891  0.33464511  1
  H+  H151  1  0.71873117  0.11264966  0.65353255  1
  H+  H152  1  0.72905184  0.60045583  0.32941058  1
  H+  H153  1  0.75461056  0.86871014  0.81979340  1
  H+  H154  1  0.17894100  0.11448063  0.24847600  1
  H+  H155  1  0.17644726  0.35363646  0.26866266  1
  H+  H156  1  0.88685956  0.16251293  0.16609858  1
  H+  H157  1  0.09176787  0.19117065  0.66569957  1
  H+  H158  1  0.32050702  0.89064841  0.35878161  1
  H+  H159  1  0.97196798  0.59725365  0.50570074  1
  H+  H160  1  0.74354736  0.38716938  0.49278741  1
  H+  H161  1  0.75818963  0.85795877  0.67347574  1
  H+  H162  1  0.34007027  0.99444250  0.35317568  1
  H+  H163  1  0.10191767  0.95481095  0.46851741  1
  H+  H164  1  0.60496536  0.71082864  0.16356637  1
  H+  H165  1  0.92410956  0.37066272  0.50801601  1
  H+  H166  1  0.60813647  0.97277772  0.67166188  1
  H+  H167  1  0.01843457  0.13379277  0.00249604  1
  H+  H168  1  0.60845806  0.88373064  0.67684956  1
  H+  H169  1  0.23549599  0.38187395  0.32823629  1
  H+  H170  1  0.63193882  0.11161432  0.99676725  1
  H+  H171  1  0.77348504  0.39167116  0.82918634  1
  H+  H172  1  0.12997406  0.34489996  0.53367447  1
  H+  H173  1  0.64636599  0.62570998  0.84852216  1
  H+  H174  1  0.70948407  0.85395417  0.18457824  1
  H+  H175  1  0.14611102  1.02692178  0.84341265  1
  H+  H176  1  1.03482412  0.63590362  0.15508510  1
  H+  H177  1  0.34433818  -0.03345176  0.51131402  1
  H+  H178  1  0.87319703  0.01508386  0.83549697  1
  H+  H179  1  0.26882236  0.13672736  0.82706641  1
  H+  H180  1  0.89228983  0.11269104  0.83057061  1
  H+  H181  1  0.47448007  0.86383604  0.99012015  1
  H+  H182  1  0.21067857  0.84562340  0.51363142  1
  H+  H183  1  1.04071086  0.37698222  0.50439925  1
  H+  H184  1  0.61128439  0.48157119  0.83090959  1
  H+  H185  1  0.36791419  0.24363833  0.67189882  1
  H+  H186  1  0.83637747  0.66126950  0.39880043  1
  H+  H187  1  0.13458890  0.26489539  0.79963632  1
  H+  H188  1  0.85675594  0.71251571  0.33474574  1
  H+  H189  1  0.90310028  0.29556263  0.17810775  1
  H+  H190  1  0.34420153  0.88037606  0.49771665  1
  H+  H191  1  0.10301538  0.63347036  0.68078195  1
  H+  H192  1  0.57825908  0.83704450  0.81772929  1
  H+  H193  1  0.62988218  0.51127087  1.00228913  1
  H+  H194  1  0.12783718  0.24993254  0.33936293  1
  H+  H195  1  0.66860695  0.10352931  0.28903973  1
  H+  H196  1  0.58544092  0.41605832  0.40360780  1
  H+  H197  1  0.97145415  0.83020739  0.31223813  1
  H+  H198  1  0.10130356  0.63589043  0.35487720  1
  H+  H199  1  0.35428303  0.03768046  0.17216747  1
  H+  H200  1  0.62132144  0.71796252  0.50031342  1
  H+  H201  1  0.46140128  0.85757759  0.83786166  1
  H+  H202  1  0.63176939  0.76058896  0.98279509  1
  H+  H203  1  0.62927827  0.84751700  -0.02744773  1
  H+  H204  1  0.71091109  0.86048194  0.53105966  1
  H+  H205  1  0.23810624  0.11970278  0.65185759  1
  H+  H206  1  0.37166925  0.33587678  0.16092972  1
  H+  H207  1  0.28114710  0.39069984  0.01473618  1
  H+  H208  1  0.87871675  0.51285697  0.49797959  1
  H+  H209  1  0.81931083  0.90524505  0.12238776  1
  H+  H210  1  0.42176697  0.32085925  0.27025879  1
  H+  H211  1  0.33331494  0.71085412  0.35379686  1
  H+  H212  1  0.34384908  0.72342251  0.67464681  1
  H+  H213  1  0.46065479  0.86350415  0.50391698  1
  H+  H214  1  0.53464441  0.62820498  0.68201719  1
  H+  H215  1  1.01845123  0.38611797  1.00914939  1
  H+  H216  1  0.03143818  0.89459813  -0.00057744  1
  H+  H217  1  0.02095950  0.12251106  0.82191202  1
  H+  H218  1  0.96757707  0.36200613  0.66839357  1
  H+  H219  1  0.77963203  0.64145720  0.82730205  1
  H+  H220  1  0.63964970  0.11392956  0.49860801  1
  H+  H221  1  0.86129956  0.38420339  0.00805589  1
  H+  H222  1  0.14094609  0.11639606  0.99366270  1
  H+  H223  1  0.36978816  0.39088377  0.00325047  1
  H+  H224  1  0.27302516  0.89114969  0.15871197  1
  H+  H225  1  0.52081370  0.79710860  0.35404157  1
  H+  H226  1  0.15187185  0.80591881  0.57655269  1
  H+  H227  1  0.89701992  0.04787189  0.18043486  1
  H+  H228  1  0.48582819  0.13698671  0.66289454  1
  H+  H229  1  0.39157768  0.37695501  0.66415176  1
  H+  H230  1  0.57871291  0.41498046  0.06350471  1
  H+  H231  1  0.71458106  0.35324334  0.32187996  1
  H+  H232  1  0.86140914  0.47370204  1.00622859  1
  H+  H233  1  0.26980324  0.63594110  0.83119808  1
  H+  H234  1  0.39508964  0.13809827  0.65906464  1
  H+  H235  1  0.12561684  0.25544773  0.53633205  1
  H+  H236  1  0.88730948  0.61495916  0.84020915  1
  H+  H237  1  0.58144989  0.65824110  0.06510832  1
  H+  H238  1  0.16665769  0.83561019  0.90447078  1
  H+  H239  1  0.21094515  0.61823590  0.66539930  1
  H+  H240  1  0.53166474  0.40872698  0.67588390  1
  H+  H241  1  0.85003286  0.12622576  0.67350402  1
  H+  H242  1  0.67261797  0.58593281  0.90280232  1
  H+  H243  1  0.73146969  0.60821886  1.00334608  1
  H+  H244  1  0.23343042  0.36810674  0.16840451  1
  H+  H245  1  0.48491763  0.69326675  0.53475125  1
  H+  H246  1  0.72463546  0.19832315  0.26846647  1
  H+  H247  1  0.47704055  0.62230732  0.83747798  1
  H+  H248  1  0.85399843  0.62329220  1.00263643  1
  H+  H249  1  0.28730773  0.41567288  0.67590909  1
  H+  H250  1  0.88340782  0.27036305  -0.00541886  1
  H+  H251  1  0.56850188  0.89677351  0.77027115  1
  H+  H252  1  0.86192950  0.48033154  0.15783326  1
  H+  H253  1  0.95001528  0.23407047  0.78070778  1
  H+  H254  1  0.35187818  0.17647018  0.50862915  1
  H+  H255  1  0.39443874  0.52666648  0.48945055  1
  H+  H256  1  0.36857231  0.89734500  0.00766194  1
  H+  H257  1  0.25771992  0.85579049  0.67518201  1
  H+  H258  1  0.10808898  0.38775764  1.01993404  1
  H+  H259  1  0.23500825  0.87648579  0.85081915  1
  H+  H260  1  0.60157793  0.22942858  0.15325353  1
  H+  H261  1  0.13550132  0.51498659  0.51469786  1
  H+  H262  1  0.63588470  0.51121844  0.33164744  1
  H+  H263  1  0.47298002  0.85941353  0.14942241  1
  H+  H264  1  0.77184322  0.13331838  0.49568350  1
  H+  H265  1  0.62004751  0.85009752  0.51761359  1
  H+  H266  1  0.60602392  0.38528665  0.49710133  1
  H+  H267  1  0.79344790  0.14081421  0.33637050  1
  H+  H268  1  0.85332389  0.82331738  0.64868435  1
  H+  H269  1  0.33630964  0.96156143  0.79528898  1
  H+  H270  1  0.80194765  0.16517882  0.17092041  1
  H+  H271  1  0.62512082  0.57159327  0.68735596  1
  H+  H272  1  0.12203685  0.75486330  0.66536201  1
  H+  H273  1  0.99032322  0.13340770  0.50879236  1
  H+  H274  1  0.48118990  0.36057754  0.32933665  1
  H+  H275  1  0.88971086  0.72118968  0.49000496  1
  H+  H276  1  0.82214983  0.67640185  0.66750531  1
  H+  H277  1  0.36606074  0.72004040  0.13817839  1
  H+  H278  1  0.76556791  0.80658219  0.10790960  1
  H+  H279  1  0.15417713  0.61729965  0.16140157  1
  H+  H280  1  0.11146810  0.62505320  0.49963025  1
  H+  H281  1  0.91407117  0.33358378  0.93690409  1
  H+  H282  1  0.72332570  0.11456215  0.99784685  1
  H+  H283  1  0.36191084  0.47962051  0.82668573  1
  H+  H284  1  0.89631629  0.62687772  0.18095085  1
  H+  H285  1  1.04023198  0.15764614  0.33755958  1
  H+  H286  1  0.36333457  0.39069401  0.82715041  1
  H+  H287  1  0.95720394  0.08657920  0.68091231  1
  H+  H288  1  0.09060048  0.75884710  0.33649214  1
  H+  H289  1  0.41348642  0.58323662  0.22520812  1
  H+  H290  1  0.83582174  0.16542566  0.43721868  1
  H+  H291  1  0.07408548  0.15669710  0.06386729  1
  H+  H292  1  0.11612702  0.93123458  0.77175173  1
  H+  H293  1  0.81413075  0.95499342  0.47724049  1
  H+  H294  1  0.63936215  0.78195321  0.88235077  1
  H+  H295  1  0.85710543  0.18567172  0.75353481  1
  H+  H296  1  0.22470034  0.61211743  0.98859828  1
  H+  H297  1  0.09438421  0.41173938  0.44400033  1
  H+  H298  1  0.33884998  0.18617135  0.06427520  1
  H+  H299  1  0.37504487  0.83523837  0.30217843  1
  H+  H300  1  0.82629081  0.65187741  0.06447021  1
  H+  H301  1  0.82149788  0.89762458  0.76690159  1
  H+  H302  1  0.72562583  0.37657086  0.66396117  1
  H+  H303  1  0.63157692  0.36176068  0.16833878  1
  H+  H304  1  0.44624354  0.60337892  0.61205533  1
  H+  H305  1  0.82584202  0.89581105  0.02714108  1
  H+  H306  1  0.11924886  0.89722218  0.00761312  1
  H+  H307  1  0.66772464  0.33882907  0.89882740  1
  H+  H308  1  0.08073599  0.42092420  0.10427336  1
  H+  H309  1  0.14349605  0.14234662  0.31801106  1
  H+  H310  1  0.07839930  0.66013753  0.44131006  1
  H+  H311  1  0.87298885  0.91720695  0.38718748  1
  H+  H312  1  0.34586957  0.43131288  0.73396277  1
  H+  H313  1  0.60675597  0.65654791  0.40983097  1
  H+  H314  1  0.37113244  0.08178178  0.23621969  1
  H+  H315  1  0.99306411  0.85657366  0.83245485  1
  H+  H316  1  0.58971391  0.17971464  0.72774771  1
  H+  H317  1  0.33435245  0.17689561  0.72837787  1
  H+  H318  1  0.14547247  0.13309682  0.16998978  1
  H+  H319  1  1.01781089  0.38214064  0.35184728  1
  H+  H320  1  0.47610152  0.86124602  0.65539928  1
  H+  H321  1  0.11491886  0.47679286  0.83067260  1
  H+  H322  1  0.38851987  0.63739392  0.51901760  1
  H+  H323  1  0.15523278  0.57803931  0.57305329  1
  H+  H324  1  0.67031781  0.09199175  0.19319838  1
  H+  H325  1  0.57599375  0.90038710  0.44088302  1
  H+  H326  1  0.12508585  0.98524537  0.18372647  1
  H+  H327  1  0.40630055  0.83850725  0.89809384  1
  H+  H328  1  0.31470743  0.66771301  0.73516250  1
  H+  H329  1  0.82511925  0.64666207  0.73674556  1
  H+  H330  1  0.82974035  0.41415992  0.73755240  1
  H+  H331  1  0.91842544  0.57803036  0.27802562  1
  H+  H332  1  0.66270410  0.08347875  0.56057185  1
  H+  H333  1  0.65918780  0.84393391  0.34069297  1
  H+  H334  1  0.80707914  0.40356235  0.39387617  1
  H+  H335  1  0.17306108  0.08989841  0.90178288  1
  H+  H336  1  0.60281562  0.68122261  0.77948876  1
  H+  H337  1  0.38661574  0.61945902  0.83752965  1
  H+  H338  1  0.12099002  0.72405100  0.15201104  1
  H+  H339  1  0.57469213  0.17920977  0.43634587  1
  H+  H340  1  0.66163530  0.57018192  0.23114112  1
  H+  H341  1  0.42050726  0.33821435  0.92960926  1
  H+  H342  1  0.31827206  0.65035136  0.40925835  1
  H+  H343  1  0.06805197  0.42685716  0.73922390  1
  H+  H344  1  0.66817264  0.10026027  0.90443489  1
  H+  H345  1  0.89583207  0.05048005  0.53367932  1
  H+  H346  1  0.57305968  0.17087433  0.06146527  1
  H+  H347  1  0.93220268  0.82237333  0.88994039  1
  H+  H348  1  0.16204759  0.58029900  0.89985887  1
  H+  H349  1  0.11166170  0.39348002  0.34541490  1
  H+  H350  1  0.58832750  0.43357118  0.73534450  1
  H+  H351  1  0.15360089  0.06126764  0.55814963  1
  H+  H352  1  0.65909693  0.34086341  0.57466418  1
  H+  H353  1  0.64629852  0.81159977  0.61570858  1
  H+  H354  1  0.33383158  0.92661939  0.06665059  1
  H+  H355  1  0.41222646  0.82224006  0.20562119  1
  H+  H356  1  0.42425001  0.35193441  0.60479046  1
  H+  H357  1  0.08441969  0.16950877  0.43655047  1
  H+  H358  1  0.34178754  0.41693983  0.09881274  1
  H+  H359  1  0.42442458  0.58646225  0.92898452  1
  H+  H360  1  0.97866006  0.68317133  0.21925862  1
  H+  H361  1  0.32060807  0.16368903  0.40188837  1
  H+  H362  1  0.08171014  0.66546951  0.05783575  1
  H+  H363  1  0.83543218  0.41949137  0.09993054  1
  H+  H364  1  0.91103633  0.58067841  0.93361270  1
  H+  H365  1  0.16140705  0.81672073  0.23189442  1
  H+  H366  1  0.13197100  0.31890505  0.91185192  1
  H+  H367  1  0.33315726  0.66170318  0.05262104  1
  H+  H368  1  0.91565281  0.08811670  0.92785832  1
  H+  H369  1  0.66132195  0.81573658  0.24500144  1
  H+  H370  1  0.91387370  0.33057097  0.60699367  1
  H+  H371  1  0.35238503  0.12944250  0.82122262  1
  H+  H372  1  0.16159903  0.36660418  0.91414628  1
  H+  H373  1  0.38280801  0.77769208  0.99198729  1
  H+  H374  1  0.34760803  0.43860172  0.39817575  1
  H+  H375  1  0.07922367  0.66769431  0.74317259  1
  H+  H376  1  0.90942679  0.81279487  0.25589568  1
  H+  H377  1  0.88356193  0.81957571  0.55483030  1
  H+  H378  1  0.40622668  0.83655698  0.56515030  1
  H+  H379  1  0.84058152  0.17005648  0.06575171  1
  H+  H380  1  0.87532118  0.23086872  0.34435074  1
  H+  H381  1  0.93094145  0.10058350  0.24180563  1
  H+  H382  1  0.72638323  0.36144230  0.99480921  1
  H+  H383  1  0.91846738  0.33803115  0.27473136  1
  O2-  O384  1  0.09058234  0.17271078  0.14506710  1
  O2-  O385  1  0.07394845  0.15537163  0.48057569  1
  O2-  O386  1  0.07943492  0.15111695  0.80331466  1
  O2-  O387  1  0.08993261  0.42040820  0.14916360  1
  O2-  O388  1  0.10008993  0.41256023  0.48942523  1
  O2-  O389  1  0.07799954  0.41675636  0.81438302  1
  O2-  O390  1  0.09148368  0.66457363  0.13522013  1
  O2-  O391  1  0.08231104  0.65871829  0.48764127  1
  O2-  O392  1  0.08661226  0.67215651  0.81777203  1
  O2-  O393  1  0.09537818  0.92440825  0.19626487  1
  O2-  O394  1  0.07363317  0.89903861  0.44712512  1
  O2-  O395  1  0.10589583  0.92893224  0.81599083  1
  O2-  O396  1  0.34613898  0.21581629  0.14687671  1
  O2-  O397  1  0.32356309  0.12976092  0.47926350  1
  O2-  O398  1  0.32882553  0.16553118  0.80879822  1
  O2-  O399  1  0.33681960  0.40945625  0.14406571  1
  O2-  O400  1  0.37328884  0.47026769  0.47090275  1
  O2-  O401  1  0.33361154  0.42013523  0.80978031  1
  O2-  O402  1  0.33887153  0.65876364  0.12724131  1
  O2-  O403  1  0.32111186  0.66274276  0.48810172  1
  O2-  O404  1  0.32994754  0.66803424  0.81563918  1
  O2-  O405  1  0.33155433  0.93007718  0.14204759  1
  O2-  O406  1  0.31045225  0.91092729  0.48892022  1
  O2-  O407  1  0.32135311  0.96523799  0.71563040  1
  O2-  O408  1  0.56356977  0.17299332  0.13359429  1
  O2-  O409  1  0.58480777  0.17457522  0.48027822  1
  O2-  O410  1  0.58866708  0.17949198  0.80731575  1
  O2-  O411  1  0.57335623  0.40621096  0.13904269  1
  O2-  O412  1  0.58376874  0.42108855  0.47826445  1
  O2-  O413  1  0.58000780  0.42165155  0.81516964  1
  O2-  O414  1  0.57928198  0.65357355  0.14438974  1
  O2-  O415  1  0.60020778  0.65965888  0.48240036  1
  O2-  O416  1  0.59739241  0.68424630  0.82533408  1
  O2-  O417  1  0.57503433  0.89681298  0.13189057  1
  O2-  O418  1  0.57368845  0.90791055  0.48506598  1
  O2-  O419  1  0.56050865  0.88034585  0.81362316  1
  O2-  O420  1  0.85609088  0.19122649  0.14882757  1
  O2-  O421  1  0.83431347  0.16583134  0.48279421  1
  O2-  O422  1  0.88994513  0.20179222  0.79326451  1
  O2-  O423  1  0.83398934  0.42002916  0.14597879  1
  O2-  O424  1  0.80043161  0.40667253  0.47110463  1
  O2-  O425  1  0.83365910  0.42133480  0.81313651  1
  O2-  O426  1  0.82847986  0.65026425  0.14254427  1
  O2-  O427  1  0.85076832  0.66426759  0.47363442  1
  O2-  O428  1  0.83715299  0.66353984  0.80878212  1
  O2-  O429  1  0.82315732  0.85683576  0.10613757  1
  O2-  O430  1  0.82757322  0.94945192  0.51944238  1
  O2-  O431  1  0.81092465  0.91587443  0.80661036  1
  O2-  O432  1  0.18256399  0.11078586  0.18898320  1
  O2-  O433  1  0.14675765  0.05950526  0.51298874  1
  O2-  O434  1  0.17259006  0.08915061  0.85613748  1
  O2-  O435  1  0.17117549  0.33591107  0.18027205  1
  O2-  O436  1  0.12662955  0.30051128  0.56191520  1
  O2-  O437  1  0.16104079  0.32638522  0.78785138  1
  O2-  O438  1  0.18921831  0.59259046  0.17589152  1
  O2-  O439  1  0.15948529  0.57647361  0.52734781  1
  O2-  O440  1  0.16278881  0.57920175  0.85421109  1
  O2-  O441  1  0.16952716  0.82472548  0.18739728  1
  O2-  O442  1  0.15123328  0.80536883  0.52915488  1
  O2-  O443  1  0.17139502  0.83707074  0.85904883  1
  O2-  O444  1  0.35596235  0.08639745  0.19414685  1
  O2-  O445  1  0.43107460  0.05789933  0.53982619  1
  O2-  O446  1  0.33575172  -0.05109645  0.83910229  1
  O2-  O447  1  0.40013117  0.30235181  0.17471880  1
  O2-  O448  1  0.43089099  0.36894976  0.52565516  1
  O2-  O449  1  0.41515902  0.33595812  0.85320935  1
  O2-  O450  1  0.41687991  0.57733915  0.17967345  1
  O2-  O451  1  0.43996204  0.63308122  0.53328418  1
  O2-  O452  1  0.41692441  0.58811029  0.85137285  1
  O2-  O453  1  0.41136903  0.83396744  0.16256915  1
  O2-  O454  1  0.40062596  0.83670162  0.51892139  1
  O2-  O455  1  0.40170335  0.83747063  0.85316110  1
  O2-  O456  1  0.63987776  0.06632227  0.15449904  1
  O2-  O457  1  0.66637138  0.08107154  0.51469149  1
  O2-  O458  1  0.66986792  0.11165474  0.85995210  1
  O2-  O459  1  0.66182406  0.33258124  0.18562893  1
  O2-  O460  1  0.65485148  0.33667650  0.52866587  1
  O2-  O461  1  0.66848100  0.34320047  0.85353267  1
  O2-  O462  1  0.66163062  0.57004892  0.18606268  1
  O2-  O463  1  0.68677284  0.57237595  0.52375462  1
  O2-  O464  1  0.67197202  0.58914906  0.85827429  1
  O2-  O465  1  0.65168090  0.81782548  0.20034199  1
  O2-  O466  1  0.64889533  0.81836277  0.53260774  1
  O2-  O467  1  0.63962566  0.77769019  0.83668145  1
  O2-  O468  1  0.93079623  0.10633013  0.19580282  1
  O2-  O469  1  0.93229530  0.11563477  0.53200197  1
  O2-  O470  1  0.91375839  0.07621660  0.84801018  1
  O2-  O471  1  0.92764963  0.35285057  0.19776062  1
  O2-  O472  1  0.93033959  0.32633783  0.52890433  1
  O2-  O473  1  0.91792738  0.34298379  0.85943587  1
  O2-  O474  1  0.94324682  0.62449851  0.20422635  1
  O2-  O475  1  0.90982725  0.57192966  0.51413390  1
  O2-  O476  1  0.91865757  0.58654728  0.85761574  1
  O2-  O477  1  0.92472695  0.81764228  0.17940025  1
  O2-  O478  1  0.88742218  0.84105751  0.51141512  1
  O2-  O479  1  0.93237884  0.82063183  0.84494249  1
  O2-  O480  1  0.17305729  0.11119863  0.29947977  1
  O2-  O481  1  0.17840187  0.07862936  0.63697369  1
  O2-  O482  1  0.17540485  0.09004225  0.98033990  1
  O2-  O483  1  0.17423350  0.35159686  0.31356014  1
  O2-  O484  1  0.17772702  0.37459739  0.66996088  1
  O2-  O485  1  0.16880106  0.33550224  1.03178614  1
  O2-  O486  1  0.14418455  0.58434783  0.33474983  1
  O2-  O487  1  0.14966744  0.58819414  0.64819436  1
  O2-  O488  1  0.16270152  0.58275421  0.97636376  1
  O2-  O489  1  0.11781443  0.81296096  0.31084027  1
  O2-  O490  1  0.15832836  0.81228412  0.64406251  1
  O2-  O491  1  0.16741601  0.83729261  0.98134632  1
  O2-  O492  1  0.38306680  0.07209987  0.32246258  1
  O2-  O493  1  0.42441563  0.10451676  0.64802314  1
  O2-  O494  1  0.41093254  0.08393489  0.98906713  1
  O2-  O495  1  0.42021790  0.32671152  0.31465970  1
  O2-  O496  1  0.42190810  0.34600717  0.64976591  1
  O2-  O497  1  0.42392888  0.33965594  0.97538839  1
  O2-  O498  1  0.41429605  0.59004831  0.30086782  1
  O2-  O499  1  0.45223509  0.59509445  0.65565560  1
  O2-  O500  1  0.42790703  0.58857045  0.97458525  1
  O2-  O501  1  0.36654009  0.83037605  0.34613173  1
  O2-  O502  1  0.41636181  0.83450207  0.63819534  1
  O2-  O503  1  0.41238205  0.84024346  0.98155302  1
  O2-  O504  1  0.71883544  0.14146625  0.26446923  1
  O2-  O505  1  0.65925068  0.08485050  0.63658691  1
  O2-  O506  1  0.66319125  0.08220471  0.98232215  1
  O2-  O507  1  0.65285096  0.32532840  0.30804840  1
  O2-  O508  1  0.66530353  0.34893488  0.64869274  1
  O2-  O509  1  0.66661947  0.33222340  0.97787390  1
  O2-  O510  1  0.66696079  0.57287932  0.31566319  1
  O2-  O511  1  0.65247049  0.63374311  0.67769441  1
  O2-  O512  1  0.66541512  0.57761706  0.98942256  1
  O2-  O513  1  0.68951902  0.81739006  0.32069223  1
  O2-  O514  1  0.65509076  0.82009495  0.65999985  1
  O2-  O515  1  0.65660578  0.81399015  0.95820200  1
  O2-  O516  1  0.93374686  0.09163979  0.31463416  1
  O2-  O517  1  0.89320781  0.05771621  0.68371169  1
  O2-  O518  1  0.91287004  0.08381325  0.97315147  1
  O2-  O519  1  0.91095664  0.32843406  0.31979599  1
  O2-  O520  1  0.90730591  0.32670048  0.65181389  1
  O2-  O521  1  0.91340107  0.33204986  0.98242762  1
  O2-  O522  1  0.90764798  0.56654871  0.32223110  1
  O2-  O523  1  0.91377587  0.57649674  0.66088420  1
  O2-  O524  1  0.90937002  0.57926474  0.97947399  1
  O2-  O525  1  0.91081048  0.81379347  0.30147259  1
  O2-  O526  1  0.87152688  0.78617418  0.62471559  1
  O2-  O527  1  0.92107469  0.82551402  0.96999112  1
  O2-  O528  1  0.07827149  0.16308824  0.01901316  1
  O2-  O529  1  0.10051961  0.18785834  0.35286758  1
  O2-  O530  1  0.06852406  0.13377881  0.68297332  1
  O2-  O531  1  0.07769480  0.42057736  0.02630461  1
  O2-  O532  1  0.07735032  0.41409363  0.36787743  1
  O2-  O533  1  0.06585576  0.42732901  0.69354276  1
  O2-  O534  1  0.07859721  0.66685438  0.01252887  1
  O2-  O535  1  0.06758941  0.66463977  0.37046453  1
  O2-  O536  1  0.07176697  0.66329489  0.69739815  1
  O2-  O537  1  0.08909038  0.92917442  0.01767761  1
  O2-  O538  1  0.07547444  0.86287586  0.32645013  1
  O2-  O539  1  0.11767596  0.92611846  0.68943259  1
  O2-  O540  1  0.33733150  0.17327283  0.02040590  1
  O2-  O541  1  0.32141174  0.16965735  0.35709438  1
  O2-  O542  1  0.33745729  0.18066707  0.68310453  1
  O2-  O543  1  0.34437444  0.42440108  0.02090002  1
  O2-  O544  1  0.33844014  0.42556347  0.35348783  1
  O2-  O545  1  0.34746314  0.43415673  0.68836098  1
  O2-  O546  1  0.33213082  0.66757881  0.00704925  1
  O2-  O547  1  0.31721171  0.65163330  0.36388096  1
  O2-  O548  1  0.30479535  0.66554769  0.69056531  1
  O2-  O549  1  0.33856654  0.92944375  0.02088664  1
  O2-  O550  1  0.30227335  0.93164420  0.37442007  1
  O2-  O551  1  0.31649180  0.88615729  0.69367729  1
  O2-  O552  1  0.57330434  0.16462213  0.01541137  1
  O2-  O553  1  0.55034917  0.17517985  0.35706313  1
  O2-  O554  1  0.58757444  0.18049213  0.68243133  1
  O2-  O555  1  0.58428542  0.42192170  0.01793624  1
  O2-  O556  1  0.58362103  0.41555083  0.35750287  1
  O2-  O557  1  0.59210670  0.44117715  0.69039199  1
  O2-  O558  1  0.58622263  0.65665127  0.01977481  1
  O2-  O559  1  0.61028307  0.65745338  0.36345378  1
  O2-  O560  1  0.59539675  0.66101857  0.70527966  1
  O2-  O561  1  0.58761802  0.90798315  0.00511822  1
  O2-  O562  1  0.56668242  0.85620230  0.36118817  1
  O2-  O563  1  0.57540176  0.91301258  0.68669171  1
  O2-  O564  1  0.83102560  0.16385437  0.02137176  1
  O2-  O565  1  0.84777099  0.16887174  0.35884957  1
  O2-  O566  1  0.82218860  0.16088754  0.68228056  1
  O2-  O567  1  0.83087635  0.41431166  0.02374592  1
  O2-  O568  1  0.81404200  0.40076770  0.34904920  1
  O2-  O569  1  0.82948686  0.41548950  0.69168751  1
  O2-  O570  1  0.82075702  0.65122379  0.01911245  1
  O2-  O571  1  0.82785713  0.65404814  0.35339465  1
  O2-  O572  1  0.81832685  0.62909522  0.69228619  1
  O2-  O573  1  0.82780006  0.90861437  -0.01639113  1
  O2-  O574  1  0.86131579  0.91834977  0.34400250  1
  O2-  O575  1  0.82132297  0.88064094  0.68088815  1
