# generated using pymatgen
data_H2O
_symmetry_space_group_name_H-M   'P 1'
_cell_length_a   17.98559259
_cell_length_b   17.98429050
_cell_length_c   22.00054669
_cell_angle_alpha   90.01344688
_cell_angle_beta   89.99848384
_cell_angle_gamma   120.00535278
_symmetry_Int_Tables_number   1
_chemical_formula_structural   H2O
_chemical_formula_sum   'H384 O192'
_cell_volume   6162.52540937
_cell_formula_units_Z   192
loop_
 _symmetry_equiv_pos_site_id
 _symmetry_equiv_pos_as_xyz
  1  'x, y, z'
loop_
 _atom_type_symbol
 _atom_type_oxidation_number
  H+  1.0
  O2-  -2.0
loop_
 _atom_site_type_symbol
 _atom_site_label
 _atom_site_symmetry_multiplicity
 _atom_site_fract_x
 _atom_site_fract_y
 _atom_site_fract_z
 _atom_site_occupancy
  H+  H0  1  0.40575471  0.55005651  0.99550612  1
  H+  H1  1  0.38393307  0.73901525  0.32306605  1
  H+  H2  1  0.22392289  0.85230363  0.83024723  1
  H+  H3  1  0.74365445  0.57317616  1.01736226  1
  H+  H4  1  0.51209808  0.88482558  0.15684468  1
  H+  H5  1  0.87502522  0.22398157  0.66713550  1
  H+  H6  1  0.60083998  0.47462515  0.16240763  1
  H+  H7  1  0.91537055  0.61073880  0.30197452  1
  H+  H8  1  0.38113937  0.61426354  0.82049434  1
  H+  H9  1  0.78302479  0.38838393  0.33655003  1
  H+  H10  1  0.09125999  0.62955737  0.83251907  1
  H+  H11  1  0.59941168  -0.00057343  0.65404765  1
  H+  H12  1  0.11337935  0.51046429  0.84946448  1
  H+  H13  1  0.99232214  0.35702313  0.50401446  1
  H+  H14  1  0.13599012  0.10657796  0.31941872  1
  H+  H15  1  0.97017818  0.36075888  0.83241040  1
  H+  H16  1  0.86693075  0.13358202  0.81549429  1
  H+  H17  1  0.64477594  0.11258963  0.83734795  1
  H+  H18  1  0.26398883  0.19731129  0.70393329  1
  H+  H19  1  0.64611618  0.11453271  0.33967478  1
  H+  H20  1  0.61936683  0.62968887  0.83666447  1
  H+  H21  1  0.98420250  0.61668963  0.50487785  1
  H+  H22  1  0.12319631  0.84961207  0.31621815  1
  H+  H23  1  0.76084852  0.44542595  0.09992499  1
  H+  H24  1  0.14303660  0.27688032  0.84161800  1
  H+  H25  1  0.39869929  0.32523968  0.56839195  1
  H+  H26  1  0.61284188  0.72954797  0.34417746  1
  H+  H27  1  0.11014788  0.96826017  0.33125734  1
  H+  H28  1  0.36078793  0.93317152  0.47955629  1
  H+  H29  1  0.36254264  0.13003964  -0.00425768  1
  H+  H30  1  0.39566680  0.84734632  0.65746993  1
  H+  H31  1  0.73308738  0.35634223  0.82443957  1
  H+  H32  1  0.11980189  0.24150908  0.01506296  1
  H+  H33  1  0.89668588  0.11830085  0.50701228  1
  H+  H34  1  0.62930054  0.23240906  0.34470488  1
  H+  H35  1  0.52891059  0.88422836  0.35434081  1
  H+  H36  1  0.34490903  0.34133206  0.51829584  1
  H+  H37  1  0.60931569  0.13755038  0.00032684  1
  H+  H38  1  0.55588825  0.68574040  0.66736113  1
  H+  H39  1  0.45614260  0.51601671  0.29550484  1
  H+  H40  1  0.61125278  0.86145042  0.67656236  1
  H+  H41  1  0.21105031  0.84868533  0.31393980  1
  H+  H42  1  0.63980564  1.02309279  0.84336958  1
  H+  H43  1  0.98317199  0.86809746  0.83176489  1
  H+  H44  1  0.49430347  0.61183750  0.84487278  1
  H+  H45  1  0.61498049  0.48107735  0.34731254  1
  H+  H46  1  0.64559104  0.80497221  1.00354704  1
  H+  H47  1  0.12697531  1.00806957  -0.00857009  1
  H+  H48  1  0.62029765  0.85804792  0.18199513  1
  H+  H49  1  0.36896597  0.15399275  0.48391030  1
  H+  H50  1  0.96799943  0.84284002  0.17225058  1
  H+  H51  1  0.62181738  0.99883926  0.01283123  1
  H+  H52  1  0.88166751  0.56763765  1.02294790  1
  H+  H53  1  0.36479293  0.07115914  0.16161159  1
  H+  H54  1  0.16960301  0.24302902  0.67381730  1
  H+  H55  1  0.86457347  0.87376980  0.34008227  1
  H+  H56  1  0.26370823  0.62258657  0.17148141  1
  H+  H57  1  0.60022901  0.38411717  0.50088873  1
  H+  H58  1  0.40560971  0.61244691  0.65263599  1
  H+  H59  1  0.08979505  0.16906551  0.43036789  1
  H+  H60  1  0.89665368  0.37632401  0.31753909  1
  H+  H61  1  0.52910752  0.14159419  0.49765532  1
  H+  H62  1  0.26377360  0.85946557  0.49023943  1
  H+  H63  1  0.61614927  0.38722318  0.67481337  1
  H+  H64  1  0.85774655  0.25110593  1.04604373  1
  H+  H65  1  0.61657460  0.87707718  0.50302840  1
  H+  H66  1  0.35989949  0.49661208  0.51411034  1
  H+  H67  1  0.61347851  0.21518798  0.82213865  1
  H+  H68  1  0.17235139  0.83522688  0.56505070  1
  H+  H69  1  0.35422642  0.18124344  0.14815695  1
  H+  H70  1  0.82665782  0.65581634  -0.00194195  1
  H+  H71  1  0.86817878  0.59754262  0.82967088  1
  H+  H72  1  0.14017719  0.12723614  0.99193043  1
  H+  H73  1  0.51715211  0.12527978  0.17108729  1
  H+  H74  1  0.52666685  0.87418794  0.49966556  1
  H+  H75  1  0.77582065  0.13007367  0.81923971  1
  H+  H76  1  0.64306585  0.02331843  0.34317626  1
  H+  H77  1  0.14287845  0.61386134  0.49859166  1
  H+  H78  1  0.47594194  0.62236297  0.17275817  1
  H+  H79  1  0.46896422  0.10683821  0.98914359  1
  H+  H80  1  0.10640381  0.69704831  0.15493978  1
  H+  H81  1  0.35593142  0.42645509  -0.05135862  1
  H+  H82  1  0.63275776  0.60654427  0.49937421  1
  H+  H83  1  -0.01218737  0.34970817  0.17645365  1
  H+  H84  1  0.90587989  0.81316014  0.23373938  1
  H+  H85  1  0.77539764  0.86881549  0.65800628  1
  H+  H86  1  0.02486575  0.37627957  0.67096519  1
  H+  H87  1  0.40259442  0.51981108  0.84775528  1
  H+  H88  1  0.09191876  0.94910831  0.16015638  1
  H+  H89  1  0.88368922  0.27194769  0.82695444  1
  H+  H90  1  0.26715280  0.61990314  0.49646784  1
  H+  H91  1  0.42258392  0.35894933  0.28411388  1
  H+  H92  1  0.13969515  0.58202852  0.94939623  1
  H+  H93  1  0.02148140  0.12542890  0.33574165  1
  H+  H94  1  0.72729041  0.85819120  0.33344501  1
  H+  H95  1  0.60174076  0.46089673  0.99343849  1
  H+  H96  1  0.25215903  0.63996678  0.65135037  1
  H+  H97  1  0.84142701  0.92540655  0.06463021  1
  H+  H98  1  0.61531889  0.37607070  0.82498396  1
  H+  H99  1  0.59573112  0.38302797  0.16886531  1
  H+  H100  1  0.90999368  0.09565514  1.08747887  1
  H+  H101  1  0.40522757  0.26972681  1.00997013  1
  H+  H102  1  1.02534062  0.15697281  1.02911901  1
  H+  H103  1  0.64261212  1.02128000  0.50699263  1
  H+  H104  1  0.73324722  0.13426240  1.00045030  1
  H+  H105  1  0.80684073  0.37908691  0.48040815  1
  H+  H106  1  0.88776952  0.35383829  0.65699166  1
  H+  H107  1  0.97262636  0.58721934  0.15830991  1
  H+  H108  1  0.77424740  0.63402757  0.50311707  1
  H+  H109  1  0.75196657  0.63803323  0.16405150  1
  H+  H110  1  0.60932060  0.47370407  0.67399485  1
  H+  H111  1  0.14967278  0.36040511  0.65660917  1
  H+  H112  1  0.90884673  0.34251269  0.14345678  1
  H+  H113  1  0.34290908  0.46104705  0.35504056  1
  H+  H114  1  0.14060217  0.59575836  0.18061239  1
  H+  H115  1  0.34950053  0.37780269  0.35909150  1
  H+  H116  1  0.91545758  0.57548156  0.59951973  1
  H+  H117  1  0.13394167  0.23015822  0.16404046  1
  H+  H118  1  0.89879890  0.27031209  0.50429739  1
  H+  H119  1  0.12129174  -0.02636488  0.48241020  1
  H+  H120  1  0.90064186  0.52528632  0.50147897  1
  H+  H121  1  0.08832617  0.41483345  0.77000079  1
  H+  H122  1  0.11290316  0.46377850  0.67092815  1
  H+  H123  1  0.12164557  0.90808141  -0.01581097  1
  H+  H124  1  0.09172662  0.92188374  0.72953776  1
  H+  H125  1  0.20147941  0.83165234  0.16177117  1
  H+  H126  1  0.14337943  0.86428232  0.66082590  1
  H+  H127  1  0.83477574  0.91021103  0.56851255  1
  H+  H128  1  0.48609587  0.36172637  0.85058928  1
  H+  H129  1  0.73931364  0.39012873  0.00378005  1
  H+  H130  1  0.33604213  0.94159302  0.15468694  1
  H+  H131  1  0.38120610  0.30624356  0.19619590  1
  H+  H132  1  0.60353362  0.13377142  0.19599322  1
  H+  H133  1  0.37025072  0.38233589  0.84011285  1
  H+  H134  1  0.71899960  0.61281408  0.33364697  1
  H+  H135  1  0.38233105  0.95429387  0.68379208  1
  H+  H136  1  0.70637746  0.36593524  0.17526085  1
  H+  H137  1  0.48959329  0.15791617  0.26072248  1
  H+  H138  1  0.35761517  0.60837508  0.50298176  1
  H+  H139  1  0.86938683  0.87886584  0.65304002  1
  H+  H140  1  0.86019464  0.63474674  0.67064441  1
  H+  H141  1  0.78334117  0.89422604  0.82687715  1
  H+  H142  1  0.86548564  0.88295461  0.15594945  1
  H+  H143  1  0.85559440  0.46099395  0.66443802  1
  H+  H144  1  0.77035240  0.63577532  0.82684354  1
  H+  H145  1  0.28087003  0.38413340  0.83736867  1
  H+  H146  1  0.15077895  0.37517067  0.00068816  1
  H+  H147  1  0.12152537  0.47425780  0.48965641  1
  H+  H148  1  0.52450586  0.37474498  0.07035119  1
  H+  H149  1  0.78257277  0.13361087  0.34873370  1
  H+  H150  1  0.15156784  0.61596652  0.33261578  1
  H+  H151  1  -0.04463840  0.59789433  0.83405195  1
  H+  H152  1  0.38731733  0.05350658  0.52411255  1
  H+  H153  1  0.11233689  0.64294320  0.67537511  1
  H+  H154  1  0.82639813  0.40220423  0.72375508  1
  H+  H155  1  0.62755044  0.68087787  0.01213714  1
  H+  H156  1  0.14572076  0.14384587  0.66932361  1
  H+  H157  1  0.92505041  0.32864920  0.59899658  1
  H+  H158  1  0.87297427  0.11384374  0.17691259  1
  H+  H159  1  0.57639822  0.11645048  0.66649918  1
  H+  H160  1  0.85840847  0.37976080  0.81450369  1
  H+  H161  1  0.12155358  0.47828138  0.33808891  1
  H+  H162  1  0.88679627  1.01150212  0.32479016  1
  H+  H163  1  0.36709996  0.70887525  0.49986563  1
  H+  H164  1  0.72314502  0.84898403  0.51886841  1
  H+  H165  1  0.23367940  0.36077379  0.17258287  1
  H+  H166  1  0.09017675  0.85897549  0.15733171  1
  H+  H167  1  0.34097999  0.96129987  0.34300810  1
  H+  H168  1  0.13965894  0.11840792  0.84057661  1
  H+  H169  1  0.28996768  0.39865883  0.67979654  1
  H+  H170  1  1.02857704  0.88093559  0.67193214  1
  H+  H171  1  0.83034951  0.40084824  0.08769651  1
  H+  H172  1  0.83998338  0.48787157  0.15057506  1
  H+  H173  1  0.36862387  0.94159673  0.82943032  1
  H+  H174  1  -0.01872621  0.60205481  0.01654369  1
  H+  H175  1  0.63852025  0.51094353  0.83827002  1
  H+  H176  1  0.78310224  0.13751167  0.49780303  1
  H+  H177  1  0.60352621  0.54717216  0.99817722  1
  H+  H178  1  0.35493951  0.88945610  1.00095736  1
  H+  H179  1  0.49305539  0.12986776  0.32496444  1
  H+  H180  1  0.16705079  0.33327425  0.90293648  1
  H+  H181  1  0.23292962  0.36273752  0.99340552  1
  H+  H182  1  0.22964719  0.85746231  0.66144971  1
  H+  H183  1  0.89390551  0.76798690  0.66205517  1
  H+  H184  1  0.19091824  0.34258087  0.59802700  1
  H+  H185  1  0.35379338  0.72198873  0.16035627  1
  H+  H186  1  1.03397353  0.14159068  0.81378225  1
  H+  H187  1  0.36605562  0.65809331  0.98449046  1
  H+  H188  1  0.86892868  0.13084779  0.34630799  1
  H+  H189  1  0.03372091  0.88375626  0.48796004  1
  H+  H190  1  0.26448058  0.88923715  0.99412328  1
  H+  H191  1  0.48234411  0.36586479  0.66270340  1
  H+  H192  1  0.11980824  0.72624222  0.49348491  1
  H+  H193  1  0.12016752  0.89488090  0.82064329  1
  H+  H194  1  0.40857024  0.52749528  0.66357396  1
  H+  H195  1  0.37734601  0.15748230  0.32686504  1
  H+  H196  1  0.59630084  0.21608945  -0.01123302  1
  H+  H197  1  0.41955243  0.56663525  0.26133558  1
  H+  H198  1  -0.03005373  0.12812052  0.17705547  1
  H+  H199  1  0.11545850  0.72026226  0.33676582  1
  H+  H200  1  0.89992334  0.86445458  0.51583468  1
  H+  H201  1  0.61538402  0.48563365  0.49561529  1
  H+  H202  1  0.64242354  0.11016024  0.50480171  1
  H+  H203  1  0.03044097  0.91397556  -0.00711892  1
  H+  H204  1  0.47506888  0.91045760  0.28151846  1
  H+  H205  1  0.11640469  0.38673876  0.83082909  1
  H+  H206  1  0.38465955  0.53254164  0.16659885  1
  H+  H207  1  0.62053892  0.90973913  0.01126040  1
  H+  H208  1  0.49852601  0.87113116  0.82266854  1
  H+  H209  1  0.22657740  0.11023748  0.31667287  1
  H+  H210  1  0.70361693  0.37298162  0.52280426  1
  H+  H211  1  0.36326721  0.63220660  0.16667662  1
  H+  H212  1  0.12022227  0.98443747  0.82555682  1
  H+  H213  1  0.87990902  1.01868343  0.65225473  1
  H+  H214  1  0.49265651  0.89501822  0.99419532  1
  H+  H215  1  0.52623393  0.39127470  0.34972214  1
  H+  H216  1  0.22911328  0.11238659  0.49208542  1
  H+  H217  1  0.35400162  0.23335795  0.48639384  1
  H+  H218  1  0.13435243  0.00785816  0.64931542  1
  H+  H219  1  0.13101576  0.79643926  0.97682287  1
  H+  H220  1  0.82939254  0.60911142  0.36170110  1
  H+  H221  1  0.36507569  0.74500914  0.99316941  1
  H+  H222  1  0.62140307  0.71974410  0.83899834  1
  H+  H223  1  0.12788834  0.77081346  0.83373235  1
  H+  H224  1  0.85739871  0.73885869  0.16577761  1
  H+  H225  1  0.89638094  0.77408579  0.50833187  1
  H+  H226  1  0.62597090  0.26369803  0.66366344  1
  H+  H227  1  0.48668540  0.07633404  0.84185945  1
  H+  H228  1  0.62353270  0.61413326  0.17860505  1
  H+  H229  1  0.62307355  0.27239585  0.18872562  1
  H+  H230  1  0.38225053  0.72007139  0.66545108  1
  H+  H231  1  0.86969866  0.00197748  1.01811444  1
  H+  H232  1  0.19317391  0.60276497  0.86171083  1
  H+  H233  1  0.81008074  0.16816975  0.08547411  1
  H+  H234  1  0.64874265  0.36983083  0.33427890  1
  H+  H235  1  0.39932335  0.37743100  0.66579047  1
  H+  H236  1  0.60249413  0.73082443  0.17339874  1
  H+  H237  1  0.63141519  0.61427419  0.33280052  1
  H+  H238  1  -0.02626326  0.85043591  0.32398966  1
  H+  H239  1  0.37713177  1.01962523  -0.00658545  1
  H+  H240  1  0.90188293  0.81581781  0.99418509  1
  H+  H241  1  0.62517637  0.02044914  0.18597797  1
  H+  H242  1  0.38713214  0.87298650  0.31716945  1
  H+  H243  1  0.03632650  0.62574115  0.33805201  1
  H+  H244  1  0.89949121  0.51651142  0.31877064  1
  H+  H245  1  0.22715982  0.70208276  0.61976147  1
  H+  H246  1  0.36319128  0.22835550  0.84498079  1
  H+  H247  1  0.64267398  0.85839373  0.84284821  1
  H+  H248  1  0.13115350  0.48943983  0.01915441  1
  H+  H249  1  0.89984308  0.90245182  0.98960661  1
  H+  H250  1  0.37961870  0.82969412  0.50098176  1
  H+  H251  1  0.64063369  0.86311627  0.33957321  1
  H+  H252  1  0.50266256  0.14051215  0.67747399  1
  H+  H253  1  0.12050276  0.37533963  0.16641797  1
  H+  H254  1  0.72058385  0.35028977  0.65942020  1
  H+  H255  1  0.53197588  0.66498226  1.00920700  1
  H+  H256  1  0.63370469  0.75923504  0.50762781  1
  H+  H257  1  0.87007756  0.89277672  0.81901205  1
  H+  H258  1  0.13081739  0.39056199  0.48637849  1
  H+  H259  1  0.54848880  0.54390864  0.62701667  1
  H+  H260  1  0.52554021  0.63660393  0.33837943  1
  H+  H261  1  0.39100022  0.28406146  0.33343483  1
  H+  H262  1  0.24243682  0.61833696  0.32865377  1
  H+  H263  1  0.14437450  0.86411679  0.50279855  1
  H+  H264  1  -0.03171322  0.60185016  0.66122944  1
  H+  H265  1  0.10835552  0.21598344  0.33390388  1
  H+  H266  1  0.47702695  0.38269569  0.18344457  1
  H+  H267  1  0.51533240  0.61922094  0.49294173  1
  H+  H268  1  0.85223522  0.21892152  0.17639954  1
  H+  H269  1  0.21326959  0.08680981  0.16231302  1
  H+  H270  1  0.98676336  0.11926670  0.50677225  1
  H+  H271  1  0.36171533  0.84208507  0.15842906  1
  H+  H272  1  0.36979008  0.40705881  0.15828982  1
  H+  H273  1  0.89294900  1.02077880  0.82475680  1
  H+  H274  1  0.36537209  0.14370392  0.66872105  1
  H+  H275  1  0.38363143  0.65340458  0.33670525  1
  H+  H276  1  0.22238241  0.63212906  -0.00964381  1
  H+  H277  1  0.12093820  0.46439550  0.17257876  1
  H+  H278  1  0.21682107  0.35214581  0.33012551  1
  H+  H279  1  0.36094018  0.25233533  0.68269368  1
  H+  H280  1  0.88437156  0.76095861  0.32971795  1
  H+  H281  1  0.28536512  0.58755315  0.80291107  1
  H+  H282  1  0.12424947  0.66741958  0.00644112  1
  H+  H283  1  0.12153536  0.13950398  0.48784683  1
  H+  H284  1  0.89688576  0.38752832  0.48650627  1
  H+  H285  1  0.52209630  0.95641136  0.78925916  1
  H+  H286  1  0.34753703  0.84409711  0.82728680  1
  H+  H287  1  0.10542318  0.72617111  0.67531953  1
  H+  H288  1  0.17619137  0.59271853  0.55958909  1
  H+  H289  1  0.40017493  0.78183775  0.89743225  1
  H+  H290  1  0.92124397  0.08884343  0.59924038  1
  H+  H291  1  0.16841219  0.07452851  0.55122129  1
  H+  H292  1  0.37808195  0.73197042  0.83447864  1
  H+  H293  1  0.67553894  0.84565988  0.90642287  1
  H+  H294  1  0.57994751  0.67769245  0.11067828  1
  H+  H295  1  0.42023487  0.12433596  0.57300614  1
  H+  H296  1  0.68127220  0.09657158  0.93701135  1
  H+  H297  1  0.42294052  0.04879804  0.89875940  1
  H+  H298  1  0.22272432  0.09567145  0.64553709  1
  H+  H299  1  0.86028272  0.72471030  0.82415010  1
  H+  H300  1  0.82522143  0.66505574  0.41384491  1
  H+  H301  1  0.16743761  0.09769925  0.92789469  1
  H+  H302  1  0.86354396  0.97036806  0.15745804  1
  H+  H303  1  0.34524192  0.42321845  0.74199136  1
  H+  H304  1  0.41207189  0.56368282  0.56819302  1
  H+  H305  1  0.08314258  0.41267195  0.39384592  1
  H+  H306  1  0.90250417  0.45388248  1.03584186  1
  H+  H307  1  0.85236930  0.46783434  0.81418913  1
  H+  H308  1  0.83153642  0.66733457  0.72821619  1
  H+  H309  1  0.11386178  0.17903244  0.76586334  1
  H+  H310  1  0.09075534  0.66706768  0.43333554  1
  H+  H311  1  0.43512953  0.60068592  0.93369813  1
  H+  H312  1  0.57625756  0.89838630  0.72981646  1
  H+  H313  1  0.86753216  0.97609383  0.51522468  1
  H+  H314  1  0.65011735  0.57433176  0.56188704  1
  H+  H315  1  0.33848889  0.17405373  0.38837694  1
  H+  H316  1  0.33502925  0.42527096  0.09599183  1
  H+  H317  1  0.13072766  0.35555725  0.32156669  1
  H+  H318  1  0.08692372  0.62668596  0.10161664  1
  H+  H319  1  0.32215748  0.13517133  0.08520352  1
  H+  H320  1  0.65610714  0.58227272  0.23595824  1
  H+  H321  1  0.92879525  0.08792720  0.88002080  1
  H+  H322  1  0.92474575  0.84676355  0.89057127  1
  H+  H323  1  0.81376882  0.65687877  0.10335206  1
  H+  H324  1  0.57511619  0.65765479  0.43391842  1
  H+  H325  1  0.84182719  0.16407927  0.43700975  1
  H+  H326  1  0.84277021  0.91068010  0.39902878  1
  H+  H327  1  0.45032080  0.91272278  0.93749601  1
  H+  H328  1  0.16172964  0.28021041  0.49721944  1
  H+  H329  1  0.73652062  0.89163014  0.99746638  1
  H+  H330  1  0.14273833  0.80230435  0.22138609  1
  H+  H331  1  0.41711911  0.81278140  0.56338940  1
  H+  H332  1  0.34939689  0.65276842  0.72177355  1
  H+  H333  1  0.90821010  0.07083591  0.26602868  1
  H+  H334  1  0.39793197  0.82307435  0.22000211  1
  H+  H335  1  0.86403267  0.63356083  0.49966863  1
  H+  H336  1  0.66355435  0.55797091  0.90134027  1
  H+  H337  1  0.16071012  0.07061560  0.22518398  1
  H+  H338  1  0.65984353  0.07377850  0.24949865  1
  H+  H339  1  0.39615706  0.05062721  0.22365411  1
  H+  H340  1  0.08456678  0.91017044  0.39150029  1
  H+  H341  1  0.33631175  0.88852908  0.73749935  1
  H+  H342  1  0.64458349  0.32709721  0.57889661  1
  H+  H343  1  0.58300502  0.92702130  0.10548297  1
  H+  H344  1  0.93285318  0.82809151  0.60237697  1
  H+  H345  1  0.38970644  0.39559895  0.00197310  1
  H+  H346  1  0.67920195  0.32679553  0.88615781  1
  H+  H347  1  0.61632027  0.22761600  0.49861708  1
  H+  H348  1  -0.00702048  0.37845429  0.31685200  1
  H+  H349  1  0.67132046  0.34086503  0.27193291  1
  H+  H350  1  0.65023688  0.36680449  1.03013823  1
  H+  H351  1  0.83793286  0.16076756  0.72755701  1
  H+  H352  1  0.33094680  0.18059852  0.78226497  1
  H+  H353  1  0.58841773  0.91187552  0.41366835  1
  H+  H354  1  0.09965648  0.17623176  0.09475170  1
  H+  H355  1  0.63115165  0.62257987  0.65008446  1
  H+  H356  1  0.23064810  0.12053632  0.84643176  1
  H+  H357  1  0.11391559  0.72950324  0.05481866  1
  H+  H358  1  0.58510118  0.42016869  0.43213086  1
  H+  H359  1  0.57844613  0.15460260  0.76402802  1
  H+  H360  1  0.75766977  0.13166342  0.18082023  1
  H+  H361  1  0.43933031  0.33785112  0.91533270  1
  H+  H362  1  0.30713258  0.89076095  0.09159875  1
  H+  H363  1  0.85322228  0.41811518  0.39184386  1
  H+  H364  1  0.27826072  0.14177812  -0.00254765  1
  H+  H365  1  0.17639420  0.57695644  0.24352256  1
  H+  H366  1  0.16530656  0.85073847  0.91522592  1
  H+  H367  1  0.31355631  0.88729421  0.39199796  1
  H+  H368  1  0.87641356  0.12312906  0.66429276  1
  H+  H369  1  0.17427590  0.32520776  0.23425584  1
  H+  H370  1  0.88774606  0.14345637  1.03699577  1
  H+  H371  1  0.48663304  0.84968722  0.65426672  1
  H+  H372  1  0.65085779  0.79520944  0.60447826  1
  H+  H373  1  0.62839452  0.06146282  0.59673407  1
  H+  H374  1  0.59364413  0.17289802  0.40398877  1
  H+  H375  1  0.10255071  0.42231117  0.07372289  1
  H+  H376  1  0.34699736  0.05088807  0.65599291  1
  H+  H377  1  0.12289943  0.12917117  0.15782987  1
  H+  H378  1  0.92756844  0.34693605  0.25119337  1
  H+  H379  1  0.58114666  0.40854670  0.76973973  1
  H+  H380  1  0.92332785  0.56374374  0.21983548  1
  H+  H381  1  0.65191630  0.82918507  0.24136698  1
  H+  H382  1  0.07160487  0.66260118  0.76999289  1
  H+  H383  1  0.27985551  0.38554443  0.44701209  1
  O2-  O384  1  0.10043157  0.16972813  0.14407588  1
  O2-  O385  1  0.09626474  0.17589685  0.47547784  1
  O2-  O386  1  0.09788274  0.17523365  0.80976472  1
  O2-  O387  1  0.08949355  0.40584648  0.15451889  1
  O2-  O388  1  0.09430419  0.41483517  0.47296624  1
  O2-  O389  1  0.08662376  0.41724131  0.81495646  1
  O2-  O390  1  0.08487215  0.63417190  0.14546296  1
  O2-  O391  1  0.09082119  0.66543770  0.47898233  1
  O2-  O392  1  0.06977278  0.66627942  0.81518210  1
  O2-  O393  1  0.05746309  0.88850578  0.14721608  1
  O2-  O394  1  0.09293644  0.91148813  0.46999610  1
  O2-  O395  1  0.08974162  0.92572491  0.80715700  1
  O2-  O396  1  0.31616801  0.12452323  0.13120802  1
  O2-  O397  1  0.33332053  0.17571512  0.46554109  1
  O2-  O398  1  0.32804114  0.17067503  0.82662151  1
  O2-  O399  1  0.33337694  0.42954737  0.14027966  1
  O2-  O400  1  0.28020261  0.38510200  0.49292386  1
  O2-  O401  1  0.34263017  0.41489537  0.82445963  1
  O2-  O402  1  0.32481453  0.65655513  0.15174515  1
  O2-  O403  1  0.33180975  0.64534077  0.48666780  1
  O2-  O404  1  0.34391719  0.63524850  0.79877719  1
  O2-  O405  1  0.30402812  0.88187104  0.13697592  1
  O2-  O406  1  0.32014076  0.87382662  0.46858747  1
  O2-  O407  1  0.32844507  0.88316738  0.81030657  1
  O2-  O408  1  0.56990397  0.16462626  0.19319939  1
  O2-  O409  1  0.58889654  0.16848201  0.48220904  1
  O2-  O410  1  0.58537696  0.15387059  0.80909387  1
  O2-  O411  1  0.56531480  0.41256798  0.15151802  1
  O2-  O412  1  0.58155765  0.42223975  0.47950118  1
  O2-  O413  1  0.58319834  0.40668238  0.81503505  1
  O2-  O414  1  0.57389679  0.66897986  0.15537939  1
  O2-  O415  1  0.57590930  0.65275800  0.47949499  1
  O2-  O416  1  0.58768594  0.65966160  0.82473743  1
  O2-  O417  1  0.57485524  0.91997659  0.15060632  1
  O2-  O418  1  0.58784901  0.90877053  0.48736437  1
  O2-  O419  1  0.54731986  0.92183113  0.80227120  1
  O2-  O420  1  0.81727616  0.15767308  0.16323536  1
  O2-  O421  1  0.84383279  0.16806234  0.48345718  1
  O2-  O422  1  0.83399998  0.16096440  0.80004964  1
  O2-  O423  1  0.79146430  0.43156669  0.13147506  1
  O2-  O424  1  0.86615673  0.41772035  0.46846016  1
  O2-  O425  1  0.82393706  0.40617443  0.79807056  1
  O2-  O426  1  0.81309605  0.66940932  0.14761835  1
  O2-  O427  1  0.83397477  0.66530927  0.48685202  1
  O2-  O428  1  0.82856512  0.66515566  0.80813926  1
  O2-  O429  1  0.84176348  0.91546496  0.13573870  1
  O2-  O430  1  0.83582618  0.91270627  0.52261112  1
  O2-  O431  1  0.84091487  0.92555854  0.80796141  1
  O2-  O432  1  0.15497385  0.06772654  0.17943191  1
  O2-  O433  1  0.16791012  0.07789346  0.50588470  1
  O2-  O434  1  0.16730139  0.08718591  0.85941658  1
  O2-  O435  1  0.17450751  0.32135752  0.18819631  1
  O2-  O436  1  0.18960337  0.34244295  0.51236926  1
  O2-  O437  1  0.17248015  0.33713904  0.85773073  1
  O2-  O438  1  0.17610136  0.57167083  0.19756564  1
  O2-  O439  1  0.17259274  0.58255881  0.51473302  1
  O2-  O440  1  0.13170381  0.56799825  0.86916312  1
  O2-  O441  1  0.14018233  0.79748824  0.17599004  1
  O2-  O442  1  0.17349259  0.83282397  0.51955333  1
  O2-  O443  1  0.16418463  0.83371579  0.84414666  1
  O2-  O444  1  0.39256156  0.04004920  0.17948605  1
  O2-  O445  1  0.42700089  0.11478875  0.52908203  1
  O2-  O446  1  0.43879918  0.02621669  0.86274961  1
  O2-  O447  1  0.41880475  0.36769384  0.20254128  1
  O2-  O448  1  0.38661162  0.32147774  0.52419062  1
  O2-  O449  1  0.42875250  0.33755381  0.87124642  1
  O2-  O450  1  0.41307505  0.58977871  0.18737794  1
  O2-  O451  1  0.39990266  0.55839062  0.52274739  1
  O2-  O452  1  0.43075784  0.58201670  0.85923085  1
  O2-  O453  1  0.39725255  0.81672214  0.17520915  1
  O2-  O454  1  0.41441489  0.80531701  0.51769626  1
  O2-  O455  1  0.40221469  0.79018686  0.85318429  1
  O2-  O456  1  0.65598092  0.07928948  0.20421539  1
  O2-  O457  1  0.67304331  0.08166197  0.52170613  1
  O2-  O458  1  0.67567874  0.08383203  0.85503840  1
  O2-  O459  1  0.65027387  0.33554208  0.19740501  1
  O2-  O460  1  0.64355040  0.33275372  0.53203103  1
  O2-  O461  1  0.67126004  0.32383750  0.84228262  1
  O2-  O462  1  0.65469896  0.58277994  0.19053848  1
  O2-  O463  1  0.66252220  0.57630627  0.51702237  1
  O2-  O464  1  0.66764523  0.56951334  0.85731402  1
  O2-  O465  1  0.64421040  0.82220039  0.19671858  1
  O2-  O466  1  0.66023571  0.81628963  0.52825137  1
  O2-  O467  1  0.67550959  0.83482341  0.86163888  1
  O2-  O468  1  0.90919254  0.08463331  0.18038677  1
  O2-  O469  1  0.92746845  0.08878327  0.52369491  1
  O2-  O470  1  0.92676244  0.08584341  0.83573079  1
  O2-  O471  1  0.92507907  0.32749991  0.18494235  1
  O2-  O472  1  0.93196828  0.33204357  0.51901119  1
  O2-  O473  1  0.90792645  0.33207761  0.84068364  1
  O2-  O474  1  0.91533025  0.56889056  0.17591394  1
  O2-  O475  1  0.92276660  0.58381715  0.51810873  1
  O2-  O476  1  0.89334976  0.56175760  0.84259419  1
  O2-  O477  1  0.90454570  0.81288995  0.18788457  1
  O2-  O478  1  0.93386507  0.83474210  0.52142550  1
  O2-  O479  1  0.92227987  0.83759255  0.84629725  1
  O2-  O480  1  0.16598109  0.07654537  0.30250521  1
  O2-  O481  1  0.16413104  0.06662024  0.62930668  1
  O2-  O482  1  0.16960978  0.09744023  0.97521990  1
  O2-  O483  1  0.16065725  0.32430674  0.30794326  1
  O2-  O484  1  0.18996932  0.34097629  0.64304853  1
  O2-  O485  1  0.17119104  0.33483979  0.98381496  1
  O2-  O486  1  0.18020188  0.58373608  0.31746953  1
  O2-  O487  1  0.20245879  0.64174127  0.63121044  1
  O2-  O488  1  0.15806524  0.60095941  0.99207459  1
  O2-  O489  1  0.15035835  0.81623815  0.30045139  1
  O2-  O490  1  0.17093117  0.83127436  0.64429673  1
  O2-  O491  1  0.16391306  0.85665717  0.96139915  1
  O2-  O492  1  0.44987545  0.12468388  0.29405309  1
  O2-  O493  1  0.39082836  0.11078087  0.64956338  1
  O2-  O494  1  0.40797007  0.07718543  0.97359326  1
  O2-  O495  1  0.42133042  0.34886707  0.32859191  1
  O2-  O496  1  0.42144834  0.34064580  0.64842844  1
  O2-  O497  1  0.44011423  0.33404183  1.00231337  1
  O2-  O498  1  0.43018801  0.55158823  0.30332643  1
  O2-  O499  1  0.43784642  0.58268203  0.64011010  1
  O2-  O500  1  0.43403149  0.60898007  0.97917892  1
  O2-  O501  1  0.42841978  0.85703445  0.29836497  1
  O2-  O502  1  0.42536155  0.81898770  0.63830999  1
  O2-  O503  1  0.43613037  0.87294949  0.97162244  1
  O2-  O504  1  0.67359539  0.08144824  0.32452895  1
  O2-  O505  1  0.59280568  0.04487900  0.63421441  1
  O2-  O506  1  0.67480292  0.09828700  0.98183640  1
  O2-  O507  1  0.67968700  0.34173662  0.31744310  1
  O2-  O508  1  0.65782037  0.32442462  0.64816822  1
  O2-  O509  1  0.70899147  0.41431643  1.02545019  1
  O2-  O510  1  0.65932147  0.58130631  0.31736030  1
  O2-  O511  1  0.60989930  0.56464412  0.63193258  1
  O2-  O512  1  0.63839855  0.52334150  0.98362683  1
  O2-  O513  1  0.66568526  0.82943785  0.32151338  1
  O2-  O514  1  0.65506117  0.80005539  0.65049659  1
  O2-  O515  1  0.67525062  0.86222385  0.98348917  1
  O2-  O516  1  0.91635899  0.07214017  0.31054997  1
  O2-  O517  1  0.91154348  0.08209326  0.64469868  1
  O2-  O518  1  0.91992289  0.11086258  1.04406171  1
  O2-  O519  1  0.93203799  0.35194687  0.29860184  1
  O2-  O520  1  0.92234032  0.32630119  0.64444670  1
  O2-  O521  1  0.90936805  0.35040122  1.07090544  1
  O2-  O522  1  0.94039047  0.57368306  0.29953732  1
  O2-  O523  1  0.90917941  0.56919425  0.64440372  1
  O2-  O524  1  0.92497726  0.54955259  1.02097209  1
  O2-  O525  1  0.91195709  0.81855719  0.31038011  1
  O2-  O526  1  0.92884006  0.83054311  0.64743179  1
  O2-  O527  1  0.93205366  0.87208220  0.97482099  1
  O2-  O528  1  0.08944965  0.18044973  0.03238520  1
  O2-  O529  1  0.08275893  0.15624090  0.34968979  1
  O2-  O530  1  0.16557292  0.19364308  0.69732079  1
  O2-  O531  1  0.11760007  0.43084141  0.02995102  1
  O2-  O532  1  0.08317281  0.41585029  0.34827804  1
  O2-  O533  1  0.08615255  0.40491404  0.68589608  1
  O2-  O534  1  0.09219002  0.69950851  0.01624436  1
  O2-  O535  1  0.09440264  0.66255624  0.35610055  1
  O2-  O536  1  0.07620316  0.66584692  0.69068012  1
  O2-  O537  1  0.09436896  0.94177091  0.00297308  1
  O2-  O538  1  0.07919795  0.90756317  0.34593544  1
  O2-  O539  1  0.09127318  0.91484539  0.68420430  1
  O2-  O540  1  0.33609642  0.16268600  0.01568580  1
  O2-  O541  1  0.33918811  0.17829462  0.34273033  1
  O2-  O542  1  0.31811997  0.19438375  0.70094079  1
  O2-  O543  1  0.35673557  0.42555271  -0.00683608  1
  O2-  O544  1  0.31142117  0.40155273  0.37044890  1
  O2-  O545  1  0.34944143  0.42824961  0.69683505  1
  O2-  O546  1  0.33173556  0.68657876  -0.02285891  1
  O2-  O547  1  0.35050614  0.68244777  0.34204900  1
  O2-  O548  1  0.34763561  0.65734045  0.67656774  1
  O2-  O549  1  0.31907621  0.91271297  0.01774082  1
  O2-  O550  1  0.31729489  0.89931826  0.34711228  1
  O2-  O551  1  0.34037716  0.89406391  0.69115677  1
  O2-  O552  1  0.57142316  0.16197112  0.01069796  1
  O2-  O553  1  0.59604898  0.17161300  0.35862979  1
  O2-  O554  1  0.56320624  0.15937774  0.68668348  1
  O2-  O555  1  0.52641001  0.36118379  0.02646761  1
  O2-  O556  1  0.58770956  0.42075040  0.36389549  1
  O2-  O557  1  0.58385321  0.41497574  0.69079618  1
  O2-  O558  1  0.58955149  0.69877991  0.03027276  1
  O2-  O559  1  0.58271883  0.66746214  0.35819890  1
  O2-  O560  1  0.61858792  0.71189105  0.67389820  1
  O2-  O561  1  0.58805502  0.93756457  0.02711956  1
  O2-  O562  1  0.58909192  0.91469982  0.36756545  1
  O2-  O563  1  0.58147384  0.89451531  0.68520075  1
  O2-  O564  1  0.82530077  0.18541904  0.04200045  1
  O2-  O565  1  0.84225539  0.16221159  0.36451476  1
  O2-  O566  1  0.84445719  0.16217312  0.68129944  1
  O2-  O567  1  0.85986494  0.39137666  0.04875130  1
  O2-  O568  1  0.84657669  0.41817161  0.34652924  1
  O2-  O569  1  0.82592731  0.39937988  0.67766248  1
  O2-  O570  1  0.80367369  0.61375819  0.03087494  1
  O2-  O571  1  0.82113922  0.65821386  0.36766017  1
  O2-  O572  1  0.83654560  0.67160385  0.68308467  1
  O2-  O573  1  0.84307078  0.93825583  0.01906405  1
  O2-  O574  1  0.83657687  0.90674839  0.35487035  1
  O2-  O575  1  0.83507013  0.90826067  0.64488783  1
