# generated using pymatgen
data_H2O
_symmetry_space_group_name_H-M   'P 1'
_cell_length_a   17.98943780
_cell_length_b   17.99199906
_cell_length_c   22.01638940
_cell_angle_alpha   89.99721341
_cell_angle_beta   89.99315572
_cell_angle_gamma   120.00656085
_symmetry_Int_Tables_number   1
_chemical_formula_structural   H2O
_chemical_formula_sum   'H384 O192'
_cell_volume   6170.85040706
_cell_formula_units_Z   192
loop_
 _symmetry_equiv_pos_site_id
 _symmetry_equiv_pos_as_xyz
  1  'x, y, z'
loop_
 _atom_type_symbol
 _atom_type_oxidation_number
  H+  1.0
  O2-  -2.0
loop_
 _atom_site_type_symbol
 _atom_site_label
 _atom_site_symmetry_multiplicity
 _atom_site_fract_x
 _atom_site_fract_y
 _atom_site_fract_z
 _atom_site_occupancy
  H+  H0  1  0.13146204  0.85763082  0.65578774  1
  H+  H1  1  0.23929795  0.38623401  0.64727771  1
  H+  H2  1  0.72547732  0.11994147  0.66419726  1
  H+  H3  1  0.59308009  0.83286342  0.13334303  1
  H+  H4  1  0.73362292  0.36333346  0.15181941  1
  H+  H5  1  0.90262582  0.76770373  0.98738730  1
  H+  H6  1  0.14886968  0.26915499  0.84357673  1
  H+  H7  1  0.60816423  0.51739501  0.98651655  1
  H+  H8  1  0.88890840  0.36157904  0.84813377  1
  H+  H9  1  0.64946101  0.72735456  0.18320700  1
  H+  H10  1  0.10995858  0.38248571  0.15790214  1
  H+  H11  1  0.72607058  0.86280920  0.83821559  1
  H+  H12  1  0.35528236  0.19507998  0.31552247  1
  H+  H13  1  0.27452215  0.14873328  0.84102710  1
  H+  H14  1  0.34271020  0.72274221  0.68445459  1
  H+  H15  1  0.07662945  0.12865230  0.48529772  1
  H+  H16  1  0.60124184  0.97860761  0.67864164  1
  H+  H17  1  0.50568037  0.96920748  0.45148394  1
  H+  H18  1  0.88497501  0.02976297  0.84402936  1
  H+  H19  1  0.88001179  0.36438665  0.32606341  1
  H+  H20  1  0.37963749  0.61012927  0.49120003  1
  H+  H21  1  0.16452074  0.33078843  0.22952214  1
  H+  H22  1  0.59983079  0.37336066  0.00000949  1
  H+  H23  1  0.76051875  0.38006877  0.68250656  1
  H+  H24  1  0.36633039  0.04828699  0.16467444  1
  H+  H25  1  0.12805660  0.61267410  0.84176180  1
  H+  H26  1  0.10582175  0.47384071  0.33884829  1
  H+  H27  1  0.90572021  0.52218200  0.99667244  1
  H+  H28  1  0.35985663  0.37049939  0.15946632  1
  H+  H29  1  0.36314752  0.11349112  0.33438627  1
  H+  H30  1  0.43851974  0.84715574  0.77075327  1
  H+  H31  1  0.87696019  0.63695464  0.16332555  1
  H+  H32  1  0.14774938  0.75693208  0.50264088  1
  H+  H33  1  0.47646250  0.10922770  0.50959821  1
  H+  H34  1  0.97325494  0.86639212  0.66838734  1
  H+  H35  1  0.13397944  0.36096549  0.32665527  1
  H+  H36  1  0.97686676  0.85958135  0.55216964  1
  H+  H37  1  0.93593504  0.60662624  0.52718101  1
  H+  H38  1  0.61102749  0.23408492  0.49831833  1
  H+  H39  1  0.98866852  0.86076517  0.16732246  1
  H+  H40  1  0.64870173  0.87356297  0.98820580  1
  H+  H41  1  0.72863745  0.62189617  0.31827328  1
  H+  H42  1  0.87574249  0.73293566  0.48638410  1
  H+  H43  1  0.84044548  0.48362556  0.48445275  1
  H+  H44  1  0.22274823  0.10400366  0.32556277  1
  H+  H45  1  0.36858681  0.39391060  0.33177065  1
  H+  H46  1  0.76111715  0.85056208  0.19279034  1
  H+  H47  1  0.76869491  0.38391658  0.84722483  1
  H+  H48  1  0.86337225  0.15487555  0.68096501  1
  H+  H49  1  0.62882425  1.03706173  0.50094195  1
  H+  H50  1  1.03065246  0.38683224  0.84086501  1
  H+  H51  1  0.70214385  0.61950423  0.84057435  1
  H+  H52  1  0.63848678  0.27762967  0.85537254  1
  H+  H53  1  0.88553788  0.27186312  0.32756891  1
  H+  H54  1  0.11077203  0.38630952  0.48810439  1
  H+  H55  1  0.24046900  0.10541074  1.00592003  1
  H+  H56  1  0.26863078  0.38316294  0.48478138  1
  H+  H57  1  0.59238700  1.00507445  0.15130457  1
  H+  H58  1  0.86831540  0.90826872  0.68231506  1
  H+  H59  1  0.23253555  0.61065289  0.18127436  1
  H+  H60  1  0.13494849  0.27772816  0.50027363  1
  H+  H61  1  0.68084476  0.79175826  0.55865797  1
  H+  H62  1  0.12018969  0.38712822  0.84183803  1
  H+  H63  1  0.73480308  0.63225643  0.50915068  1
  H+  H64  1  0.17488293  0.10404590  0.49587592  1
  H+  H65  1  0.88789921  0.64109628  0.00726028  1
  H+  H66  1  -0.00266130  0.61046740  0.00283606  1
  H+  H67  1  0.64117437  1.03168340  0.85327165  1
  H+  H68  1  0.36457000  0.88755925  1.02238190  1
  H+  H69  1  0.35580648  0.97956838  0.67323108  1
  H+  H70  1  0.12659775  0.61362571  0.67795987  1
  H+  H71  1  0.63184683  0.11713913  -0.00505786  1
  H+  H72  1  0.14238797  0.11856442  0.86463908  1
  H+  H73  1  0.89814345  0.03053700  0.17277583  1
  H+  H74  1  0.26495794  0.11072578  0.49305158  1
  H+  H75  1  0.51557075  0.38923465  0.48201060  1
  H+  H76  1  0.35846987  0.89006057  0.82129404  1
  H+  H77  1  -0.01283902  0.14502993  0.67210169  1
  H+  H78  1  1.03157925  0.63684742  0.34692428  1
  H+  H79  1  0.63175574  0.87268684  0.14507035  1
  H+  H80  1  0.88745560  0.05637419  0.52886736  1
  H+  H81  1  0.63726103  0.02358245  0.32399201  1
  H+  H82  1  0.85278891  0.14363039  0.48732679  1
  H+  H83  1  0.11425286  -0.03054530  0.66626403  1
  H+  H84  1  0.84663286  0.63493805  0.49107497  1
  H+  H85  1  0.60228457  0.63464438  0.83770596  1
  H+  H86  1  0.27248460  0.63392053  0.34110221  1
  H+  H87  1  0.61929386  0.74695493  0.70182666  1
  H+  H88  1  0.47286542  0.11477268  0.65081296  1
  H+  H89  1  0.36776694  0.21534858  0.01924936  1
  H+  H90  1  0.87341147  0.72390549  0.16157021  1
  H+  H91  1  0.08286142  0.20109338  0.74761774  1
  H+  H92  1  0.87535882  0.36032524  0.15278311  1
  H+  H93  1  0.78352237  0.38522643  -0.00910429  1
  H+  H94  1  0.11857819  0.89994440  0.82539937  1
  H+  H95  1  0.41560481  0.33487659  0.59564308  1
  H+  H96  1  0.14682251  0.52795172  0.49324550  1
  H+  H97  1  0.14436228  0.35999119  0.99209416  1
  H+  H98  1  0.38727505  0.77071497  0.32513448  1
  H+  H99  1  0.38055640  0.41740887  0.81499337  1
  H+  H100  1  0.36749564  0.71633699  0.49656221  1
  H+  H101  1  0.37564939  0.86366704  0.66461213  1
  H+  H102  1  0.87104801  0.87804968  -0.00170716  1
  H+  H103  1  0.86301458  0.22772353  0.15590209  1
  H+  H104  1  0.97602059  0.86728008  0.83305063  1
  H+  H105  1  0.86870269  0.23298607  0.83445916  1
  H+  H106  1  0.89668428  0.51901372  0.85138431  1
  H+  H107  1  0.64242644  0.51625579  0.16380913  1
  H+  H108  1  0.60949513  0.23456830  0.00582480  1
  H+  H109  1  0.14576184  0.30554893  0.65604098  1
  H+  H110  1  0.77685997  0.13708349  0.15880935  1
  H+  H111  1  0.76473108  0.38022287  0.32242578  1
  H+  H112  1  0.46564488  0.85567511  0.51292972  1
  H+  H113  1  0.38355477  0.13952774  0.48370108  1
  H+  H114  1  0.02107527  0.13377320  0.33369351  1
  H+  H115  1  0.60090979  0.69170520  0.47939321  1
  H+  H116  1  0.05746596  0.63832221  0.49047181  1
  H+  H117  1  0.37408495  0.62277296  0.66036907  1
  H+  H118  1  0.86902734  0.63597332  0.68011719  1
  H+  H119  1  0.47287537  0.10127477  0.33335029  1
  H+  H120  1  0.27423649  0.62706967  0.48846701  1
  H+  H121  1  0.41242555  0.83462294  0.26738028  1
  H+  H122  1  0.05345912  0.88816321  0.47622286  1
  H+  H123  1  0.10960770  0.73293176  0.68226392  1
  H+  H124  1  0.85893621  0.23214850  0.49095567  1
  H+  H125  1  0.11435171  0.47292819  0.15919956  1
  H+  H126  1  0.87701418  -0.03040579  1.00031323  1
  H+  H127  1  0.13820410  0.51705744  0.84868619  1
  H+  H128  1  0.09902273  0.66810706  0.10535556  1
  H+  H129  1  0.53092946  0.38496826  0.15845039  1
  H+  H130  1  0.36229329  0.37714778  0.00338803  1
  H+  H131  1  0.25209678  0.63286410  0.68564790  1
  H+  H132  1  -0.01922235  0.37044199  0.33224207  1
  H+  H133  1  0.61558804  0.98239441  -0.00278862  1
  H+  H134  1  0.27446121  0.38477193  0.33064161  1
  H+  H135  1  0.38793638  0.11967290  0.66389238  1
  H+  H136  1  0.73398788  0.60589683  0.16727813  1
  H+  H137  1  0.37242791  0.87455147  0.18005715  1
  H+  H138  1  0.82397434  0.46622174  0.12393707  1
  H+  H139  1  0.27288961  0.37316879  0.15709837  1
  H+  H140  1  0.35989933  0.73621187  0.16145959  1
  H+  H141  1  0.56274465  0.40564281  0.38731894  1
  H+  H142  1  0.73426416  0.86513689  -0.01218057  1
  H+  H143  1  0.37533009  0.84657710  0.51373717  1
  H+  H144  1  0.66829402  0.58465656  0.26074911  1
  H+  H145  1  0.61878555  0.38510533  0.14929710  1
  H+  H146  1  0.13895544  0.85971432  0.17369662  1
  H+  H147  1  0.23119474  0.88585359  0.84757224  1
  H+  H148  1  0.60479139  0.72968807  0.83483235  1
  H+  H149  1  0.18523718  0.80930861  0.95461686  1
  H+  H150  1  0.63255631  0.26723526  0.31943084  1
  H+  H151  1  0.13941634  0.76581988  0.32827227  1
  H+  H152  1  -0.00678870  0.10438726  -0.00645536  1
  H+  H153  1  1.03064093  0.13593989  0.16081671  1
  H+  H154  1  0.60686186  0.60586248  -0.00934167  1
  H+  H155  1  0.32013129  0.60135464  0.00667693  1
  H+  H156  1  0.85841610  0.40907183  0.46969168  1
  H+  H157  1  0.63054966  0.87379491  0.69970050  1
  H+  H158  1  0.52982471  0.89646257  0.84057698  1
  H+  H159  1  0.02489802  0.62035341  0.83976550  1
  H+  H160  1  0.60338843  0.39033732  0.48099735  1
  H+  H161  1  0.91937994  0.32146143  0.58867251  1
  H+  H162  1  1.02352230  0.38385545  0.66984868  1
  H+  H163  1  0.54111525  0.64826229  0.17146080  1
  H+  H164  1  0.97190320  0.13891178  0.50623331  1
  H+  H165  1  0.72605566  0.11368505  0.32247180  1
  H+  H166  1  0.46892699  0.34559602  -0.01005072  1
  H+  H167  1  0.12905330  0.87193102  0.00893784  1
  H+  H168  1  0.62723818  0.62765306  0.16644090  1
  H+  H169  1  0.12618151  0.52417668  0.67147354  1
  H+  H170  1  0.36255417  0.87716211  0.34478779  1
  H+  H171  1  0.27284527  0.90396253  0.16600017  1
  H+  H172  1  0.35710588  0.64310094  0.83284552  1
  H+  H173  1  0.86747739  0.64002842  0.33279127  1
  H+  H174  1  0.41789830  0.64155016  0.17068740  1
  H+  H175  1  0.84323974  0.72785361  0.82061841  1
  H+  H176  1  0.61558648  0.14207301  0.64723021  1
  H+  H177  1  0.89400333  0.11825635  0.17204412  1
  H+  H178  1  0.66825343  0.09324248  0.93619888  1
  H+  H179  1  0.00494953  0.12925262  0.83423911  1
  H+  H180  1  0.15238607  0.10807748  0.00304223  1
  H+  H181  1  0.83933230  0.36371544  0.69052014  1
  H+  H182  1  0.55720468  0.79818682  0.46339122  1
  H+  H183  1  0.35288972  0.15366665  0.10739541  1
  H+  H184  1  0.11900921  0.88075398  0.32519570  1
  H+  H185  1  0.99042082  0.85656253  0.98566024  1
  H+  H186  1  0.72496240  0.12008347  0.50079340  1
  H+  H187  1  0.64354680  0.58822411  0.61358885  1
  H+  H188  1  0.51346667  0.88913015  0.67642894  1
  H+  H189  1  0.13727302  0.60881776  0.33110134  1
  H+  H190  1  0.88933690  0.02619924  0.32365482  1
  H+  H191  1  0.86715867  0.14267218  0.33344903  1
  H+  H192  1  0.86207596  0.71933185  0.68075196  1
  H+  H193  1  0.12001111  0.13502318  0.16081930  1
  H+  H194  1  0.63552659  0.12736479  0.17323467  1
  H+  H195  1  0.61701535  0.63695278  0.32812331  1
  H+  H196  1  0.87114897  0.88786473  0.32904191  1
  H+  H197  1  0.22845576  0.85493019  0.32912877  1
  H+  H198  1  0.61957469  0.15096691  0.83737788  1
  H+  H199  1  0.84989154  0.92050553  0.10243266  1
  H+  H200  1  0.36059830  0.96561863  0.49900638  1
  H+  H201  1  0.63438979  0.59834117  0.50505172  1
  H+  H202  1  0.44065556  0.30884009  0.36018293  1
  H+  H203  1  0.17983886  0.88825343  0.90569596  1
  H+  H204  1  0.61210496  0.23431251  0.15400940  1
  H+  H205  1  0.88701413  0.89503923  0.15905465  1
  H+  H206  1  0.40503332  0.26301519  0.18736675  1
  H+  H207  1  0.80640590  0.65978409  0.76704300  1
  H+  H208  1  0.33578748  0.42935751  0.72019240  1
  H+  H209  1  0.84593178  0.93947672  0.48787978  1
  H+  H210  1  0.51753203  0.15131553  0.15677885  1
  H+  H211  1  0.14681895  0.97167416  0.47774214  1
  H+  H212  1  0.38507966  1.00937971  0.33632367  1
  H+  H213  1  0.12822946  0.22356310  0.00648845  1
  H+  H214  1  0.73105095  0.12125585  0.84647958  1
  H+  H215  1  0.14947282  0.84939289  0.50187495  1
  H+  H216  1  0.58222134  0.17289357  0.59265924  1
  H+  H217  1  0.38249784  0.53674071  0.83853638  1
  H+  H218  1  0.90155284  0.36764224  0.99008304  1
  H+  H219  1  0.38075873  0.35894797  0.49927075  1
  H+  H220  1  0.13831315  0.64532910  0.02146557  1
  H+  H221  1  0.85671373  0.23883077  0.67801121  1
  H+  H222  1  0.69895261  0.71621328  0.53630724  1
  H+  H223  1  0.72965604  0.86377928  0.33877053  1
  H+  H224  1  0.32419407  0.66623480  0.10785684  1
  H+  H225  1  0.88812482  0.34755901  0.52261408  1
  H+  H226  1  0.38963342  0.27427874  0.49830332  1
  H+  H227  1  0.14645766  0.09915197  0.63037508  1
  H+  H228  1  0.59768506  0.64207229  0.68635818  1
  H+  H229  1  0.33615417  0.18134145  0.73708104  1
  H+  H230  1  0.52257939  0.38616103  0.67175504  1
  H+  H231  1  0.78508717  0.84000890  0.49089536  1
  H+  H232  1  0.47174516  0.62350326  0.84720192  1
  H+  H233  1  0.12703862  0.72840363  0.16530029  1
  H+  H234  1  0.38745456  0.01969991  1.00336951  1
  H+  H235  1  0.57076598  0.81690521  0.49466310  1
  H+  H236  1  0.63581150  0.37257777  0.66334240  1
  H+  H237  1  0.12140558  0.97240251  0.15475730  1
  H+  H238  1  0.61947347  0.14758313  0.49952730  1
  H+  H239  1  0.91608251  0.52675845  0.17862487  1
  H+  H240  1  0.50372029  0.64487636  0.00188840  1
  H+  H241  1  0.13320943  0.19106113  0.69447273  1
  H+  H242  1  0.47202402  0.60010205  0.48380813  1
  H+  H243  1  0.88636770  0.12169729  0.84187623  1
  H+  H244  1  0.46070685  0.88046271  0.17099560  1
  H+  H245  1  0.93568560  0.58336947  0.90716953  1
  H+  H246  1  0.86947990  0.55934557  0.57737501  1
  H+  H247  1  0.14459558  0.61125251  0.17835403  1
  H+  H248  1  0.38728024  0.52865453  0.32047264  1
  H+  H249  1  0.27264103  0.87338019  0.50069346  1
  H+  H250  1  0.11887929  0.40349751  0.66279476  1
  H+  H251  1  0.89242121  0.77559902  0.31899540  1
  H+  H252  1  0.52588832  0.63766887  0.32977197  1
  H+  H253  1  0.28212177  0.39240906  0.82295647  1
  H+  H254  1  0.63906298  0.77399135  0.33671818  1
  H+  H255  1  1.01865342  0.37850706  0.49530548  1
  H+  H256  1  0.47514089  0.85704883  0.99899325  1
  H+  H257  1  0.72559206  0.88233269  0.69725057  1
  H+  H258  1  0.53073019  0.14958148  0.83772067  1
  H+  H259  1  0.60606141  0.52240197  0.66879429  1
  H+  H260  1  0.23645162  0.10537033  0.17585469  1
  H+  H261  1  0.37063344  0.51451624  -0.00644390  1
  H+  H262  1  0.26714116  0.88896603  0.67284423  1
  H+  H263  1  0.61404538  0.88801837  0.34371257  1
  H+  H264  1  0.63709646  0.28420362  0.65028799  1
  H+  H265  1  0.13622704  0.26968091  0.17123102  1
  H+  H266  1  0.67202682  0.33328104  0.21539262  1
  H+  H267  1  0.12896659  0.96299058  0.00702914  1
  H+  H268  1  0.77241764  0.15061138  1.00620252  1
  H+  H269  1  0.36636954  0.39619687  0.66316975  1
  H+  H270  1  0.16629741  0.57701252  0.27142621  1
  H+  H271  1  0.91768631  0.86797991  0.50076677  1
  H+  H272  1  0.49816591  0.33687100  0.82212160  1
  H+  H273  1  1.03967921  0.39304572  1.00294705  1
  H+  H274  1  0.15839674  0.62345746  0.49088219  1
  H+  H275  1  0.59765825  0.72690776  0.99743727  1
  H+  H276  1  0.87423885  0.00108732  0.68034279  1
  H+  H277  1  0.96476679  0.36224614  0.15836700  1
  H+  H278  1  0.68344236  0.34995104  1.03464479  1
  H+  H279  1  0.71587309  0.36810693  0.50229240  1
  H+  H280  1  0.86887146  0.89672949  0.83272608  1
  H+  H281  1  0.31506044  0.28250779  0.84870901  1
  H+  H282  1  0.13426206  0.73438507  0.01973795  1
  H+  H283  1  0.38633587  0.28003050  0.65738461  1
  H+  H284  1  0.88741456  0.52496532  0.32183945  1
  H+  H285  1  0.17107165  0.52885393  0.01124712  1
  H+  H286  1  0.39275002  0.03054827  0.84415223  1
  H+  H287  1  0.11062222  0.13251172  0.33787152  1
  H+  H288  1  0.22769886  0.61392222  0.84396041  1
  H+  H289  1  0.64750331  0.87195089  0.58585018  1
  H+  H290  1  0.61761241  0.89426418  0.84590898  1
  H+  H291  1  0.16988025  0.83098166  0.23427882  1
  H+  H292  1  0.35126204  0.16567859  0.42182024  1
  H+  H293  1  0.39246313  0.57774623  0.93582420  1
  H+  H294  1  1.01778239  0.65035581  0.69453808  1
  H+  H295  1  0.70959414  0.83344138  0.08708139  1
  H+  H296  1  0.09223030  0.41508394  0.06488323  1
  H+  H297  1  0.93170311  0.59095827  0.26835926  1
  H+  H298  1  0.09919756  0.66996631  0.40525938  1
  H+  H299  1  0.85375589  0.67160181  0.06271837  1
  H+  H300  1  0.43754556  0.60556518  0.23096114  1
  H+  H301  1  0.89701236  0.27725233  0.99461498  1
  H+  H302  1  0.52361206  0.88553537  0.33397661  1
  H+  H303  1  0.32892710  0.41136026  0.42473797  1
  H+  H304  1  0.84654209  0.91031459  0.39240850  1
  H+  H305  1  0.83442660  0.17287822  0.39229040  1
  H+  H306  1  0.81887632  0.41799654  0.38292703  1
  H+  H307  1  0.06873500  0.16679316  0.42190619  1
  H+  H308  1  0.82980583  0.40499026  0.05573599  1
  H+  H309  1  0.66465305  0.33877824  0.91459707  1
  H+  H310  1  0.27109811  0.88050579  0.01860666  1
  H+  H311  1  0.38811104  0.54603137  0.64812320  1
  H+  H312  1  0.13497421  0.27261126  0.32653616  1
  H+  H313  1  0.62498752  0.35094759  0.31361426  1
  H+  H314  1  0.87665089  0.49914221  0.67202495  1
  H+  H315  1  0.17102511  0.07893522  0.23112971  1
  H+  H316  1  0.38532358  0.76997784  1.00573743  1
  H+  H317  1  0.83452961  0.17404263  0.06311979  1
  H+  H318  1  0.08496692  0.91882611  0.72965081  1
  H+  H319  1  0.92225304  0.83311338  0.89433648  1
  H+  H320  1  0.84084059  0.93230704  0.77528141  1
  H+  H321  1  0.38774533  0.61773700  0.32495017  1
  H+  H322  1  0.66206954  0.08939711  0.22998555  1
  H+  H323  1  0.33484418  0.40555171  0.06447223  1
  H+  H324  1  0.09661993  0.91308756  0.38487979  1
  H+  H325  1  0.40959926  0.08140526  0.56537823  1
  H+  H326  1  0.32376298  0.92405144  0.76968938  1
  H+  H327  1  0.57864307  0.16817385  0.06299487  1
  H+  H328  1  0.40405702  0.82499341  0.60913005  1
  H+  H329  1  0.67291337  0.08489866  0.60170305  1
  H+  H330  1  0.92885985  0.08490151  0.93847952  1
  H+  H331  1  0.98372077  0.86334002  0.31896631  1
  H+  H332  1  0.17868251  0.08217215  0.91563854  1
  H+  H333  1  0.17215449  0.34232836  0.55805960  1
  H+  H334  1  0.47723023  0.11151326  -0.00116739  1
  H+  H335  1  0.09024010  0.66239836  0.78150712  1
  H+  H336  1  0.41939940  0.08415909  0.90473108  1
  H+  H337  1  1.00149285  0.61894748  0.17518526  1
  H+  H338  1  0.92527692  0.39295661  0.63774583  1
  H+  H339  1  0.66530449  0.34783508  0.56566431  1
  H+  H340  1  0.82260537  0.40881365  0.78575036  1
  H+  H341  1  0.89245152  0.82263448  0.62202981  1
  H+  H342  1  0.16390783  0.82222293  0.59955781  1
  H+  H343  1  0.72197852  0.80002201  0.08242379  1
  H+  H344  1  0.37500949  0.50969628  0.48879149  1
  H+  H345  1  0.56363279  0.93657355  0.42226381  1
  H+  H346  1  0.38453300  0.77627872  0.81954211  1
  H+  H347  1  0.69798073  0.82158630  0.25191717  1
  H+  H348  1  0.58624365  0.16909342  0.40014363  1
  H+  H349  1  0.06362194  0.10104893  0.79673275  1
  H+  H350  1  0.57228860  0.40218307  0.73482837  1
  H+  H351  1  0.18199754  0.32859186  0.90280069  1
  H+  H352  1  0.61424431  0.13546866  0.34139977  1
  H+  H353  1  0.83379580  0.17564273  0.77407393  1
  H+  H354  1  0.09383813  0.90934168  0.09605151  1
  H+  H355  1  0.93038340  0.11959109  0.61185504  1
  H+  H356  1  0.33298097  0.93293852  0.10665777  1
  H+  H357  1  0.09722793  0.16582288  0.06671316  1
  H+  H358  1  0.58390679  0.92665294  0.05635247  1
  H+  H359  1  0.64128692  0.58548820  0.90097815  1
  H+  H360  1  0.39799117  0.29592812  0.93669304  1
  H+  H361  1  0.60931656  0.82768511  0.59112598  1
  H+  H362  1  0.37142763  0.12677396  0.01724882  1
  H+  H363  1  0.31830829  0.66354233  0.77201292  1
  H+  H364  1  0.33655633  0.66668644  0.39841408  1
  H+  H365  1  0.91960741  0.08708534  0.26434023  1
  H+  H366  1  0.33032150  0.90279331  0.40571418  1
  H+  H367  1  0.23374045  0.36006559  0.99394415  1
  H+  H368  1  0.13363323  0.01684392  0.32101536  1
  H+  H369  1  0.96265560  0.55392748  0.63510651  1
  H+  H370  1  0.92467137  0.33210522  0.90453047  1
  H+  H371  1  0.67084625  0.83474873  0.89913615  1
  H+  H372  1  0.57575896  0.67155658  0.75833003  1
  H+  H373  1  0.83554243  0.67176053  0.38967655  1
  H+  H374  1  0.59598881  0.36510965  0.83186048  1
  H+  H375  1  0.57155373  0.64386866  0.41540969  1
  H+  H376  1  0.92849497  0.83435989  0.22700714  1
  H+  H377  1  0.19609522  0.07054579  0.58771317  1
  H+  H378  1  0.44236894  0.33074312  0.24164662  1
  H+  H379  1  0.27964811  0.14043123  0.67712424  1
  H+  H380  1  0.11531696  0.98541459  0.82375219  1
  H+  H381  1  0.07272803  0.41191495  0.39840638  1
  H+  H382  1  0.51672098  0.98271392  0.10575475  1
  H+  H383  1  0.56851718  0.40786249  0.05560766  1
  O2-  O384  1  0.09118025  0.16626168  0.14542967  1
  O2-  O385  1  0.06298544  0.17033151  0.46838295  1
  O2-  O386  1  0.06834811  0.15177344  0.81662116  1
  O2-  O387  1  0.08223422  0.41435232  0.14126936  1
  O2-  O388  1  0.07535312  0.41108486  0.47342010  1
  O2-  O389  1  0.09339454  0.42176668  0.83230671  1
  O2-  O390  1  0.09742733  0.66687048  0.15190796  1
  O2-  O391  1  0.11289881  0.67611379  0.47227175  1
  O2-  O392  1  0.08893930  0.65137000  0.82569895  1
  O2-  O393  1  0.09122757  0.91116733  0.14208082  1
  O2-  O394  1  0.11295309  0.91273800  0.46077594  1
  O2-  O395  1  0.08759760  0.92767490  0.80508749  1
  O2-  O396  1  0.35064736  0.15143294  0.15472275  1
  O2-  O397  1  0.35388056  0.17037027  0.46722179  1
  O2-  O398  1  0.32967683  0.18877357  0.81909285  1
  O2-  O399  1  0.33097633  0.39756901  0.13899932  1
  O2-  O400  1  0.33004153  0.41235074  0.47019423  1
  O2-  O401  1  0.33800423  0.43266381  0.80233848  1
  O2-  O402  1  0.33730151  0.67437972  0.15173107  1
  O2-  O403  1  0.34056396  0.65932514  0.47573247  1
  O2-  O404  1  0.32296703  0.66978658  0.81844453  1
  O2-  O405  1  0.33361871  0.94274409  0.15235845  1
  O2-  O406  1  0.33402492  0.90536351  0.48447657  1
  O2-  O407  1  0.32679447  0.92180698  0.81478219  1
  O2-  O408  1  0.57704142  0.17022827  0.14424181  1
  O2-  O409  1  0.58148720  0.17150813  0.48753561  1
  O2-  O410  1  0.59212434  0.18475703  0.82493539  1
  O2-  O411  1  0.58747318  0.41658134  0.13776668  1
  O2-  O412  1  0.57198676  0.41543877  0.46074740  1
  O2-  O413  1  0.55586939  0.37670043  0.80767912  1
  O2-  O414  1  0.60623913  0.67104051  0.16033224  1
  O2-  O415  1  0.56331681  0.63461667  0.46161383  1
  O2-  O416  1  0.56907050  0.66817866  0.82131923  1
  O2-  O417  1  0.54440759  0.95604210  0.12773014  1
  O2-  O418  1  0.54682972  0.95125582  0.46257261  1
  O2-  O419  1  0.59130374  0.93101142  0.85052808  1
  O2-  O420  1  0.83758503  0.16454683  0.14572981  1
  O2-  O421  1  0.82472700  0.17367298  0.46915312  1
  O2-  O422  1  0.83770521  0.17170988  0.81893055  1
  O2-  O423  1  0.81473136  0.40813001  0.12560600  1
  O2-  O424  1  0.81710264  0.42802887  0.46209126  1
  O2-  O425  1  0.82917718  0.40982885  0.83021259  1
  O2-  O426  1  0.84249095  0.66228480  0.14861689  1
  O2-  O427  1  0.83187948  0.67556281  0.47161926  1
  O2-  O428  1  0.80220054  0.66727129  0.81096711  1
  O2-  O429  1  0.85536383  0.92576075  0.14746336  1
  O2-  O430  1  0.84235321  0.88674067  0.47341750  1
  O2-  O431  1  0.83868637  0.92893239  0.82045606  1
  O2-  O432  1  0.17468752  0.07952833  0.18581018  1
  O2-  O433  1  0.20364078  0.07389261  0.51066405  1
  O2-  O434  1  0.17525262  0.08884094  0.86969117  1
  O2-  O435  1  0.16444583  0.33113809  0.18448269  1
  O2-  O436  1  0.17004148  0.33861292  0.51204746  1
  O2-  O437  1  0.18581773  0.32872018  0.85671837  1
  O2-  O438  1  0.17126727  0.57778146  0.19458556  1
  O2-  O439  1  0.18589515  0.58836192  0.50436697  1
  O2-  O440  1  0.16620764  0.58123280  0.85968160  1
  O2-  O441  1  0.17239415  0.83245411  0.18881634  1
  O2-  O442  1  0.17467832  0.81922696  0.52387717  1
  O2-  O443  1  0.17210229  0.86616813  0.86428455  1
  O2-  O444  1  0.40135561  0.11203121  0.17420465  1
  O2-  O445  1  0.41390422  0.07836828  0.52006562  1
  O2-  O446  1  0.42426919  0.08992903  0.85995860  1
  O2-  O447  1  0.43035962  0.32455830  0.19774067  1
  O2-  O448  1  0.41391915  0.33266862  0.51604172  1
  O2-  O449  1  0.36254575  0.27052795  0.85203925  1
  O2-  O450  1  0.45211719  0.61680870  0.18703165  1
  O2-  O451  1  0.41005941  0.57318232  0.50015040  1
  O2-  O452  1  0.40896544  0.59271498  0.85978171  1
  O2-  O453  1  0.40357134  0.84314799  0.19057585  1
  O2-  O454  1  0.40749455  0.81807639  0.52924968  1
  O2-  O455  1  0.42025096  0.84037972  0.81314810  1
  O2-  O456  1  0.66345038  0.09311731  0.18484552  1
  O2-  O457  1  0.66744768  0.09303561  0.52142976  1
  O2-  O458  1  0.67151235  0.09568890  0.86215078  1
  O2-  O459  1  0.66829258  0.33200931  0.17069840  1
  O2-  O460  1  0.65796487  0.33870732  0.52062106  1
  O2-  O461  1  0.66814924  0.34020232  0.86949917  1
  O2-  O462  1  0.67253739  0.57658622  0.18060499  1
  O2-  O463  1  0.68301330  0.61901767  0.53371476  1
  O2-  O464  1  0.64113745  0.59013642  0.85487662  1
  O2-  O465  1  0.71717704  0.80118470  0.21653083  1
  O2-  O466  1  0.70122199  0.77202613  0.52447727  1
  O2-  O467  1  0.66602551  0.83174269  0.85329559  1
  O2-  O468  1  0.92643050  0.09063054  0.18911122  1
  O2-  O469  1  0.91929410  0.11854041  0.53231876  1
  O2-  O470  1  0.91875689  0.09217054  0.85627700  1
  O2-  O471  1  0.90381861  0.33027101  0.17079113  1
  O2-  O472  1  0.91890241  0.31659679  0.52830663  1
  O2-  O473  1  0.92156750  0.33167473  0.85849152  1
  O2-  O474  1  0.93974787  0.58663980  0.19130289  1
  O2-  O475  1  0.87406818  0.57028022  0.53255518  1
  O2-  O476  1  0.93487431  0.58040121  0.86188078  1
  O2-  O477  1  0.92745849  0.83189295  0.18159282  1
  O2-  O478  1  0.95296225  0.84062881  0.51165705  1
  O2-  O479  1  0.91670565  0.83929936  0.84919262  1
  O2-  O480  1  0.16267280  0.07981039  0.31066818  1
  O2-  O481  1  0.18229089  0.07271216  0.63170350  1
  O2-  O482  1  0.18162888  0.07666930  0.98741096  1
  O2-  O483  1  0.16660915  0.33323102  0.31208521  1
  O2-  O484  1  0.17826888  0.35734455  0.63098272  1
  O2-  O485  1  0.17349245  0.32832136  0.97699890  1
  O2-  O486  1  0.16499052  0.57489930  0.31715215  1
  O2-  O487  1  0.15851636  0.58714516  0.66125581  1
  O2-  O488  1  0.20332563  0.59239123  1.00156912  1
  O2-  O489  1  0.16929202  0.82608894  0.31144564  1
  O2-  O490  1  0.16284380  0.82693385  0.64526228  1
  O2-  O491  1  0.18035193  0.82384977  0.99652018  1
  O2-  O492  1  0.41182918  0.06943720  0.32064305  1
  O2-  O493  1  0.40945372  0.08422411  0.64409406  1
  O2-  O494  1  0.41430077  0.07976550  0.98708876  1
  O2-  O495  1  0.46416940  0.35426527  0.32931076  1
  O2-  O496  1  0.41655330  0.33937203  0.64087354  1
  O2-  O497  1  0.40433717  0.30919953  0.98038233  1
  O2-  O498  1  0.41985351  0.58991342  0.30833059  1
  O2-  O499  1  0.40686489  0.60461017  0.63437676  1
  O2-  O500  1  0.38537855  0.57375558  0.98109672  1
  O2-  O501  1  0.41830323  0.83257289  0.31263186  1
  O2-  O502  1  0.40405449  0.82970486  0.65421441  1
  O2-  O503  1  0.41179692  0.83080429  0.99563000  1
  O2-  O504  1  0.66476482  0.08476013  0.31010014  1
  O2-  O505  1  0.66642542  0.08781375  0.64638048  1
  O2-  O506  1  0.66391508  0.08749646  0.98198282  1
  O2-  O507  1  0.66147477  0.32642318  0.30186235  1
  O2-  O508  1  0.67127173  0.34782190  0.64536394  1
  O2-  O509  1  0.65656751  0.32898464  0.99508139  1
  O2-  O510  1  0.66783563  0.59329671  0.30524131  1
  O2-  O511  1  0.60962015  0.57471517  0.65099447  1
  O2-  O512  1  0.63715755  0.57748501  0.97259469  1
  O2-  O513  1  0.66866241  0.83647245  0.32541923  1
  O2-  O514  1  0.66341296  0.84214081  0.70000803  1
  O2-  O515  1  0.67400115  0.83902249  0.97245675  1
  O2-  O516  1  0.91880922  0.08758508  0.31043348  1
  O2-  O517  1  0.92750437  0.11089614  0.65652154  1
  O2-  O518  1  0.93225798  0.07089486  0.98128168  1
  O2-  O519  1  0.91636455  0.33634105  0.31696354  1
  O2-  O520  1  0.91660198  0.33503715  0.63916337  1
  O2-  O521  1  0.93410079  0.33809775  0.97810682  1
  O2-  O522  1  0.92243357  0.58734934  0.31343351  1
  O2-  O523  1  0.91170585  0.55518795  0.64894319  1
  O2-  O524  1  0.93856408  0.58411719  0.98508664  1
  O2-  O525  1  0.92283284  0.83679047  0.30461333  1
  O2-  O526  1  0.90888610  0.83904677  0.66414440  1
  O2-  O527  1  0.93080997  0.82810949  0.96956850  1
  O2-  O528  1  0.10220850  0.16332151  0.02165387  1
  O2-  O529  1  0.08054626  0.16375798  0.35206805  1
  O2-  O530  1  0.09159815  0.20946684  0.70247987  1
  O2-  O531  1  0.09978387  0.42007542  0.01947642  1
  O2-  O532  1  0.07127576  0.41148033  0.35228741  1
  O2-  O533  1  0.08248509  0.42120044  0.68498182  1
  O2-  O534  1  0.10183314  0.66924514  0.03397043  1
  O2-  O535  1  0.09333358  0.66615567  0.35756965  1
  O2-  O536  1  0.07882699  0.67606251  0.70388920  1
  O2-  O537  1  0.09575545  0.90266071  0.02112552  1
  O2-  O538  1  0.08939949  0.91261559  0.33983429  1
  O2-  O539  1  0.07845910  0.91148510  0.68395267  1
  O2-  O540  1  0.34155547  0.15637297  0.03761470  1
  O2-  O541  1  0.33221444  0.14858053  0.34511914  1
  O2-  O542  1  0.33890831  0.17638586  0.69228589  1
  O2-  O543  1  0.33453369  0.40956022  0.01855511  1
  O2-  O544  1  0.33461873  0.41899496  0.34675587  1
  O2-  O545  1  0.33451562  0.42612256  0.67530658  1
  O2-  O546  1  0.28921848  0.62857202  0.02898269  1
  O2-  O547  1  0.33457575  0.66707591  0.35284251  1
  O2-  O548  1  0.31386770  0.66400733  0.70189938  1
  O2-  O549  1  0.33429029  0.91910664  0.03444333  1
  O2-  O550  1  0.33038333  0.90541390  0.36034517  1
  O2-  O551  1  0.32659951  0.91996048  0.68973101  1
  O2-  O552  1  0.57812029  0.16849218  0.01789251  1
  O2-  O553  1  0.58412327  0.16667905  0.35525566  1
  O2-  O554  1  0.58298512  0.17315062  0.63712540  1
  O2-  O555  1  0.56385552  0.40214446  0.01068532  1
  O2-  O556  1  0.55764261  0.39497558  0.34129046  1
  O2-  O557  1  0.58119898  0.41461027  0.68976506  1
  O2-  O558  1  0.56386217  0.66840186  0.01452748  1
  O2-  O559  1  0.58521137  0.66552677  0.34710833  1
  O2-  O560  1  0.58181011  0.68148105  0.70980805  1
  O2-  O561  1  0.58934938  0.92116765  0.01220898  1
  O2-  O562  1  0.58272332  0.92015778  0.35177767  1
  O2-  O563  1  0.57029244  0.92059094  0.69663216  1
  O2-  O564  1  0.83361897  0.18331351  0.01888303  1
  O2-  O565  1  0.83765647  0.17496212  0.34659498  1
  O2-  O566  1  0.82734646  0.17941067  0.69458471  1
  O2-  O567  1  0.84142616  0.41235326  0.00944215  1
  O2-  O568  1  0.82543311  0.41083208  0.33890572  1
  O2-  O569  1  0.81985818  0.40419075  0.70138990  1
  O2-  O570  1  0.86011898  0.67509388  0.01823410  1
  O2-  O571  1  0.83816969  0.67280039  0.34470768  1
  O2-  O572  1  0.82808222  0.65638350  0.68297971  1
  O2-  O573  1  0.84215622  0.90846035  0.01530475  1
  O2-  O574  1  0.84261418  0.91807647  0.34839930  1
  O2-  O575  1  0.84197425  0.94192077  0.69702822  1
