# generated using pymatgen
data_H2O
_symmetry_space_group_name_H-M   'P 1'
_cell_length_a   17.99491825
_cell_length_b   17.99922270
_cell_length_c   22.01646339
_cell_angle_alpha   90.00957522
_cell_angle_beta   89.99859883
_cell_angle_gamma   120.01715300
_symmetry_Int_Tables_number   1
_chemical_formula_structural   H2O
_chemical_formula_sum   'H384 O192'
_cell_volume   6174.57000343
_cell_formula_units_Z   192
loop_
 _symmetry_equiv_pos_site_id
 _symmetry_equiv_pos_as_xyz
  1  'x, y, z'
loop_
 _atom_type_symbol
 _atom_type_oxidation_number
  H+  1.0
  O2-  -2.0
loop_
 _atom_site_type_symbol
 _atom_site_label
 _atom_site_symmetry_multiplicity
 _atom_site_fract_x
 _atom_site_fract_y
 _atom_site_fract_z
 _atom_site_occupancy
  H+  H0  1  0.62893150  0.01477315  0.66152701  1
  H+  H1  1  0.74823139  0.36453846  0.48592844  1
  H+  H2  1  0.16395086  0.33542560  0.25156425  1
  H+  H3  1  0.35350136  0.46827552  0.32585174  1
  H+  H4  1  0.88480783  0.01138528  0.67666451  1
  H+  H5  1  0.12071679  0.40424528  0.33702787  1
  H+  H6  1  0.52695303  0.87135002  0.67702409  1
  H+  H7  1  0.35828596  -0.03517441  0.83141208  1
  H+  H8  1  0.14175101  0.77403305  0.16793889  1
  H+  H9  1  0.62827101  0.62398265  0.33127231  1
  H+  H10  1  0.47415991  0.11774408  0.49792267  1
  H+  H11  1  0.51910648  0.88838024  0.82725698  1
  H+  H12  1  0.11827981  0.47666931  1.00403722  1
  H+  H13  1  0.14190235  0.75151533  0.66878478  1
  H+  H14  1  0.85413219  0.48211518  0.67914253  1
  H+  H15  1  0.62558901  0.10628243  0.16488418  1
  H+  H16  1  0.64814735  0.27106584  0.98339964  1
  H+  H17  1  0.39994950  0.74541616  0.67177059  1
  H+  H18  1  0.61288060  0.63431296  0.49608387  1
  H+  H19  1  0.88207585  0.86150389  0.50288883  1
  H+  H20  1  0.10615515  0.62266023  0.67324694  1
  H+  H21  1  0.62191527  0.47817639  0.15493587  1
  H+  H22  1  0.11167189  0.97318550  0.16040360  1
  H+  H23  1  0.65214062  0.61136706  0.17384034  1
  H+  H24  1  0.88657942  0.52522375  0.83221919  1
  H+  H25  1  0.86598597  0.48947562  0.16023715  1
  H+  H26  1  0.35821926  0.39267044  0.81793417  1
  H+  H27  1  0.47610542  0.59987248  0.32636982  1
  H+  H28  1  0.22507319  0.09897670  0.65756160  1
  H+  H29  1  -0.02400452  0.86437943  0.66330911  1
  H+  H30  1  0.63405665  0.11839901  0.32468251  1
  H+  H31  1  -0.00812300  0.62446489  0.00952466  1
  H+  H32  1  0.88183318  1.01605473  0.33108928  1
  H+  H33  1  0.38932264  0.02736796  0.99310367  1
  H+  H34  1  0.37632556  0.48576010  0.02360568  1
  H+  H35  1  0.61859451  0.63794052  0.82250260  1
  H+  H36  1  0.52537805  0.14517711  0.15503930  1
  H+  H37  1  0.36727393  0.89215574  0.00434407  1
  H+  H38  1  0.30763208  0.29061350  0.87842912  1
  H+  H39  1  0.47529495  0.60951794  0.18525164  1
  H+  H40  1  0.77712894  0.64200424  0.49717669  1
  H+  H41  1  0.61771744  0.38674707  0.15939581  1
  H+  H42  1  0.13248743  0.59797161  0.36953781  1
  H+  H43  1  0.01945870  0.37983607  0.82705965  1
  H+  H44  1  0.84882605  0.19525738  0.41194905  1
  H+  H45  1  0.77660729  0.87306107  0.00331034  1
  H+  H46  1  0.42786083  0.58856574  0.87384081  1
  H+  H47  1  0.86585965  0.72948377  0.49400313  1
  H+  H48  1  0.38593016  0.51845775  0.17870465  1
  H+  H49  1  0.60356444  0.12218362  0.83099768  1
  H+  H50  1  0.62778574  0.66956927  0.00146433  1
  H+  H51  1  0.22961144  0.84498456  -0.01239770  1
  H+  H52  1  0.67423835  0.33809984  0.53211384  1
  H+  H53  1  0.85780569  0.95665350  0.17346177  1
  H+  H54  1  0.32375600  0.19071028  0.48170516  1
  H+  H55  1  0.39670665  0.83170310  0.67025762  1
  H+  H56  1  0.10468498  0.10711977  0.50636428  1
  H+  H57  1  0.11850107  -0.01412720  0.50291965  1
  H+  H58  1  0.10934912  0.21934812  0.01391635  1
  H+  H59  1  0.57569298  0.38980536  0.07322041  1
  H+  H60  1  0.60548193  0.88250147  0.99553666  1
  H+  H61  1  0.38694596  0.12330516  0.17056686  1
  H+  H62  1  0.13789001  0.85128820  0.84038495  1
  H+  H63  1  0.37662963  0.85525685  0.84696905  1
  H+  H64  1  0.13930699  0.60890188  0.83406752  1
  H+  H65  1  0.88044999  0.64455670  1.01546532  1
  H+  H66  1  0.90694336  0.53666856  0.50470830  1
  H+  H67  1  0.26243607  0.11963272  0.83565974  1
  H+  H68  1  0.23675759  0.61618990  0.98809837  1
  H+  H69  1  0.62565945  0.01549846  0.99465807  1
  H+  H70  1  0.13394516  0.67344614  0.40467181  1
  H+  H71  1  0.59726262  0.96303008  0.15635803  1
  H+  H72  1  0.90182307  0.53730666  1.00568974  1
  H+  H73  1  0.96339251  0.32404983  0.47425466  1
  H+  H74  1  0.13707227  0.36882538  0.82960444  1
  H+  H75  1  0.02346409  0.39561841  0.15781606  1
  H+  H76  1  0.91185347  0.31606778  0.33880649  1
  H+  H77  1  0.60404716  0.14260334  0.50361255  1
  H+  H78  1  0.64525503  0.54808248  0.99469227  1
  H+  H79  1  0.10239711  0.16090723  0.76412702  1
  H+  H80  1  0.76614912  0.07279770  0.44230858  1
  H+  H81  1  0.36471346  0.74361980  0.84343496  1
  H+  H82  1  0.40238539  0.93041374  0.14101748  1
  H+  H83  1  0.89463547  0.62679043  0.17381360  1
  H+  H84  1  0.36325195  0.64615877  0.82267642  1
  H+  H85  1  1.01524356  0.62134428  0.67541310  1
  H+  H86  1  0.35875989  0.22349698  1.00763396  1
  H+  H87  1  0.87280634  0.38866271  0.01093747  1
  H+  H88  1  0.59555725  0.78130170  0.30932899  1
  H+  H89  1  0.16397825  0.07481964  0.90869360  1
  H+  H90  1  0.86099884  0.87827330  0.67824575  1
  H+  H91  1  0.13355656  0.27712797  0.31270444  1
  H+  H92  1  0.63276040  0.10847936  0.99404274  1
  H+  H93  1  0.46922948  0.10105825  0.83939493  1
  H+  H94  1  0.78271255  0.88556119  0.83344296  1
  H+  H95  1  0.15210241  0.29873844  0.86442207  1
  H+  H96  1  0.10270321  -0.02893681  0.68036074  1
  H+  H97  1  0.11670617  0.71784050  0.82634552  1
  H+  H98  1  0.87105224  0.38602984  0.63917194  1
  H+  H99  1  0.97172025  0.10562082  0.99695863  1
  H+  H100  1  0.11179613  0.88492443  0.16015123  1
  H+  H101  1  0.07098655  0.90106326  0.41501771  1
  H+  H102  1  0.01974600  0.13098272  0.16415679  1
  H+  H103  1  0.23991600  0.83219885  0.67120027  1
  H+  H104  1  0.67209701  0.59348054  0.57125193  1
  H+  H105  1  0.95171210  0.38046478  0.61979074  1
  H+  H106  1  0.11764007  0.49776594  0.51138820  1
  H+  H107  1  0.78174643  0.62935013  0.33880926  1
  H+  H108  1  0.20163647  0.83501405  0.32506961  1
  H+  H109  1  0.88065802  0.09606182  0.17113993  1
  H+  H110  1  0.22931346  0.86498965  0.17168887  1
  H+  H111  1  0.96052631  0.85148893  0.17273790  1
  H+  H112  1  0.27140191  0.39691309  0.81792987  1
  H+  H113  1  0.35249544  0.22806176  0.68012305  1
  H+  H114  1  0.34379342  0.72139038  0.48101571  1
  H+  H115  1  0.21942356  0.34976071  0.50114229  1
  H+  H116  1  0.38356459  0.77538902  0.99884741  1
  H+  H117  1  0.84724016  0.10300104  0.63399737  1
  H+  H118  1  0.72720005  0.36112509  0.31689220  1
  H+  H119  1  0.56013657  0.14302341  0.73767569  1
  H+  H120  1  0.76765692  0.13774794  0.85231584  1
  H+  H121  1  0.64052671  0.86092355  0.16866456  1
  H+  H122  1  0.53859511  0.30003733  0.04197573  1
  H+  H123  1  0.76632373  0.88052909  0.49402573  1
  H+  H124  1  0.19988870  0.58853987  0.49915007  1
  H+  H125  1  0.86094562  0.63513474  0.82428734  1
  H+  H126  1  0.02396291  0.87618932  0.83367481  1
  H+  H127  1  0.36850770  0.47446932  0.66517966  1
  H+  H128  1  0.13562745  0.11236643  0.17032641  1
  H+  H129  1  0.14990920  0.24913073  0.68228874  1
  H+  H130  1  0.03309403  0.06556930  0.77785892  1
  H+  H131  1  0.88782303  0.77136219  0.84098419  1
  H+  H132  1  0.09798774  0.36440581  0.48895918  1
  H+  H133  1  0.47380652  0.85949754  0.33189169  1
  H+  H134  1  0.50907981  0.39492307  0.33964024  1
  H+  H135  1  0.87828366  0.49825277  0.34448878  1
  H+  H136  1  0.90079204  0.77166822  0.32126080  1
  H+  H137  1  0.11433874  0.96337175  0.83610932  1
  H+  H138  1  0.37031338  0.40496010  0.50244226  1
  H+  H139  1  0.64433811  0.62498351  0.66371773  1
  H+  H140  1  0.86867691  0.40359110  0.53957530  1
  H+  H141  1  0.49275263  0.60877352  0.65896129  1
  H+  H142  1  0.11009992  0.38916651  0.15714124  1
  H+  H143  1  0.72984275  0.36904670  0.16539570  1
  H+  H144  1  0.57191511  0.43152813  0.39710843  1
  H+  H145  1  0.96948332  0.85784808  0.49698085  1
  H+  H146  1  0.62609195  0.35704007  0.83865232  1
  H+  H147  1  0.90227903  0.39405028  0.32079421  1
  H+  H148  1  0.02750876  0.89159363  0.00562267  1
  H+  H149  1  0.10736413  0.46645385  0.81593187  1
  H+  H150  1  0.74465718  0.61550952  0.16896306  1
  H+  H151  1  0.42152449  0.59219642  0.96386477  1
  H+  H152  1  0.37256702  0.36283895  0.66700795  1
  H+  H153  1  0.74201501  0.08018755  0.37436562  1
  H+  H154  1  0.12833520  0.01399900  0.32134185  1
  H+  H155  1  0.13864811  0.52907596  0.16981139  1
  H+  H156  1  0.25011615  0.37486221  0.31623962  1
  H+  H157  1  0.63739244  0.51871387  0.32108899  1
  H+  H158  1  0.89623609  0.38179064  0.17022039  1
  H+  H159  1  0.77193884  0.13223684  0.00243461  1
  H+  H160  1  0.13177512  0.26753326  0.16820857  1
  H+  H161  1  0.37300420  -0.00352760  0.15691660  1
  H+  H162  1  0.01501512  0.13717673  0.33242407  1
  H+  H163  1  0.37189511  0.64590041  0.02094639  1
  H+  H164  1  0.78178405  0.64568507  0.67387548  1
  H+  H165  1  0.58020946  0.91877705  0.76874231  1
  H+  H166  1  0.32119764  0.90979854  0.39180026  1
  H+  H167  1  0.45641483  0.84623998  0.49926780  1
  H+  H168  1  0.36645825  0.61057548  0.67441471  1
  H+  H169  1  0.37969221  0.10142909  0.84099890  1
  H+  H170  1  0.35122938  0.11898272  0.48556063  1
  H+  H171  1  0.39110416  0.27592101  0.17073792  1
  H+  H172  1  0.76245118  0.89107681  0.33864407  1
  H+  H173  1  0.15377011  0.16235544  0.67913599  1
  H+  H174  1  0.38048210  0.10442418  0.31975911  1
  H+  H175  1  0.98052310  0.36087318  1.00084813  1
  H+  H176  1  0.62218285  0.23277768  0.47864226  1
  H+  H177  1  0.10946325  0.88485075  0.32937898  1
  H+  H178  1  0.72450056  0.36686655  0.70212009  1
  H+  H179  1  0.13379788  0.25788892  0.50480249  1
  H+  H180  1  0.27356693  0.88628736  0.49485166  1
  H+  H181  1  0.59460381  0.65909951  0.23514656  1
  H+  H182  1  0.73164781  0.61683659  0.83787688  1
  H+  H183  1  0.22112168  0.37292526  0.65282444  1
  H+  H184  1  0.62539907  0.01876531  0.83934476  1
  H+  H185  1  0.26510032  0.63679171  0.83239034  1
  H+  H186  1  0.49907787  0.63749033  0.01137081  1
  H+  H187  1  0.62218685  0.88791945  0.67789176  1
  H+  H188  1  0.62809890  0.85310763  0.50578341  1
  H+  H189  1  0.37355608  0.63275853  0.34238475  1
  H+  H190  1  0.61435942  0.38142055  0.69621856  1
  H+  H191  1  0.37222570  0.72621975  0.34179988  1
  H+  H192  1  0.65189291  0.77576641  0.84171380  1
  H+  H193  1  0.03868728  0.41393916  0.33854703  1
  H+  H194  1  0.14905680  0.74971154  -0.01023001  1
  H+  H195  1  0.88208361  0.10204214  0.34002524  1
  H+  H196  1  0.88841652  0.61817804  0.66116755  1
  H+  H197  1  0.35262454  0.87731536  0.33618549  1
  H+  H198  1  0.22072325  0.10812979  0.99746653  1
  H+  H199  1  0.07192372  0.58939446  1.04185545  1
  H+  H200  1  0.88591897  0.27379346  0.85627790  1
  H+  H201  1  0.49029989  0.64721447  0.50850037  1
  H+  H202  1  0.13254354  0.09488633  0.84409440  1
  H+  H203  1  0.38475766  0.16323439  0.68762049  1
  H+  H204  1  0.51514848  0.12531076  0.33397898  1
  H+  H205  1  0.54501432  0.40692108  0.50151250  1
  H+  H206  1  0.66313494  0.32321136  0.75825410  1
  H+  H207  1  0.35275694  0.63807227  0.48810332  1
  H+  H208  1  0.26517831  0.12781379  0.32726909  1
  H+  H209  1  0.85659108  0.13623303  0.85418225  1
  H+  H210  1  0.60062609  0.21073251  0.82654784  1
  H+  H211  1  0.84307467  0.67321587  0.10731101  1
  H+  H212  1  0.37902583  0.01414061  0.31969173  1
  H+  H213  1  0.03575177  0.65003148  0.15649667  1
  H+  H214  1  0.64616673  0.53687497  0.66890960  1
  H+  H215  1  0.73589307  0.86192584  0.17842687  1
  H+  H216  1  0.13020171  0.10545742  0.32132579  1
  H+  H217  1  0.76251107  0.11133854  0.62861555  1
  H+  H218  1  0.22236751  0.68044274  0.62513163  1
  H+  H219  1  0.35427855  0.24921717  0.84489368  1
  H+  H220  1  0.88970813  0.27146424  -0.00165993  1
  H+  H221  1  0.13018390  1.01774051  -0.00061761  1
  H+  H222  1  0.70610385  0.10916393  0.51211725  1
  H+  H223  1  0.61664102  0.96199018  0.49863439  1
  H+  H224  1  0.51356270  0.87053449  0.16039303  1
  H+  H225  1  0.64008594  0.71616940  0.34466766  1
  H+  H226  1  0.64754341  0.53629578  0.51007604  1
  H+  H227  1  0.16009133  0.32974718  0.59611544  1
  H+  H228  1  0.37470157  0.94414154  0.67542574  1
  H+  H229  1  0.86770671  0.73659991  0.16923518  1
  H+  H230  1  0.07021456  0.83243021  0.45990768  1
  H+  H231  1  0.36345042  0.13638424  0.00581106  1
  H+  H232  1  0.48189189  0.36520290  0.17272371  1
  H+  H233  1  0.12229684  0.75347123  0.48868320  1
  H+  H234  1  0.78625857  0.39056482  0.00271784  1
  H+  H235  1  0.14367432  0.62060011  0.17045460  1
  H+  H236  1  0.32734923  0.66900123  0.07296174  1
  H+  H237  1  0.87394027  -0.11038792  0.83076079  1
  H+  H238  1  0.38603101  0.52809885  0.81797973  1
  H+  H239  1  0.36987167  0.39393172  0.01495343  1
  H+  H240  1  -0.02956356  0.10673982  0.52054797  1
  H+  H241  1  0.10777597  0.12943364  0.01084456  1
  H+  H242  1  0.15679719  0.87094935  0.53724443  1
  H+  H243  1  0.88554521  0.02007878  0.84156160  1
  H+  H244  1  0.34556014  0.46915107  0.47255957  1
  H+  H245  1  0.37398665  0.26733923  0.32154294  1
  H+  H246  1  0.59343178  0.21215747  0.68666393  1
  H+  H247  1  0.66903007  0.33038252  0.22389509  1
  H+  H248  1  0.41496454  0.31457646  0.51863236  1
  H+  H249  1  0.76248427  0.10963654  0.15410962  1
  H+  H250  1  0.07736056  0.36493705  0.65996261  1
  H+  H251  1  0.79169526  0.64729753  0.00958685  1
  H+  H252  1  0.03011605  0.67498446  0.47695873  1
  H+  H253  1  0.36039562  -0.02545549  0.48386732  1
  H+  H254  1  0.64018990  0.52847133  0.84248033  1
  H+  H255  1  0.86066877  0.96576244  -0.00009967  1
  H+  H256  1  0.37404488  0.74990253  0.17894420  1
  H+  H257  1  0.22325555  0.35739784  0.16890366  1
  H+  H258  1  0.67697031  0.59824140  0.93247297  1
  H+  H259  1  0.64221568  0.26943116  0.31810433  1
  H+  H260  1  0.20750242  0.07310031  0.50111359  1
  H+  H261  1  0.85481034  0.86317171  0.17632289  1
  H+  H262  1  0.86911144  0.36496332  0.47855598  1
  H+  H263  1  0.41061274  0.32966497  0.26303733  1
  H+  H264  1  0.52475123  0.14121718  0.00131196  1
  H+  H265  1  0.36454247  0.38538540  0.16706992  1
  H+  H266  1  0.86020183  0.13113594  0.00263359  1
  H+  H267  1  0.60799776  0.98155242  0.34097837  1
  H+  H268  1  0.37176552  0.85250028  0.49070566  1
  H+  H269  1  0.62904893  0.40395668  0.47908302  1
  H+  H270  1  0.89894697  0.77397035  0.99416593  1
  H+  H271  1  0.53116588  0.64122362  0.81356341  1
  H+  H272  1  0.73135941  0.85969310  0.66236454  1
  H+  H273  1  0.51114802  0.38780748  0.83123554  1
  H+  H274  1  0.97411203  0.61353595  0.83332120  1
  H+  H275  1  0.87024556  0.38395233  0.83412113  1
  H+  H276  1  0.27240796  0.14087358  0.16029878  1
  H+  H277  1  0.34960142  0.37243480  0.32237795  1
  H+  H278  1  0.36205357  0.05190033  0.65134251  1
  H+  H279  1  0.46027824  0.35784580  0.67482643  1
  H+  H280  1  0.87136578  0.73365346  0.67287006  1
  H+  H281  1  0.58329539  0.41091522  0.63938614  1
  H+  H282  1  0.36076152  0.82963262  0.19003974  1
  H+  H283  1  0.47174193  0.35217644  0.99734377  1
  H+  H284  1  0.62186699  0.73212253  0.66855827  1
  H+  H285  1  -0.02803178  0.10947563  0.83882204  1
  H+  H286  1  0.26406185  0.62890967  0.16411130  1
  H+  H287  1  0.28309342  0.62038272  0.67263666  1
  H+  H288  1  0.91064650  0.63269960  0.34802072  1
  H+  H289  1  0.72648417  0.14221670  0.29899413  1
  H+  H290  1  0.92588108  0.34364598  0.90749068  1
  H+  H291  1  0.08155916  0.65361772  0.76910567  1
  H+  H292  1  0.41456903  0.57841260  0.26785050  1
  H+  H293  1  0.82551846  0.14430087  0.09774555  1
  H+  H294  1  0.15599143  0.82235967  0.26186725  1
  H+  H295  1  0.57505806  0.15423029  0.39370148  1
  H+  H296  1  0.07906863  0.40747150  0.43087224  1
  H+  H297  1  0.35532530  0.62765952  0.16434804  1
  H+  H298  1  0.08794835  0.42361669  0.06700406  1
  H+  H299  1  0.33628938  0.41736546  0.10842867  1
  H+  H300  1  0.63471313  0.76767892  0.50384044  1
  H+  H301  1  0.46510787  0.09154844  0.65781577  1
  H+  H302  1  0.64801430  0.35777155  0.98518436  1
  H+  H303  1  0.63929009  0.33167266  0.60317634  1
  H+  H304  1  0.78021863  0.38264846  0.82968187  1
  H+  H305  1  0.61747655  0.72899089  0.18524587  1
  H+  H306  1  0.16588979  0.08169374  0.22872228  1
  H+  H307  1  0.40903188  0.82738976  0.90892142  1
  H+  H308  1  0.92818418  0.35273668  0.22765747  1
  H+  H309  1  0.64122923  0.29047068  0.60247161  1
  H+  H310  1  0.75504974  0.07394664  0.54770897  1
  H+  H311  1  0.57005757  0.90703220  0.05971943  1
  H+  H312  1  0.42805073  0.35703366  0.58245806  1
  H+  H313  1  0.09759653  0.67417806  0.09666556  1
  H+  H314  1  0.45933979  0.69928852  0.54873413  1
  H+  H315  1  0.83138980  0.90596011  0.74000712  1
  H+  H316  1  0.85502620  0.96909716  0.49603630  1
  H+  H317  1  0.17223743  0.58935548  0.59459248  1
  H+  H318  1  0.82037459  0.91482233  0.39813924  1
  H+  H319  1  0.22519208  0.35786750  0.00858356  1
  H+  H320  1  0.01732159  0.88074532  0.32529836  1
  H+  H321  1  0.67180869  0.83782853  0.90032410  1
  H+  H322  1  0.94410817  0.60750598  0.22722382  1
  H+  H323  1  0.47581300  0.86441305  0.99442604  1
  H+  H324  1  0.71041861  0.91182214  0.97533115  1
  H+  H325  1  0.15068630  0.61968781  0.98665518  1
  H+  H326  1  0.61801337  0.23072219  0.15365549  1
  H+  H327  1  0.41635098  0.08397070  0.93307416  1
  H+  H328  1  0.33033813  0.65945980  0.40645832  1
  H+  H329  1  0.84169141  0.42296784  0.73832829  1
  H+  H330  1  0.34375165  0.89824877  0.74051611  1
  H+  H331  1  0.91693316  0.58539609  0.60206203  1
  H+  H332  1  0.88403947  0.10152088  0.54546450  1
  H+  H333  1  0.66600660  0.32684044  0.89133682  1
  H+  H334  1  0.32077391  0.15562174  0.77470661  1
  H+  H335  1  0.64806191  0.07148027  0.22468585  1
  H+  H336  1  0.67251691  0.83340334  0.60128678  1
  H+  H337  1  0.89235844  0.85952870  0.98884558  1
  H+  H338  1  0.93697473  0.06760899  0.62178063  1
  H+  H339  1  0.32260105  0.15155449  0.38624968  1
  H+  H340  1  0.92162011  0.82964121  0.90157077  1
  H+  H341  1  0.56484818  0.41685509  0.77126609  1
  H+  H342  1  0.13738946  0.35702682  1.00324264  1
  H+  H343  1  0.83707980  0.42637872  0.39360885  1
  H+  H344  1  0.65940846  0.84016213  0.25704026  1
  H+  H345  1  0.43276201  0.58818535  0.60003606  1
  H+  H346  1  0.83357234  0.66503376  0.40190084  1
  H+  H347  1  0.07346237  0.90939932  0.73841449  1
  H+  H348  1  0.58524719  0.17211185  0.06066363  1
  H+  H349  1  0.17157674  0.57867801  0.89241442  1
  H+  H350  1  0.32748658  0.41877910  0.72575220  1
  H+  H351  1  0.59484311  0.67315647  0.72927922  1
  H+  H352  1  0.58249404  0.65375432  0.43236956  1
  H+  H353  1  0.04017679  0.38780978  0.71611722  1
  H+  H354  1  0.17044583  0.81476029  0.89624210  1
  H+  H355  1  0.05522056  0.69948331  0.31298775  1
  H+  H356  1  0.65184786  0.07500845  0.90163641  1
  H+  H357  1  0.33196017  0.16826762  0.10061347  1
  H+  H358  1  0.91653426  0.07919417  0.93544759  1
  H+  H359  1  0.41490613  0.07579028  0.55662574  1
  H+  H360  1  0.08228558  0.92045306  0.06718809  1
  H+  H361  1  0.62083663  0.75507735  0.00098559  1
  H+  H362  1  0.26842718  0.87396770  0.82899896  1
  H+  H363  1  0.91851521  0.83586163  0.60120883  1
  H+  H364  1  0.62968993  0.10338712  0.66270907  1
  H+  H365  1  0.40831965  0.32950875  0.93924133  1
  H+  H366  1  0.61121492  0.89529573  0.33713259  1
  H+  H367  1  0.91410430  0.07875617  0.23394580  1
  H+  H368  1  0.33503185  0.92537520  0.06059225  1
  H+  H369  1  0.16105561  0.06375818  0.60103944  1
  H+  H370  1  0.89113508  0.61649103  0.50549670  1
  H+  H371  1  0.18727713  0.82377989  0.58412988  1
  H+  H372  1  0.05228090  0.10876925  0.45150351  1
  H+  H373  1  0.82226345  0.15697571  0.74025122  1
  H+  H374  1  0.41339534  0.81869972  0.27282803  1
  H+  H375  1  0.57753341  0.91201418  0.43736767  1
  H+  H376  1  0.68033791  0.57761529  0.26083087  1
  H+  H377  1  0.41729114  0.08888452  0.22823649  1
  H+  H378  1  0.07717403  0.15950369  0.10339352  1
  H+  H379  1  0.83828405  0.42895641  0.10086502  1
  H+  H380  1  0.86172027  0.20027652  0.73640050  1
  H+  H381  1  0.83224191  0.67087937  0.76801277  1
  H+  H382  1  0.08510392  0.19027017  0.38313886  1
  H+  H383  1  0.91979128  0.82402070  0.25668591  1
  O2-  O384  1  0.08089920  0.16376689  0.14906731  1
  O2-  O385  1  0.07700833  0.13928868  0.48937524  1
  O2-  O386  1  0.06771873  0.11999134  0.79895520  1
  O2-  O387  1  0.08532718  0.42384351  0.14189915  1
  O2-  O388  1  0.06423394  0.39128525  0.47514613  1
  O2-  O389  1  0.07555206  0.40494726  0.80472759  1
  O2-  O390  1  0.09732925  0.68000362  0.14448484  1
  O2-  O391  1  0.07881630  0.72393027  0.45642730  1
  O2-  O392  1  0.08567830  0.65554742  0.81457452  1
  O2-  O393  1  0.07987969  0.91324908  0.14530521  1
  O2-  O394  1  0.06717721  0.88593624  0.46036973  1
  O2-  O395  1  0.08494837  0.90473513  0.81831055  1
  O2-  O396  1  0.33409755  0.17227736  0.14611864  1
  O2-  O397  1  0.30863329  0.13386935  0.46709572  1
  O2-  O398  1  0.32399347  0.15486860  0.81972815  1
  O2-  O399  1  0.33310960  0.41558929  0.15421152  1
  O2-  O400  1  0.32563594  0.40847935  0.47863301  1
  O2-  O401  1  0.33344143  0.42645118  0.80134983  1
  O2-  O402  1  0.32820048  0.66075282  0.14981083  1
  O2-  O403  1  0.31718401  0.65791396  0.46676599  1
  O2-  O404  1  0.33052419  0.67733107  0.82376938  1
  O2-  O405  1  0.35090169  0.93545686  0.14182078  1
  O2-  O406  1  0.32758620  0.91433543  0.46970654  1
  O2-  O407  1  0.33164481  0.90436653  0.81656113  1
  O2-  O408  1  0.58486974  0.16962404  0.13871437  1
  O2-  O409  1  0.58225825  0.16868796  0.47518482  1
  O2-  O410  1  0.56993706  0.15002460  0.81326177  1
  O2-  O411  1  0.58594068  0.41574795  0.14324705  1
  O2-  O412  1  0.59885815  0.43732852  0.47776003  1
  O2-  O413  1  0.56967997  0.41386761  0.81548253  1
  O2-  O414  1  0.58628440  0.66427437  0.19184363  1
  O2-  O415  1  0.58084735  0.66099875  0.47676872  1
  O2-  O416  1  0.59301554  0.67046844  0.80334988  1
  O2-  O417  1  0.57169814  0.90208262  0.14267417  1
  O2-  O418  1  0.57460178  0.90465120  0.48227980  1
  O2-  O419  1  0.57850014  0.92523908  0.81371224  1
  O2-  O420  1  0.82289286  0.13388755  0.14227558  1
  O2-  O421  1  0.88196672  0.25967046  0.40927357  1
  O2-  O422  1  0.83075800  0.17343228  0.85700740  1
  O2-  O423  1  0.83376309  0.42837950  0.14620000  1
  O2-  O424  1  0.85176920  0.40583287  0.49579814  1
  O2-  O425  1  0.83987826  0.41301256  0.81513743  1
  O2-  O426  1  0.83860165  0.66947569  0.15252988  1
  O2-  O427  1  0.83607203  0.66804252  0.47993858  1
  O2-  O428  1  0.82814865  0.66615344  0.81323297  1
  O2-  O429  1  0.82093924  0.89476672  0.16506240  1
  O2-  O430  1  0.82625785  0.91057013  0.47775914  1
  O2-  O431  1  0.84329844  0.91929113  0.81519627  1
  O2-  O432  1  0.16978498  0.08492670  0.18346140  1
  O2-  O433  1  0.14997931  0.04458313  0.52081134  1
  O2-  O434  1  0.16784375  0.07210633  0.86257750  1
  O2-  O435  1  0.16214181  0.32923564  0.18259855  1
  O2-  O436  1  0.15877373  0.31886054  0.51576628  1
  O2-  O437  1  0.18157832  0.35432062  0.84446340  1
  O2-  O438  1  0.17321064  0.58924345  0.18471345  1
  O2-  O439  1  0.14949705  0.55803765  0.52566754  1
  O2-  O440  1  0.17273124  0.57947954  0.84670901  1
  O2-  O441  1  0.16975906  0.83477889  0.18596193  1
  O2-  O442  1  0.18735644  0.83906721  0.53843791  1
  O2-  O443  1  0.17058054  0.82124701  0.85012872  1
  O2-  O444  1  0.41974560  0.09377083  0.18283096  1
  O2-  O445  1  0.41350497  0.08424338  0.51188925  1
  O2-  O446  1  0.40909006  0.07061373  0.85611895  1
  O2-  O447  1  0.42133275  0.33557027  0.18808346  1
  O2-  O448  1  0.44183457  0.37080088  0.53777985  1
  O2-  O449  1  0.36469533  0.30600768  0.86332217  1
  O2-  O450  1  0.41258964  0.57861780  0.19530214  1
  O2-  O451  1  0.43949415  0.64249888  0.53120580  1
  O2-  O452  1  0.41933259  0.59089464  0.83045018  1
  O2-  O453  1  0.40310298  0.81159712  0.19662831  1
  O2-  O454  1  0.39338758  0.81349811  0.50324752  1
  O2-  O455  1  0.40607782  0.82314205  0.86242486  1
  O2-  O456  1  0.64712344  0.06797564  0.18005671  1
  O2-  O457  1  0.71718805  0.06144099  0.51032368  1
  O2-  O458  1  0.65337914  0.08003680  0.85621759  1
  O2-  O459  1  0.66776408  0.33372974  0.17804177  1
  O2-  O460  1  0.68306405  0.33897933  0.48800026  1
  O2-  O461  1  0.65764744  0.32586530  0.84575130  1
  O2-  O462  1  0.68079959  0.57798213  0.18265554  1
  O2-  O463  1  0.67205741  0.59614094  0.52578586  1
  O2-  O464  1  0.67068095  0.58910731  0.85513279  1
  O2-  O465  1  0.66798673  0.83296058  0.19088623  1
  O2-  O466  1  0.66233198  0.82680835  0.52080509  1
  O2-  O467  1  0.69064343  0.83329300  0.85807412  1
  O2-  O468  1  0.91765232  0.07402003  0.18948986  1
  O2-  O469  1  0.90985918  0.06775899  0.53124586  1
  O2-  O470  1  0.91447988  0.08066752  0.85771882  1
  O2-  O471  1  0.92951713  0.35392678  0.18280573  1
  O2-  O472  1  0.89745512  0.28795379  0.47243271  1
  O2-  O473  1  0.92173884  0.33872754  0.86216537  1
  O2-  O474  1  0.92723556  0.59565643  0.18421230  1
  O2-  O475  1  0.92870538  0.59460892  0.52141303  1
  O2-  O476  1  0.91137362  0.58735360  0.83957812  1
  O2-  O477  1  0.90306290  0.81824832  0.19098276  1
  O2-  O478  1  0.91341822  0.83253206  0.51872455  1
  O2-  O479  1  0.92182950  0.83198426  0.85537914  1
  O2-  O480  1  0.16177916  0.07680915  0.30748781  1
  O2-  O481  1  0.16472594  0.07531042  0.64534682  1
  O2-  O482  1  0.16110384  0.08010028  0.98176019  1
  O2-  O483  1  0.16785203  0.33811790  0.29861226  1
  O2-  O484  1  0.16018226  0.33574435  0.64100102  1
  O2-  O485  1  0.16590723  0.32325279  0.99347790  1
  O2-  O486  1  0.16933490  0.65855793  0.37895552  1
  O2-  O487  1  0.19116995  0.61959556  0.63552848  1
  O2-  O488  1  0.17848149  0.58727022  0.96932141  1
  O2-  O489  1  0.14435028  0.81319453  0.30665462  1
  O2-  O490  1  0.18360119  0.80760460  0.65023369  1
  O2-  O491  1  0.17710754  0.80325690  0.96599666  1
  O2-  O492  1  0.41297902  0.07573641  0.30611816  1
  O2-  O493  1  0.41159685  0.05147604  0.63389477  1
  O2-  O494  1  0.41935684  0.08873869  0.97852899  1
  O2-  O495  1  0.40069434  0.32872287  0.30828043  1
  O2-  O496  1  0.40368266  0.32958624  0.65461013  1
  O2-  O497  1  0.41162373  0.33275860  0.98417934  1
  O2-  O498  1  0.41514575  0.57512377  0.31440925  1
  O2-  O499  1  0.43268412  0.57176439  0.64301009  1
  O2-  O500  1  0.43217433  0.59645175  1.00723403  1
  O2-  O501  1  0.41323649  0.82117329  0.31844947  1
  O2-  O502  1  0.43053317  0.80560004  0.65574328  1
  O2-  O503  1  0.41219895  0.83393549  0.98029408  1
  O2-  O504  1  0.67103335  0.09317542  0.31016338  1
  O2-  O505  1  0.65558969  0.07312894  0.64258703  1
  O2-  O506  1  0.66042233  0.07621650  0.97891383  1
  O2-  O507  1  0.67039668  0.32584695  0.29808669  1
  O2-  O508  1  0.66110721  0.33097224  0.71430846  1
  O2-  O509  1  0.67886131  0.33107302  0.96629541  1
  O2-  O510  1  0.67691032  0.57968691  0.30639094  1
  O2-  O511  1  0.67513748  0.59342634  0.64913868  1
  O2-  O512  1  0.67985260  0.60536844  0.97782406  1
  O2-  O513  1  0.64829917  0.83618172  0.30441076  1
  O2-  O514  1  0.67070095  0.83052297  0.64640390  1
  O2-  O515  1  0.65801921  0.85621196  0.97249433  1
  O2-  O516  1  0.91486810  0.07979010  0.31889231  1
  O2-  O517  1  0.91881544  0.07243966  0.66286382  1
  O2-  O518  1  0.91174692  0.07611785  0.98075546  1
  O2-  O519  1  0.93433735  0.36407864  0.30962245  1
  O2-  O520  1  0.89906368  0.37758497  0.60332396  1
  O2-  O521  1  0.91994945  0.33331871  0.98593599  1
  O2-  O522  1  0.94991104  0.60704787  0.35131541  1
  O2-  O523  1  0.91280334  0.58159200  0.64729070  1
  O2-  O524  1  0.93022235  0.59906313  0.99619980  1
  O2-  O525  1  0.93172612  0.82964501  0.30374803  1
  O2-  O526  1  0.91494791  0.83259135  0.64625756  1
  O2-  O527  1  0.92610320  0.83197024  0.97424239  1
  O2-  O528  1  0.07579534  0.15752308  0.02706388  1
  O2-  O529  1  0.07971400  0.17393282  0.34049789  1
  O2-  O530  1  0.15858116  0.20756091  0.70700892  1
  O2-  O531  1  0.08707577  0.41792115  0.02131133  1
  O2-  O532  1  0.09511213  0.43355103  0.35887789  1
  O2-  O533  1  0.03387206  0.38039881  0.67179462  1
  O2-  O534  1  0.09192555  0.64912340  0.03153023  1
  O2-  O535  1  0.00823897  0.64166255  0.29954362  1
  O2-  O536  1  0.07416470  0.64783082  0.69333871  1
  O2-  O537  1  0.08663289  0.92761063  0.02213744  1
  O2-  O538  1  0.08089533  0.91716558  0.34371886  1
  O2-  O539  1  0.06755512  0.91075560  0.69356208  1
  O2-  O540  1  0.33124864  0.16365608  0.02320279  1
  O2-  O541  1  0.32685287  0.15929513  0.34158944  1
  O2-  O542  1  0.33361035  0.16780892  0.69411352  1
  O2-  O543  1  0.34116070  0.42354688  0.03344362  1
  O2-  O544  1  0.31693461  0.40471923  0.33354444  1
  O2-  O545  1  0.32918200  0.41438847  0.68038733  1
  O2-  O546  1  0.33483213  0.67168188  0.02766653  1
  O2-  O547  1  0.34340869  0.66393296  0.35698049  1
  O2-  O548  1  0.33895624  0.64071612  0.69303085  1
  O2-  O549  1  0.33714661  0.92456990  0.01564428  1
  O2-  O550  1  0.32281902  0.90939860  0.34634687  1
  O2-  O551  1  0.34460831  0.88804567  0.69578751  1
  O2-  O552  1  0.58619465  0.17312925  0.01511646  1
  O2-  O553  1  0.57631306  0.15490391  0.34877004  1
  O2-  O554  1  0.55864678  0.14944905  0.69222000  1
  O2-  O555  1  0.56241443  0.36052403  0.03147802  1
  O2-  O556  1  0.56947123  0.43048208  0.35237601  1
  O2-  O557  1  0.58175174  0.41265628  0.68376619  1
  O2-  O558  1  0.59393756  0.69488225  0.01708499  1
  O2-  O559  1  0.59638244  0.65533350  0.34610998  1
  O2-  O560  1  0.59290237  0.67032503  0.68345447  1
  O2-  O561  1  0.56880819  0.91209845  0.01499275  1
  O2-  O562  1  0.58016104  0.92250938  0.35680411  1
  O2-  O563  1  0.58745065  0.91372142  0.69138412  1
  O2-  O564  1  0.83177907  0.16303507  0.01829794  1
  O2-  O565  1  0.79072839  0.09104361  0.40044924  1
  O2-  O566  1  0.81562552  0.12196379  0.60646239  1
  O2-  O567  1  0.84242264  0.42023735  0.02352775  1
  O2-  O568  1  0.83960827  0.43472010  0.34968547  1
  O2-  O569  1  0.82447645  0.42164846  0.69483566  1
  O2-  O570  1  0.84934500  0.67707046  0.02794854  1
  O2-  O571  1  0.84012200  0.66203050  0.35697733  1
  O2-  O572  1  0.84175600  0.67309984  0.68925915  1
  O2-  O573  1  0.83821698  0.90479927  0.01168603  1
  O2-  O574  1  0.82178991  0.92159292  0.35328616  1
  O2-  O575  1  0.82768702  0.90502626  0.69424753  1
