# generated using pymatgen
data_H2O
_symmetry_space_group_name_H-M   'P 1'
_cell_length_a   17.98925830
_cell_length_b   17.99721086
_cell_length_c   22.00369677
_cell_angle_alpha   90.01753012
_cell_angle_beta   90.01738329
_cell_angle_gamma   119.98160074
_symmetry_Int_Tables_number   1
_chemical_formula_structural   H2O
_chemical_formula_sum   'H384 O192'
_cell_volume   6170.56817233
_cell_formula_units_Z   192
loop_
 _symmetry_equiv_pos_site_id
 _symmetry_equiv_pos_as_xyz
  1  'x, y, z'
loop_
 _atom_type_symbol
 _atom_type_oxidation_number
  H+  1.0
  O2-  -2.0
loop_
 _atom_site_type_symbol
 _atom_site_label
 _atom_site_symmetry_multiplicity
 _atom_site_fract_x
 _atom_site_fract_y
 _atom_site_fract_z
 _atom_site_occupancy
  H+  H0  1  0.58472473  0.93010873  0.28161250  1
  H+  H1  1  0.98524277  0.29202645  0.56436733  1
  H+  H2  1  0.38494661  0.61123100  0.82281232  1
  H+  H3  1  0.53619539  0.40327226  0.67106286  1
  H+  H4  1  1.03218534  0.64114443  0.50053005  1
  H+  H5  1  0.79124062  0.90435507  0.34658411  1
  H+  H6  1  0.86265988  0.22073396  0.15900678  1
  H+  H7  1  0.09736828  0.71945520  0.67484155  1
  H+  H8  1  0.85073650  0.71362536  0.66855626  1
  H+  H9  1  0.35233118  0.84701696  0.67378755  1
  H+  H10  1  0.22131915  0.62043628  0.83761505  1
  H+  H11  1  0.47703519  0.86825452  0.99270129  1
  H+  H12  1  0.13027414  0.38459073  0.16102586  1
  H+  H13  1  0.88935628  1.02835766  0.17346630  1
  H+  H14  1  0.51796705  0.13755429  0.49563012  1
  H+  H15  1  0.39149461  0.39419652  0.16513026  1
  H+  H16  1  0.02006272  0.13161663  0.01270060  1
  H+  H17  1  0.13948753  0.34743129  -0.00453071  1
  H+  H18  1  0.87786395  0.50449632  0.99830793  1
  H+  H19  1  0.69774524  0.59831757  -0.00279273  1
  H+  H20  1  0.89231102  0.60228049  0.16422666  1
  H+  H21  1  0.25212775  0.63585838  -0.01645561  1
  H+  H22  1  0.13315764  0.60794806  0.31462621  1
  H+  H23  1  0.35104844  0.45487169  0.79571112  1
  H+  H24  1  0.57838287  0.66688462  0.08956826  1
  H+  H25  1  0.10392366  0.53941671  0.97650753  1
  H+  H26  1  0.64138249  0.78435986  0.49760516  1
  H+  H27  1  0.63548751  0.77865870  -0.00010722  1
  H+  H28  1  0.77076106  0.63752106  0.82716802  1
  H+  H29  1  0.61470110  0.13250659  -0.00738531  1
  H+  H30  1  0.38057251  0.02443385  0.83584068  1
  H+  H31  1  0.01924375  0.39239768  0.49964395  1
  H+  H32  1  0.35340478  0.46765777  0.02385610  1
  H+  H33  1  0.38223085  0.11845563  0.50432521  1
  H+  H34  1  0.63639515  0.27003468  0.50350395  1
  H+  H35  1  0.88377111  0.61573362  0.31793772  1
  H+  H36  1  0.37439375  0.27500990  0.49786508  1
  H+  H37  1  0.77159236  0.38116359  0.49757667  1
  H+  H38  1  0.60966768  0.86328068  0.15312862  1
  H+  H39  1  0.13411857  0.78093214  0.83849024  1
  H+  H40  1  0.61284434  0.38394133  0.33597193  1
  H+  H41  1  0.11943758  0.72505879  0.32063542  1
  H+  H42  1  0.61442686  0.14602106  0.34447973  1
  H+  H43  1  0.38294864  0.86668462  0.50756945  1
  H+  H44  1  0.99793176  0.90447850  0.68873120  1
  H+  H45  1  0.11174384  0.47547326  0.82671279  1
  H+  H46  1  0.12447620  0.65114820  0.49579019  1
  H+  H47  1  0.14088481  0.86530070  0.32496973  1
  H+  H48  1  0.81365158  0.65902905  0.49549660  1
  H+  H49  1  0.76017518  0.88268133  0.83044675  1
  H+  H50  1  0.33385626  0.19119069  0.16677107  1
  H+  H51  1  0.86633413  0.37365128  0.00866594  1
  H+  H52  1  0.64128001  0.35651293  0.99840351  1
  H+  H53  1  0.12493917  0.22610106  0.34962060  1
  H+  H54  1  0.88555778  0.36096967  0.84373687  1
  H+  H55  1  0.82530037  0.41014676  0.77426136  1
  H+  H56  1  0.62538636  0.88758104  0.32114300  1
  H+  H57  1  0.87482816  0.10811548  0.84746344  1
  H+  H58  1  0.36496195  0.15434169  0.67632334  1
  H+  H59  1  0.10086919  0.13437090  0.67075961  1
  H+  H60  1  0.37229400  0.23440795  1.00644349  1
  H+  H61  1  0.09785926  0.41867170  0.38807844  1
  H+  H62  1  0.12321253  0.21730709  0.50888897  1
  H+  H63  1  0.92529378  0.33299125  0.93417191  1
  H+  H64  1  0.60211230  0.88722629  0.66720643  1
  H+  H65  1  0.87795242  0.60324036  0.66069936  1
  H+  H66  1  0.77985421  0.76123069  0.60706891  1
  H+  H67  1  0.71921599  0.11448761  0.50416396  1
  H+  H68  1  0.20314552  0.07912083  0.16235256  1
  H+  H69  1  0.06555155  0.24563740  0.63685548  1
  H+  H70  1  0.88669543  0.11360904  -0.00535480  1
  H+  H71  1  0.87920855  0.60677578  0.84505501  1
  H+  H72  1  0.89681870  0.53360810  0.32485728  1
  H+  H73  1  0.10060571  0.13560519  0.82703278  1
  H+  H74  1  0.81607387  0.57259815  0.01723542  1
  H+  H75  1  0.82475549  0.64247288  0.21901160  1
  H+  H76  1  0.62855343  1.11211391  0.50485001  1
  H+  H77  1  0.89850117  0.87576457  0.32890465  1
  H+  H78  1  0.52410910  0.13181192  0.83104361  1
  H+  H79  1  0.32293916  0.66367955  -0.06589908  1
  H+  H80  1  0.71842360  0.36248794  0.17103391  1
  H+  H81  1  0.63756797  0.26602997  0.65856629  1
  H+  H82  1  0.38529383  0.78002793  -0.00782090  1
  H+  H83  1  0.63183389  0.36255124  0.84216931  1
  H+  H84  1  0.77605697  0.13742685  -0.00729593  1
  H+  H85  1  0.58221308  0.41595594  0.07462068  1
  H+  H86  1  0.37687859  0.14098489  0.82528939  1
  H+  H87  1  0.52280878  0.14132553  0.34348088  1
  H+  H88  1  0.91394746  0.57503877  0.60300117  1
  H+  H89  1  0.47231962  0.86709285  0.50546384  1
  H+  H90  1  0.22735551  0.34661493  -0.00408691  1
  H+  H91  1  0.77487108  0.37037182  1.00711965  1
  H+  H92  1  0.89350499  0.74633065  0.48146611  1
  H+  H93  1  0.57779267  0.40895828  0.43046711  1
  H+  H94  1  0.15990610  0.04066048  0.66430668  1
  H+  H95  1  0.24822485  0.34684124  0.17739031  1
  H+  H96  1  0.76308915  0.37672157  0.67679073  1
  H+  H97  1  0.26926219  0.13563540  0.49161293  1
  H+  H98  1  0.65870629  0.59479137  0.89500690  1
  H+  H99  1  0.66417007  0.82906432  0.90077925  1
  H+  H100  1  0.99933710  0.62353375  0.67674707  1
  H+  H101  1  0.11544901  0.63195779  0.99465199  1
  H+  H102  1  0.88177652  0.86001543  0.17228743  1
  H+  H103  1  0.14790850  0.36569996  0.31652675  1
  H+  H104  1  -0.00870721  0.36391900  0.32183479  1
  H+  H105  1  0.36822213  0.46929876  0.16889963  1
  H+  H106  1  0.85902555  0.46454873  0.15998069  1
  H+  H107  1  0.32852407  0.92015232  0.43895304  1
  H+  H108  1  0.35902270  0.48266603  0.49236623  1
  H+  H109  1  0.02748275  0.13981705  0.16589727  1
  H+  H110  1  0.26985607  0.88807466  0.82714719  1
  H+  H111  1  0.58906643  0.47306189  0.16850068  1
  H+  H112  1  0.36681916  0.60958766  1.00300247  1
  H+  H113  1  0.35783844  0.97867854  0.49818487  1
  H+  H114  1  0.63843770  0.62213923  0.65465561  1
  H+  H115  1  0.22896427  0.13727719  0.66024898  1
  H+  H116  1  0.63649528  0.35861608  0.50289705  1
  H+  H117  1  0.33502392  0.92241168  0.66190925  1
  H+  H118  1  0.61293002  0.13453899  0.84457635  1
  H+  H119  1  0.06862134  0.16205508  0.73056123  1
  H+  H120  1  0.63384251  0.86961424  0.84868545  1
  H+  H121  1  0.36478184  0.73015593  0.83303386  1
  H+  H122  1  0.87227740  0.98830797  0.67029442  1
  H+  H123  1  0.40050985  0.83555521  0.23064246  1
  H+  H124  1  0.50718317  0.63583518  1.02070103  1
  H+  H125  1  0.37896616  0.35664775  0.83267809  1
  H+  H126  1  0.60833943  0.73634086  0.15337907  1
  H+  H127  1  1.01240255  0.13653762  0.82527690  1
  H+  H128  1  1.03564669  0.90934803  0.99839281  1
  H+  H129  1  0.12208645  0.13698275  0.35101580  1
  H+  H130  1  0.58539426  0.43632860  0.73538971  1
  H+  H131  1  0.49618379  0.11573497  0.18119680  1
  H+  H132  1  0.63905446  1.02861222  -0.03481041  1
  H+  H133  1  0.39798483  0.57152737  0.60825280  1
  H+  H134  1  0.01078015  0.63168364  0.83044347  1
  H+  H135  1  0.34388739  0.44167509  0.64847530  1
  H+  H136  1  0.36024592  0.64086775  0.16012807  1
  H+  H137  1  0.10268130  0.63619608  0.82326853  1
  H+  H138  1  0.87870390  0.51716653  0.84522462  1
  H+  H139  1  0.91547991  0.83660535  0.23292302  1
  H+  H140  1  0.37468747  0.61835678  0.50981255  1
  H+  H141  1  0.86543052  0.22446966  0.99967545  1
  H+  H142  1  0.89529042  0.40731537  0.34942246  1
  H+  H143  1  0.26529334  0.37060423  0.81441623  1
  H+  H144  1  0.12803754  0.48029885  0.32961619  1
  H+  H145  1  0.12975182  0.26923288  0.83524504  1
  H+  H146  1  0.36565230  0.64777094  0.33847223  1
  H+  H147  1  0.87615543  0.11307095  0.66159045  1
  H+  H148  1  0.63105677  0.51779322  0.32583481  1
  H+  H149  1  0.11767518  0.89453354  0.82785660  1
  H+  H150  1  0.37595294  0.24511462  0.67381138  1
  H+  H151  1  0.89060780  0.51919273  0.51014456  1
  H+  H152  1  0.23766654  0.88145806  -0.01671940  1
  H+  H153  1  0.37623261  0.41147042  0.34175339  1
  H+  H154  1  0.46259952  0.62234771  0.52709518  1
  H+  H155  1  0.45070241  0.31055382  0.16297116  1
  H+  H156  1  0.41772833  0.13079594  0.17952805  1
  H+  H157  1  0.60687860  0.72650692  0.66163525  1
  H+  H158  1  0.28321949  0.14607281  0.01295556  1
  H+  H159  1  0.46643459  0.85970853  0.32612374  1
  H+  H160  1  0.12437747  0.47017383  0.15856399  1
  H+  H161  1  0.01990151  0.86248301  0.15552228  1
  H+  H162  1  0.85464685  0.13043546  0.49347356  1
  H+  H163  1  0.11117500  0.21921745  1.01050739  1
  H+  H164  1  0.30045019  0.36325687  0.69125095  1
  H+  H165  1  0.85246913  0.21796238  0.83756726  1
  H+  H166  1  0.89993061  0.12440199  0.16813077  1
  H+  H167  1  0.61440040  0.73666661  0.82054534  1
  H+  H168  1  0.87503126  0.90053081  0.49194424  1
  H+  H169  1  0.59284280  0.45888210  0.49400756  1
  H+  H170  1  0.37581689  0.77463575  0.32901756  1
  H+  H171  1  0.13211014  0.45848197  0.01507447  1
  H+  H172  1  0.02805505  0.64026848  0.31513424  1
  H+  H173  1  0.63173727  0.27885018  0.33019117  1
  H+  H174  1  0.77002644  0.89483745  0.15279989  1
  H+  H175  1  0.62057073  0.22448888  0.15486537  1
  H+  H176  1  0.66700031  0.47600967  0.03856506  1
  H+  H177  1  0.39610775  0.54075306  0.32859419  1
  H+  H178  1  0.07064967  0.40617415  0.73210977  1
  H+  H179  1  0.48459876  0.37163090  0.99027391  1
  H+  H180  1  0.62651135  0.35721870  0.17402043  1
  H+  H181  1  0.02863368  0.89320002  0.81773424  1
  H+  H182  1  0.59488773  0.62518400  0.49715187  1
  H+  H183  1  0.21123235  0.82368646  0.66455274  1
  H+  H184  1  0.91662414  0.08197750  0.93667180  1
  H+  H185  1  0.59649172  0.63219147  1.01076574  1
  H+  H186  1  0.14616758  0.25480928  0.17441000  1
  H+  H187  1  0.46693009  0.35846963  0.49472515  1
  H+  H188  1  0.70890535  0.61243362  0.17863516  1
  H+  H189  1  0.71653923  0.10738660  0.66223815  1
  H+  H190  1  0.90226031  0.61338070  0.50479169  1
  H+  H191  1  0.14755870  0.87902247  -0.01739585  1
  H+  H192  1  0.52916695  0.89526608  0.84566596  1
  H+  H193  1  0.06155493  0.65988805  0.74299643  1
  H+  H194  1  0.47542463  0.85819709  0.65932437  1
  H+  H195  1  0.22211525  0.86268761  0.51535603  1
  H+  H196  1  0.85817928  0.98202494  0.00796117  1
  H+  H197  1  0.84016674  0.33486980  0.18600342  1
  H+  H198  1  0.95559424  0.35043730  0.67559518  1
  H+  H199  1  0.98251734  0.96680252  0.93793864  1
  H+  H200  1  0.99437507  0.12324402  0.51175858  1
  H+  H201  1  0.22452198  0.61288152  0.32277552  1
  H+  H202  1  0.89704049  0.74545948  1.02122893  1
  H+  H203  1  0.27437120  0.64285879  0.49189614  1
  H+  H204  1  0.36136179  0.62604925  0.68354762  1
  H+  H205  1  0.52214401  0.38059305  0.33823333  1
  H+  H206  1  0.22801929  0.60743340  0.16630037  1
  H+  H207  1  0.84347460  0.84549382  0.64287706  1
  H+  H208  1  0.72647399  0.86559070  -0.00328895  1
  H+  H209  1  0.91608031  0.94303573  0.70253414  1
  H+  H210  1  0.90936466  0.32733978  0.27549661  1
  H+  H211  1  0.24195035  0.35298182  0.51717895  1
  H+  H212  1  0.00442566  0.90760005  0.65475658  1
  H+  H213  1  0.11285859  0.88178313  0.50029631  1
  H+  H214  1  0.61274887  0.64289579  0.16199839  1
  H+  H215  1  0.60768768  0.52296322  0.98729074  1
  H+  H216  1  0.61726526  0.98407475  0.85895591  1
  H+  H217  1  0.85837725  0.37884807  0.50472195  1
  H+  H218  1  0.23805391  0.36793866  0.32075568  1
  H+  H219  1  0.13446315  0.10352538  0.50962818  1
  H+  H220  1  0.39542229  0.37026136  -0.00334855  1
  H+  H221  1  0.11307717  0.97150266  0.34226255  1
  H+  H222  1  0.78501492  0.90215277  0.49302773  1
  H+  H223  1  0.62371091  0.63961611  0.33749621  1
  H+  H224  1  0.61203252  0.98243633  0.49011732  1
  H+  H225  1  0.15118818  0.90791622  0.67930995  1
  H+  H226  1  0.98094013  0.86460226  0.32813014  1
  H+  H227  1  0.17092296  0.08373086  0.56954409  1
  H+  H228  1  0.24118796  0.32428800  0.58464700  1
  H+  H229  1  0.65841220  0.33317517  0.26888184  1
  H+  H230  1  1.11425262  0.38726132  0.82915388  1
  H+  H231  1  0.68576035  0.58437827  0.50570982  1
  H+  H232  1  0.73561927  0.12825646  0.33211366  1
  H+  H233  1  0.76619123  0.62631932  0.67081115  1
  H+  H234  1  0.63666483  0.62415421  0.83219686  1
  H+  H235  1  0.46515696  0.59628322  0.66179190  1
  H+  H236  1  0.85966124  0.73152871  0.33297056  1
  H+  H237  1  0.11741901  0.62885181  0.15472246  1
  H+  H238  1  0.61725055  0.22092176  1.00231883  1
  H+  H239  1  0.52757867  0.64634052  0.80861402  1
  H+  H240  1  0.32890494  0.16405697  0.43143623  1
  H+  H241  1  0.87629931  0.23572815  0.34332475  1
  H+  H242  1  0.11847267  0.97373957  0.49818897  1
  H+  H243  1  0.87867924  0.85970173  0.82920939  1
  H+  H244  1  0.88234946  0.12428747  0.32421985  1
  H+  H245  1  0.36619319  0.39655018  0.48662671  1
  H+  H246  1  0.22830180  0.10318166  0.32408439  1
  H+  H247  1  0.58798532  0.67454053  0.72352157  1
  H+  H248  1  0.13961658  0.53667873  0.50909725  1
  H+  H249  1  0.36554215  0.98549790  0.00127091  1
  H+  H250  1  0.02933577  0.62756795  0.15873429  1
  H+  H251  1  0.86754505  0.22158069  0.50297271  1
  H+  H252  1  0.87688500  0.02016058  0.84418774  1
  H+  H253  1  0.48314980  0.11822492  0.98657409  1
  H+  H254  1  0.65796824  0.77618351  0.32901538  1
  H+  H255  1  0.36239749  0.89586460  0.34450200  1
  H+  H256  1  0.63539191  0.10321554  0.17352536  1
  H+  H257  1  0.71857286  0.86951291  0.65417374  1
  H+  H258  1  0.84767381  0.21457124  0.68518614  1
  H+  H259  1  0.24348796  0.63665761  0.66072573  1
  H+  H260  1  0.15075528  1.03339006  0.00132029  1
  H+  H261  1  0.36408544  0.73177981  0.49188237  1
  H+  H262  1  0.47892397  0.12538222  0.66468958  1
  H+  H263  1  1.00991826  0.63282884  1.01508373  1
  H+  H264  1  0.61247432  0.48301314  0.82990988  1
  H+  H265  1  0.48649254  0.62796277  0.32609618  1
  H+  H266  1  0.88834494  1.03272799  0.32538625  1
  H+  H267  1  0.39686505  0.12372982  0.99042043  1
  H+  H268  1  0.97504041  0.36104068  0.84012407  1
  H+  H269  1  0.76833659  0.38179656  0.83442534  1
  H+  H270  1  0.36162439  0.89634577  0.00583826  1
  H+  H271  1  0.61300740  0.89396110  1.00296072  1
  H+  H272  1  0.98393385  0.35600882  0.99495549  1
  H+  H273  1  0.60327548  0.12797590  0.67382070  1
  H+  H274  1  0.59410179  0.97014114  0.15932548  1
  H+  H275  1  0.10150828  0.95334250  0.15918018  1
  H+  H276  1  0.12728384  0.09931526  0.16933314  1
  H+  H277  1  0.16929554  0.86617476  0.16307129  1
  H+  H278  1  0.46823941  0.60769207  0.17124612  1
  H+  H279  1  0.59993312  0.97419610  0.66815308  1
  H+  H280  1  0.33158634  0.25698965  0.32579092  1
  H+  H281  1  0.35835535  0.85893157  0.17627706  1
  H+  H282  1  1.07604059  0.37229798  0.66572502  1
  H+  H283  1  0.14464881  0.11850044  1.00455039  1
  H+  H284  1  0.38805677  0.02827396  0.33015646  1
  H+  H285  1  0.52379027  0.39363883  0.82810493  1
  H+  H286  1  0.87784619  0.73235491  -0.01000058  1
  H+  H287  1  0.64166628  0.87291711  0.49670221  1
  H+  H288  1  0.33355432  0.40090685  0.07624975  1
  H+  H289  1  0.16305580  0.07290522  0.26800614  1
  H+  H290  1  0.67136739  0.32548697  0.59932578  1
  H+  H291  1  0.42631061  0.09095270  0.26983889  1
  H+  H292  1  0.82069756  0.91810256  0.77109740  1
  H+  H293  1  0.13366761  0.77175290  0.51193219  1
  H+  H294  1  0.89682237  1.02686372  0.51149648  1
  H+  H295  1  0.43317661  0.33111552  0.58715054  1
  H+  H296  1  0.37869978  0.23967948  0.82948955  1
  H+  H297  1  0.33146468  0.67068927  0.39874541  1
  H+  H298  1  0.98746172  0.87489859  0.50308135  1
  H+  H299  1  0.41822793  0.55994649  0.86207127  1
  H+  H300  1  0.41207030  0.83661677  0.90319088  1
  H+  H301  1  0.41296735  0.09377370  0.56539599  1
  H+  H302  1  0.85390894  0.46482355  0.67875076  1
  H+  H303  1  0.91727311  0.31340193  0.58658891  1
  H+  H304  1  0.83712943  0.67126819  0.39059001  1
  H+  H305  1  0.18163174  0.60450580  0.56539868  1
  H+  H306  1  0.02406452  0.45853750  0.45141282  1
  H+  H307  1  0.93577324  0.87262248  0.91409442  1
  H+  H308  1  0.32920376  0.90759823  0.76897454  1
  H+  H309  1  0.15408799  0.81223554  0.60484216  1
  H+  H310  1  0.41392754  0.33752433  0.89648720  1
  H+  H311  1  0.17236608  0.84605120  0.89693450  1
  H+  H312  1  0.09221983  0.40160179  0.07415418  1
  H+  H313  1  0.38418254  0.86400857  0.84200244  1
  H+  H314  1  0.08800514  0.16881234  0.44298317  1
  H+  H315  1  0.41205068  0.82185174  0.60054858  1
  H+  H316  1  0.57809421  0.16665384  0.43598339  1
  H+  H317  1  0.08297610  0.16635979  0.10337512  1
  H+  H318  1  0.41367348  0.08678838  0.89525178  1
  H+  H319  1  0.71643571  0.83375218  0.27479997  1
  H+  H320  1  0.58006543  0.15952602  0.73547233  1
  H+  H321  1  0.91450766  0.57421503  0.22674474  1
  H+  H322  1  0.92157712  0.09095458  0.57492204  1
  H+  H323  1  0.63542331  0.53123165  0.66141767  1
  H+  H324  1  0.89912878  0.56929072  0.94202574  1
  H+  H325  1  0.72166658  0.60803311  0.32394799  1
  H+  H326  1  0.76262675  0.13146693  0.84976638  1
  H+  H327  1  0.33374401  0.66924220  0.77392663  1
  H+  H328  1  0.65906894  0.07672573  0.23612498  1
  H+  H329  1  0.49046647  0.29565889  0.61247194  1
  H+  H330  1  0.57948402  0.92781838  0.05754261  1
  H+  H331  1  0.18154183  0.32293699  0.24081135  1
  H+  H332  1  0.86051725  0.43481485  0.40678021  1
  H+  H333  1  0.59310898  0.16167728  0.09674012  1
  H+  H334  1  0.86765076  0.90169696  -0.00022064  1
  H+  H335  1  0.64672713  0.58332634  0.23503123  1
  H+  H336  1  0.85159929  0.72260394  0.17742166  1
  H+  H337  1  0.64531493  0.57255758  0.57234482  1
  H+  H338  1  0.16874882  0.32530872  0.89523192  1
  H+  H339  1  0.78641538  0.60166609  0.07710478  1
  H+  H340  1  0.27500666  0.89704889  0.34315895  1
  H+  H341  1  0.83534292  0.92138126  0.09825861  1
  H+  H342  1  0.08470041  0.91168969  0.40150483  1
  H+  H343  1  0.88489908  0.77336416  0.83338527  1
  H+  H344  1  0.91158874  0.08916244  0.25710783  1
  H+  H345  1  0.36628735  0.19163597  0.09880006  1
  H+  H346  1  0.33562448  0.43058752  0.39961802  1
  H+  H347  1  0.07857843  0.66341983  0.07070083  1
  H+  H348  1  0.66533373  0.32978339  0.93502460  1
  H+  H349  1  0.08245549  0.91230062  0.06200290  1
  H+  H350  1  0.64858833  1.03913299  0.33341344  1
  H+  H351  1  0.85304530  0.17327311  0.09473318  1
  H+  H352  1  0.66841993  0.84190082  0.59104564  1
  H+  H353  1  0.96893997  0.11504039  0.66128052  1
  H+  H354  1  0.41640610  0.58397982  0.23311856  1
  H+  H355  1  0.37222725  0.72040082  0.67841552  1
  H+  H356  1  0.37167795  0.13021389  0.33576364  1
  H+  H357  1  0.86460911  0.34707654  0.67247351  1
  H+  H358  1  0.63915381  0.83726623  0.21263268  1
  H+  H359  1  0.60512395  0.67986209  0.39671176  1
  H+  H360  1  0.82767138  0.40094339  0.10224300  1
  H+  H361  1  0.16868682  0.57446193  0.22595131  1
  H+  H362  1  0.12964307  1.02990272  0.84462820  1
  H+  H363  1  0.63094296  0.27197693  0.84208814  1
  H+  H364  1  0.15939120  0.09009221  0.90357297  1
  H+  H365  1  0.35391022  0.72583552  0.15825292  1
  H+  H366  1  0.90712084  0.83289741  0.55235852  1
  H+  H367  1  0.34858823  0.18325893  0.76322694  1
  H+  H368  1  0.13489226  0.94797912  0.73848872  1
  H+  H369  1  0.38206907  0.05013085  0.66696734  1
  H+  H370  1  0.50067247  0.88516860  0.15298146  1
  H+  H371  1  0.15622588  0.59689764  0.89363805  1
  H+  H372  1  0.84113328  0.17152309  0.40107877  1
  H+  H373  1  0.14366040  0.60401789  0.66224091  1
  H+  H374  1  0.18616177  0.84913790  0.26714018  1
  H+  H375  1  0.81602724  0.14832720  0.74091195  1
  H+  H376  1  0.85471852  0.94325030  0.40316551  1
  H+  H377  1  0.11863317  0.30685993  0.58351310  1
  H+  H378  1  0.66178725  0.08436199  0.59988428  1
  H+  H379  1  0.82979510  0.66005371  0.76833656  1
  H+  H380  1  0.40362215  0.56696102  0.96134374  1
  H+  H381  1  0.51872405  0.62135069  0.45832708  1
  H+  H382  1  0.78532431  0.25270486  0.22542569  1
  H+  H383  1  0.57878911  0.92301747  0.43101105  1
  O2-  O384  1  0.08788016  0.16726342  0.14981564  1
  O2-  O385  1  0.08003846  0.16230721  0.48923046  1
  O2-  O386  1  0.07161442  0.16595001  0.80793239  1
  O2-  O387  1  0.09707715  0.40877014  0.14356250  1
  O2-  O388  1  0.05863757  0.43688724  0.47015033  1
  O2-  O389  1  0.08102113  0.41436764  0.81400506  1
  O2-  O390  1  0.08764986  0.66011550  0.14153546  1
  O2-  O391  1  0.09095510  0.67974965  0.48557441  1
  O2-  O392  1  0.06850132  0.66375435  0.80992056  1
  O2-  O393  1  0.07979963  0.89585694  0.14088753  1
  O2-  O394  1  0.08487681  0.91359243  0.48240497  1
  O2-  O395  1  0.09130835  0.92807742  0.81079686  1
  O2-  O396  1  0.38488462  0.20548006  0.14297431  1
  O2-  O397  1  0.32985695  0.16952045  0.47665384  1
  O2-  O398  1  0.35200840  0.17936697  0.80993328  1
  O2-  O399  1  0.34538091  0.40784697  0.15562104  1
  O2-  O400  1  0.33372909  0.42553375  0.47213188  1
  O2-  O401  1  0.32228608  0.39179897  0.79411399  1
  O2-  O402  1  0.32858398  0.66665089  0.14184931  1
  O2-  O403  1  0.33591990  0.67103575  0.47696014  1
  O2-  O404  1  0.33308751  0.66787275  0.81984306  1
  O2-  O405  1  0.28827047  0.90027473  0.16964383  1
  O2-  O406  1  0.32851908  0.91763980  0.48457423  1
  O2-  O407  1  0.33187647  0.91870485  0.81318474  1
  O2-  O408  1  0.59621104  0.16367206  0.14199780  1
  O2-  O409  1  0.57909275  0.16508559  0.48182950  1
  O2-  O410  1  0.58590370  0.16195891  0.81983793  1
  O2-  O411  1  0.56320410  0.41295990  0.15270504  1
  O2-  O412  1  0.57190414  0.40143288  0.47578172  1
  O2-  O413  1  0.58487607  0.42253835  0.81508933  1
  O2-  O414  1  0.58260012  0.67285182  0.14148728  1
  O2-  O415  1  0.57430520  0.66185000  0.47629675  1
  O2-  O416  1  0.59044937  0.67851628  0.80068717  1
  O2-  O417  1  0.56184616  0.91209696  0.13866607  1
  O2-  O418  1  0.58369402  0.92087003  0.47511917  1
  O2-  O419  1  0.59209192  0.92526603  0.84030199  1
  O2-  O420  1  0.87932963  0.18427819  0.13571767  1
  O2-  O421  1  0.83107478  0.16659185  0.48010979  1
  O2-  O422  1  0.81870373  0.15627146  0.82612195  1
  O2-  O423  1  0.82176804  0.40306002  0.14745941  1
  O2-  O424  1  0.83506325  0.41290387  0.48760818  1
  O2-  O425  1  0.82906160  0.41265714  0.81980861  1
  O2-  O426  1  0.81817761  0.65725654  0.17732708  1
  O2-  O427  1  0.86476527  0.68352481  0.47016970  1
  O2-  O428  1  0.83176792  0.66402148  0.81347122  1
  O2-  O429  1  0.83186472  0.92101822  0.14405751  1
  O2-  O430  1  0.84738021  0.93643226  0.48199169  1
  O2-  O431  1  0.82211696  0.91362845  0.81561616  1
  O2-  O432  1  0.15080118  0.06296657  0.18517805  1
  O2-  O433  1  0.16914283  0.07809588  0.52383075  1
  O2-  O434  1  0.14828150  0.08884065  0.85952711  1
  O2-  O435  1  0.18546733  0.31732403  0.19177584  1
  O2-  O436  1  0.20428044  0.30948892  0.54753195  1
  O2-  O437  1  0.16606622  0.32973160  0.85035736  1
  O2-  O438  1  0.16695024  0.57036032  0.18069003  1
  O2-  O439  1  0.17817879  0.59762892  0.51969440  1
  O2-  O440  1  0.15916580  0.59029970  0.84858032  1
  O2-  O441  1  0.20497542  0.85031714  0.18875682  1
  O2-  O442  1  0.16197661  0.83218123  0.53090782  1
  O2-  O443  1  0.16840124  0.84221414  0.84916752  1
  O2-  O444  1  0.43949633  0.09710048  0.20024236  1
  O2-  O445  1  0.41219772  0.08818206  0.52056935  1
  O2-  O446  1  0.41183030  0.08627715  0.84916109  1
  O2-  O447  1  0.47562134  0.37133625  0.17816944  1
  O2-  O448  1  0.40776119  0.33633478  0.51168971  1
  O2-  O449  1  0.41410494  0.33252238  0.85130231  1
  O2-  O450  1  0.41019993  0.57325015  0.18820409  1
  O2-  O451  1  0.40043942  0.58376683  0.52793450  1
  O2-  O452  1  0.41611939  0.57752644  0.82061772  1
  O2-  O453  1  0.39862442  0.83677302  0.18559044  1
  O2-  O454  1  0.41265088  0.83458351  0.52084626  1
  O2-  O455  1  0.41191654  0.83168476  0.85763524  1
  O2-  O456  1  0.65281659  0.06361106  0.19226969  1
  O2-  O457  1  0.65911509  0.08088244  0.51893531  1
  O2-  O458  1  0.66571238  0.08693333  0.88418370  1
  O2-  O459  1  0.65816607  0.32826916  0.18677880  1
  O2-  O460  1  0.66954577  0.33128008  0.51753571  1
  O2-  O461  1  0.66084384  0.33176259  0.85858279  1
  O2-  O462  1  0.64642213  0.58642320  0.18913044  1
  O2-  O463  1  0.63089840  0.56390248  0.52595043  1
  O2-  O464  1  0.66384078  0.59218605  0.85039577  1
  O2-  O465  1  0.64426315  0.83461808  0.16863763  1
  O2-  O466  1  0.67430883  0.84444273  0.51139903  1
  O2-  O467  1  0.66238405  0.83258819  0.85576148  1
  O2-  O468  1  0.92185191  0.08769283  0.19060053  1
  O2-  O469  1  0.92834270  0.08951898  0.52738684  1
  O2-  O470  1  0.90949666  0.08036542  0.85938528  1
  O2-  O471  1  0.84364838  0.28908443  0.21046095  1
  O2-  O472  1  0.94191147  0.30550020  0.54717034  1
  O2-  O473  1  0.91611310  0.33062387  0.85812154  1
  O2-  O474  1  0.91670242  0.56865146  0.18101081  1
  O2-  O475  1  0.92262477  0.57895029  0.52668573  1
  O2-  O476  1  0.90990516  0.57758235  0.86124838  1
  O2-  O477  1  0.90828631  0.82675016  0.18798765  1
  O2-  O478  1  0.92224600  0.84476010  0.50862293  1
  O2-  O479  1  0.91597649  0.83619152  0.84248483  1
  O2-  O480  1  0.16627603  0.07597257  0.31298443  1
  O2-  O481  1  0.17010366  0.09669669  0.64570691  1
  O2-  O482  1  0.18042449  0.09520972  0.98814094  1
  O2-  O483  1  0.17872931  0.33371548  0.30344607  1
  O2-  O484  1  0.06599224  0.28854480  0.60851768  1
  O2-  O485  1  0.16860378  0.31690423  0.97836747  1
  O2-  O486  1  0.16604355  0.57611293  0.30579455  1
  O2-  O487  1  0.19461936  0.63307651  0.63679801  1
  O2-  O488  1  0.14656282  0.59976740  0.97133740  1
  O2-  O489  1  0.17783358  0.84157670  0.31191325  1
  O2-  O490  1  0.15121315  0.80447377  0.65067492  1
  O2-  O491  1  0.17928253  0.85378381  0.96317572  1
  O2-  O492  1  0.41966841  0.08994839  0.31641840  1
  O2-  O493  1  0.41873602  0.10542129  0.64787327  1
  O2-  O494  1  0.42349525  0.09346951  0.97002121  1
  O2-  O495  1  0.38008792  0.24702397  0.32995642  1
  O2-  O496  1  0.45558084  0.32016185  0.62598939  1
  O2-  O497  1  0.42488830  0.34230066  0.97608028  1
  O2-  O498  1  0.42656913  0.59969462  0.31101998  1
  O2-  O499  1  0.40267579  0.56469373  0.65265452  1
  O2-  O500  1  0.40236073  0.57996740  1.00423680  1
  O2-  O501  1  0.40629560  0.83556649  0.31381711  1
  O2-  O502  1  0.41284837  0.81814663  0.64572842  1
  O2-  O503  1  0.41564985  0.84042592  0.97917067  1
  O2-  O504  1  0.67426850  0.09871598  0.31897173  1
  O2-  O505  1  0.65736602  0.08185545  0.64505546  1
  O2-  O506  1  0.67093486  0.09001796  0.95256053  1
  O2-  O507  1  0.65807097  0.33822258  0.31377888  1
  O2-  O508  1  0.67145767  0.32603642  0.64435308  1
  O2-  O509  1  0.66960608  0.32666643  0.98052113  1
  O2-  O510  1  0.66018092  0.57885444  0.31036688  1
  O2-  O511  1  0.66790862  0.59065183  0.63928248  1
  O2-  O512  1  0.64173199  0.58502452  0.97818650  1
  O2-  O513  1  0.69024490  0.83764626  0.31262995  1
  O2-  O514  1  0.66189338  0.83456918  0.63612401  1
  O2-  O515  1  0.66535183  0.83648442  0.98217920  1
  O2-  O516  1  0.91005948  0.09111116  0.30519280  1
  O2-  O517  1  0.90879143  0.08647564  0.64202179  1
  O2-  O518  1  0.91765675  0.08219023  0.98242831  1
  O2-  O519  1  0.92738535  0.33349347  0.31891855  1
  O2-  O520  1  0.89412314  0.31443550  0.66002000  1
  O2-  O521  1  0.92405445  0.32969801  0.97996299  1
  O2-  O522  1  0.91233918  0.58624850  0.29968299  1
  O2-  O523  1  0.91107579  0.57428009  0.64872463  1
  O2-  O524  1  0.89441394  0.56491973  0.98728227  1
  O2-  O525  1  0.92035282  0.83926006  0.31206203  1
  O2-  O526  1  0.84006506  0.79712297  0.61839090  1
  O2-  O527  1  0.95188570  0.90780630  0.95264873  1
  O2-  O528  1  0.07946058  0.16125299  0.03048103  1
  O2-  O529  1  0.09783870  0.17012793  0.37023483  1
  O2-  O530  1  0.06386308  0.15794522  0.68484676  1
  O2-  O531  1  0.09152856  0.39965833  0.02689540  1
  O2-  O532  1  0.10168004  0.41756763  0.34340374  1
  O2-  O533  1  0.05657701  0.40658440  0.68854905  1
  O2-  O534  1  0.07180213  0.66417440  0.02453657  1
  O2-  O535  1  0.08842191  0.66224558  0.32700874  1
  O2-  O536  1  0.06078196  0.65760881  0.69505690  1
  O2-  O537  1  0.09190027  0.92875352  0.01821110  1
  O2-  O538  1  0.08118420  0.91051565  0.35617206  1
  O2-  O539  1  0.16591453  0.96276510  0.69878763  1
  O2-  O540  1  0.34547133  0.17682324  0.02567429  1
  O2-  O541  1  0.33363236  0.15697800  0.35241224  1
  O2-  O542  1  0.33947898  0.18806700  0.69359427  1
  O2-  O543  1  0.33248423  0.40599464  0.03112365  1
  O2-  O544  1  0.33819548  0.43329105  0.35302600  1
  O2-  O545  1  0.31222447  0.37824617  0.64817118  1
  O2-  O546  1  0.31560654  0.65870870  -0.02173515  1
  O2-  O547  1  0.33067424  0.67270731  0.35322201  1
  O2-  O548  1  0.33779993  0.66280486  0.69823128  1
  O2-  O549  1  0.33027608  0.92641828  0.01678802  1
  O2-  O550  1  0.33505587  0.92834054  0.36045546  1
  O2-  O551  1  0.31515095  0.87252748  0.68813195  1
  O2-  O552  1  0.58605865  0.15939648  0.01519676  1
  O2-  O553  1  0.58242988  0.17363772  0.36058957  1
  O2-  O554  1  0.57386130  0.15871550  0.69050288  1
  O2-  O555  1  0.60605366  0.42924243  0.03257316  1
  O2-  O556  1  0.58131944  0.41581789  0.35221637  1
  O2-  O557  1  0.58958399  0.44693925  0.69090110  1
  O2-  O558  1  0.57006127  0.66421428  0.03173234  1
  O2-  O559  1  0.60223599  0.67920228  0.35169635  1
  O2-  O560  1  0.58175751  0.66740767  0.67818005  1
  O2-  O561  1  0.58291575  0.92634434  0.01247479  1
  O2-  O562  1  0.59160495  0.91745592  0.32384384  1
  O2-  O563  1  0.56831423  0.91317434  0.68128060  1
  O2-  O564  1  0.83242388  0.16331129  0.01368441  1
  O2-  O565  1  0.84233883  0.17272214  0.35557333  1
  O2-  O566  1  0.81968262  0.15139537  0.69567896  1
  O2-  O567  1  0.83405111  0.40162610  0.02461008  1
  O2-  O568  1  0.88526754  0.45262039  0.36587502  1
  O2-  O569  1  0.82253380  0.40642077  0.69631495  1
  O2-  O570  1  0.76528624  0.57242683  0.03817944  1
  O2-  O571  1  0.82799079  0.66991858  0.34593305  1
  O2-  O572  1  0.82704179  0.65583421  0.68627766  1
  O2-  O573  1  0.83077242  0.92008197  0.02129295  1
  O2-  O574  1  0.85280623  0.94113879  0.35767055  1
  O2-  O575  1  0.85958248  0.93157232  0.68855743  1
