# generated using pymatgen
data_H2O
_symmetry_space_group_name_H-M   'P 1'
_cell_length_a   17.98312235
_cell_length_b   17.97183284
_cell_length_c   21.98317622
_cell_angle_alpha   89.97161090
_cell_angle_beta   90.00591661
_cell_angle_gamma   120.00844022
_symmetry_Int_Tables_number   1
_chemical_formula_structural   H2O
_chemical_formula_sum   'H384 O192'
_cell_volume   6152.35717365
_cell_formula_units_Z   192
loop_
 _symmetry_equiv_pos_site_id
 _symmetry_equiv_pos_as_xyz
  1  'x, y, z'
loop_
 _atom_type_symbol
 _atom_type_oxidation_number
  H+  1.0
  O2-  -2.0
loop_
 _atom_site_type_symbol
 _atom_site_label
 _atom_site_symmetry_multiplicity
 _atom_site_fract_x
 _atom_site_fract_y
 _atom_site_fract_z
 _atom_site_occupancy
  H+  H0  1  0.36160615  0.12759211  0.00390903  1
  H+  H1  1  0.24311164  0.62015083  0.50704719  1
  H+  H2  1  0.38830728  0.35803639  0.16713062  1
  H+  H3  1  0.34836879  0.71251381  0.82780049  1
  H+  H4  1  0.16760728  0.35717301  0.59227018  1
  H+  H5  1  0.51260357  0.88243411  0.85262750  1
  H+  H6  1  0.11341058  0.63935778  0.82443143  1
  H+  H7  1  0.89572008  0.03017144  0.18664710  1
  H+  H8  1  0.38813462  0.86308335  0.50761278  1
  H+  H9  1  0.74053239  0.11285848  0.50018915  1
  H+  H10  1  0.75388041  0.65084671  0.32828349  1
  H+  H11  1  0.40550105  0.51416202  1.00790445  1
  H+  H12  1  0.86742775  0.13524642  0.17215993  1
  H+  H13  1  0.23059830  0.61477563  0.16615041  1
  H+  H14  1  0.17441501  0.59877371  0.60926199  1
  H+  H15  1  0.72034658  0.36585338  0.83346230  1
  H+  H16  1  0.89757477  0.11532203  0.33530749  1
  H+  H17  1  0.86583760  0.71262888  0.00065164  1
  H+  H18  1  0.25952723  0.89534331  0.66760099  1
  H+  H19  1  0.09646066  0.23293414  0.49546928  1
  H+  H20  1  0.16716648  0.83752647  0.93104856  1
  H+  H21  1  0.93157573  0.58430706  0.21973047  1
  H+  H22  1  0.87440495  0.35688180  0.51209723  1
  H+  H23  1  0.73590317  0.13253395  0.64791769  1
  H+  H24  1  0.77593510  0.62425328  0.00358838  1
  H+  H25  1  0.42672556  0.58032910  0.95148200  1
  H+  H26  1  0.87270945  0.63848480  0.15612524  1
  H+  H27  1  0.38424983  0.02594290  0.50894874  1
  H+  H28  1  0.51491366  0.13946953  0.50250871  1
  H+  H29  1  0.65495666  0.61737135  0.17040917  1
  H+  H30  1  0.04347246  0.14482769  0.01028655  1
  H+  H31  1  0.00884228  0.38967400  0.49190069  1
  H+  H32  1  0.38197292  0.60787055  0.85556300  1
  H+  H33  1  0.11854797  0.64615680  0.34521501  1
  H+  H34  1  0.36276750  0.73414148  0.48993907  1
  H+  H35  1  0.02152014  0.89806832  0.67457032  1
  H+  H36  1  0.88027120  1.00207797  0.01740763  1
  H+  H37  1  0.62887539  0.51867359  0.84604660  1
  H+  H38  1  0.88116929  0.28405029  0.83329125  1
  H+  H39  1  0.11351731  0.72531624  0.99529177  1
  H+  H40  1  0.38469734  0.11717395  0.50635972  1
  H+  H41  1  0.85990610  0.39231572  0.67020133  1
  H+  H42  1  0.73531688  0.60676850  0.17427661  1
  H+  H43  1  0.87606772  0.64779728  0.35850905  1
  H+  H44  1  0.33388752  0.65075745  0.77051041  1
  H+  H45  1  0.39026814  0.76480550  0.67557774  1
  H+  H46  1  0.94013971  0.83620236  0.23510994  1
  H+  H47  1  0.34251724  0.41050359  0.06930533  1
  H+  H48  1  0.51846911  0.38775212  0.49119081  1
  H+  H49  1  0.88943210  0.62187609  0.51016567  1
  H+  H50  1  0.36238915  0.47254395  0.16174725  1
  H+  H51  1  0.39218031  0.27707568  0.50243454  1
  H+  H52  1  0.39000231  0.10236529  0.17456737  1
  H+  H53  1  0.70671085  0.61713430  0.65969610  1
  H+  H54  1  0.96736832  0.87797686  0.51998292  1
  H+  H55  1  0.13483725  0.86043007  0.99257033  1
  H+  H56  1  0.26777050  0.63321286  0.67910002  1
  H+  H57  1  0.88466065  0.74355435  0.82042973  1
  H+  H58  1  0.16891938  0.37265558  0.00514782  1
  H+  H59  1  0.36408776  0.62030440  0.15072932  1
  H+  H60  1  0.18807506  0.32931124  0.27567626  1
  H+  H61  1  0.88881173  0.60111508  0.98931791  1
  H+  H62  1  0.63810152  0.85903856  0.17623655  1
  H+  H63  1  0.13648687  0.85228844  0.50091649  1
  H+  H64  1  0.90920045  0.05674601  0.62015886  1
  H+  H65  1  0.66473464  0.88099956  0.85100256  1
  H+  H66  1  0.34231834  0.16938937  0.43178810  1
  H+  H67  1  0.37775385  0.34428167  0.66346080  1
  H+  H68  1  0.72054097  0.35844021  0.98801374  1
  H+  H69  1  0.36638531  0.22240898  0.66915182  1
  H+  H70  1  0.38990214  0.26429191  0.99463912  1
  H+  H71  1  0.11559804  0.40356495  0.66787202  1
  H+  H72  1  0.72730439  0.10282206  0.18715760  1
  H+  H73  1  0.11419806  -0.01446968  0.66911354  1
  H+  H74  1  0.15963700  0.49044689  0.02251451  1
  H+  H75  1  0.59693076  0.37762278  0.33491366  1
  H+  H76  1  0.14112012  0.11035601  0.00114241  1
  H+  H77  1  0.36287405  -0.02251924  0.16621391  1
  H+  H78  1  0.76035705  0.38533617  0.50252039  1
  H+  H79  1  0.03025555  0.13867303  0.16942104  1
  H+  H80  1  0.61053984  0.97270168  0.16816043  1
  H+  H81  1  0.47302031  0.85340663  -0.00562572  1
  H+  H82  1  0.76442836  0.87936463  0.50057675  1
  H+  H83  1  0.81273914  0.14821943  0.08708330  1
  H+  H84  1  0.37851887  0.71311875  0.13299728  1
  H+  H85  1  0.36208352  0.38643908  0.83409718  1
  H+  H86  1  0.88253674  0.01942786  0.52423830  1
  H+  H87  1  0.73063358  0.86934997  0.18606923  1
  H+  H88  1  0.84589099  0.36864226  1.00017086  1
  H+  H89  1  0.36226507  0.98944074  0.66581559  1
  H+  H90  1  0.14007210  0.61746330  0.98578373  1
  H+  H91  1  0.63459875  0.61394116  0.49509109  1
  H+  H92  1  0.67769058  0.79539192  0.66198563  1
  H+  H93  1  0.22213120  0.18127944  0.87203187  1
  H+  H94  1  0.46839881  0.35842869  0.32162686  1
  H+  H95  1  0.85743378  0.64625006  0.67144413  1
  H+  H96  1  0.14104335  0.29576609  0.65057875  1
  H+  H97  1  0.64509765  0.11109313  0.18209214  1
  H+  H98  1  0.48018078  0.11515390  0.32973509  1
  H+  H99  1  0.60874888  0.47780430  0.48609285  1
  H+  H100  1  0.33616689  0.15721842  0.10203447  1
  H+  H101  1  0.89716092  0.87098267  0.83079331  1
  H+  H102  1  0.35248456  0.64131635  0.33150108  1
  H+  H103  1  0.85245840  0.47118508  0.50119631  1
  H+  H104  1  0.84423218  0.67824936  0.75738534  1
  H+  H105  1  0.11376504  0.62575162  0.51018233  1
  H+  H106  1  0.38403222  1.01627800  -0.00809967  1
  H+  H107  1  0.88085123  0.53112385  0.66103703  1
  H+  H108  1  0.37802800  0.86461763  0.17775253  1
  H+  H109  1  0.26499511  0.64437792  0.33625591  1
  H+  H110  1  0.10655665  0.14312187  0.82923218  1
  H+  H111  1  0.02667508  0.62991300  0.50589618  1
  H+  H112  1  0.12882444  0.37720573  0.49917128  1
  H+  H113  1  0.91529228  0.57624662  0.41827918  1
  H+  H114  1  0.36620878  0.77613183  0.20266080  1
  H+  H115  1  0.24509655  0.35806963  0.99264454  1
  H+  H116  1  0.46407143  0.60477056  0.17835665  1
  H+  H117  1  0.38648702  0.52152376  0.85475731  1
  H+  H118  1  0.35513902  0.89316961  0.34916559  1
  H+  H119  1  0.78325074  0.89034267  0.82856043  1
  H+  H120  1  0.97038391  0.11096841  0.52417333  1
  H+  H121  1  0.89717480  0.77857015  0.17425549  1
  H+  H122  1  0.04901853  0.88934698  0.43444685  1
  H+  H123  1  0.28175377  0.13407824  0.82128691  1
  H+  H124  1  0.08051428  0.91169133  0.06893411  1
  H+  H125  1  0.51942574  0.38482219  0.82773199  1
  H+  H126  1  0.23103744  0.10729441  0.65324557  1
  H+  H127  1  0.86344802  0.22332990  0.16810446  1
  H+  H128  1  0.01866849  0.14336873  0.82428812  1
  H+  H129  1  0.37607918  0.38099000  0.00994515  1
  H+  H130  1  0.22365454  0.60688592  0.83538120  1
  H+  H131  1  0.86976642  0.13471509  0.51037682  1
  H+  H132  1  0.92741974  0.78563121  0.32436728  1
  H+  H133  1  0.58224543  0.91382002  0.40515486  1
  H+  H134  1  0.22536042  0.10870440  0.33198009  1
  H+  H135  1  0.62188706  0.62159172  0.00204138  1
  H+  H136  1  0.63561780  0.02181161  0.34213253  1
  H+  H137  1  0.13539232  0.86980897  0.16118042  1
  H+  H138  1  0.62734952  0.75612895  0.49948729  1
  H+  H139  1  0.40327548  0.84465939  0.63867320  1
  H+  H140  1  0.36107780  0.22603622  0.33623436  1
  H+  H141  1  0.35769639  0.72189871  0.99959553  1
  H+  H142  1  0.61112980  0.22541675  0.82405653  1
  H+  H143  1  0.79408348  0.94944454  0.66688086  1
  H+  H144  1  0.12994311  0.78058084  0.35354189  1
  H+  H145  1  0.36220011  0.97706099  0.82000286  1
  H+  H146  1  0.89581358  0.52163391  0.16290896  1
  H+  H147  1  0.77538507  0.64501018  0.49670353  1
  H+  H148  1  0.65719724  0.75340910  0.14950292  1
  H+  H149  1  0.03595146  0.38795682  -0.02360916  1
  H+  H150  1  0.13851248  0.77511778  0.15465489  1
  H+  H151  1  0.61012559  0.83042515  0.66100173  1
  H+  H152  1  0.62950614  0.36096325  0.83630643  1
  H+  H153  1  0.65210142  0.99856830  0.82321490  1
  H+  H154  1  0.12203112  -0.01261885  0.82152645  1
  H+  H155  1  0.60513674  0.73527723  0.32164546  1
  H+  H156  1  0.26636361  0.37714665  0.67680484  1
  H+  H157  1  0.91417372  0.33581779  0.57031251  1
  H+  H158  1  0.93976487  0.16019228  0.98779834  1
  H+  H159  1  0.27369716  0.12914136  0.00748079  1
  H+  H160  1  0.87472599  0.89219364  0.17458307  1
  H+  H161  1  0.02473978  0.39044231  0.82241407  1
  H+  H162  1  0.60931565  0.86955929  0.49715921  1
  H+  H163  1  0.47296863  0.85586822  0.50888377  1
  H+  H164  1  -0.03011610  0.62086060  0.66292637  1
  H+  H165  1  0.69835961  0.09863123  1.00457298  1
  H+  H166  1  0.60531889  0.22526254  0.00022758  1
  H+  H167  1  0.52462195  0.38386758  0.16040790  1
  H+  H168  1  0.11224705  0.12620531  0.34860949  1
  H+  H169  1  0.50525447  0.83974080  0.84159855  1
  H+  H170  1  0.11848131  0.97650164  0.16071008  1
  H+  H171  1  0.60059584  0.97234617  0.01294604  1
  H+  H172  1  -0.02103728  0.61755646  0.83327550  1
  H+  H173  1  0.83855638  0.93379233  0.76746107  1
  H+  H174  1  0.61410783  0.14615546  0.66600392  1
  H+  H175  1  0.38857031  0.02915000  0.33192235  1
  H+  H176  1  0.51413978  0.62529839  0.46611258  1
  H+  H177  1  0.63421967  0.27060701  0.32786990  1
  H+  H178  1  0.87388952  0.91109214  0.01275271  1
  H+  H179  1  0.89331001  0.28007792  0.66356631  1
  H+  H180  1  0.10869888  0.73487897  0.67383760  1
  H+  H181  1  0.61019414  0.38712805  0.67512496  1
  H+  H182  1  0.70207736  0.21879934  0.11750237  1
  H+  H183  1  0.22470043  0.39680511  0.50038864  1
  H+  H184  1  0.14462221  0.36348335  0.18289283  1
  H+  H185  1  0.27543843  0.38227424  0.16150335  1
  H+  H186  1  0.40052423  0.58384309  0.24220283  1
  H+  H187  1  0.51935177  -0.10399544  0.34971465  1
  H+  H188  1  0.82795507  0.79567570  0.96365482  1
  H+  H189  1  0.25369752  0.62894645  0.99138231  1
  H+  H190  1  0.13551030  0.77725182  0.83588251  1
  H+  H191  1  0.87428475  0.35175431  0.32937450  1
  H+  H192  1  0.27451191  0.38970616  0.83530287  1
  H+  H193  1  0.71818964  0.98853989  0.78326289  1
  H+  H194  1  0.36559117  0.13242314  0.66957259  1
  H+  H195  1  0.88037107  0.11597625  0.85272699  1
  H+  H196  1  0.14426007  0.27412427  0.18027447  1
  H+  H197  1  0.24492761  0.35825044  0.33517215  1
  H+  H198  1  0.09685874  0.47972398  0.48842934  1
  H+  H199  1  0.52152969  0.88406235  0.16676546  1
  H+  H200  1  0.61720220  0.96209835  0.49977087  1
  H+  H201  1  0.14111723  0.10705772  0.17591762  1
  H+  H202  1  0.86268067  0.46554462  -0.00159650  1
  H+  H203  1  0.42914027  0.47030317  0.37233297  1
  H+  H204  1  0.40280773  0.61125500  0.65567523  1
  H+  H205  1  0.77829497  0.13238824  0.35053207  1
  H+  H206  1  0.13302121  0.23267401  1.01207049  1
  H+  H207  1  0.86285710  0.73517752  0.50451562  1
  H+  H208  1  0.76364368  0.14228856  0.85584389  1
  H+  H209  1  0.37417972  0.61118493  0.48511814  1
  H+  H210  1  0.06633522  0.16559343  0.44164929  1
  H+  H211  1  0.64745468  0.24611963  0.15644004  1
  H+  H212  1  0.85978300  0.46697481  0.35701383  1
  H+  H213  1  0.13194837  0.52153439  0.83696231  1
  H+  H214  1  0.38938364  0.10846915  0.83539797  1
  H+  H215  1  0.22911830  0.10458251  0.17392871  1
  H+  H216  1  0.12124665  0.21880169  0.34778458  1
  H+  H217  1  0.13478538  0.53517347  0.66594642  1
  H+  H218  1  0.83980546  0.23085402  -0.00105628  1
  H+  H219  1  0.15383428  1.01345309  0.49128447  1
  H+  H220  1  0.27602563  0.88897780  0.50108744  1
  H+  H221  1  0.62649403  0.28140815  0.51115641  1
  H+  H222  1  0.63176865  0.27590327  0.66042462  1
  H+  H223  1  0.61472015  0.47369914  0.16254481  1
  H+  H224  1  0.45814406  0.63102623  0.31087912  1
  H+  H225  1  0.27120753  0.88273584  0.00740142  1
  H+  H226  1  0.64087297  0.51453584  0.99829638  1
  H+  H227  1  0.13398883  0.27835269  0.84309472  1
  H+  H228  1  0.64031673  0.36563956  0.17467997  1
  H+  H229  1  0.82013137  0.10090831  0.02749740  1
  H+  H230  1  0.98827318  0.11598373  0.33534097  1
  H+  H231  1  0.38846603  0.27012249  0.83745374  1
  H+  H232  1  0.55363521  0.68338811  0.65891201  1
  H+  H233  1  0.23442390  0.87083673  0.16212787  1
  H+  H234  1  0.52306285  0.13433844  0.82474029  1
  H+  H235  1  0.77751012  0.39258490  0.15977883  1
  H+  H236  1  0.85655692  0.73614945  0.67548905  1
  H+  H237  1  0.36629537  0.21859906  0.15978937  1
  H+  H238  1  0.27934841  0.13458597  0.48929454  1
  H+  H239  1  -0.02153046  0.37267253  0.66359775  1
  H+  H240  1  0.37862054  0.78009960  0.33395351  1
  H+  H241  1  0.13283594  0.01658374  0.99577460  1
  H+  H242  1  0.92768716  0.09283028  0.24376584  1
  H+  H243  1  0.35183090  0.84765353  0.84103916  1
  H+  H244  1  1.02757212  0.88550780  0.16212247  1
  H+  H245  1  0.67517391  0.10261823  0.58998447  1
  H+  H246  1  0.60940569  0.59753277  0.65074308  1
  H+  H247  1  0.88437951  0.53136713  0.82914027  1
  H+  H248  1  0.20434009  0.25107684  0.70058400  1
  H+  H249  1  0.72154847  0.73268903  0.11421465  1
  H+  H250  1  0.57970980  0.16493016  0.72862203  1
  H+  H251  1  0.72125690  0.36000397  0.32989369  1
  H+  H252  1  0.11000862  0.64639479  0.67400722  1
  H+  H253  1  0.47624573  0.10728630  0.65834255  1
  H+  H254  1  0.85806935  0.39993442  0.81594104  1
  H+  H255  1  0.62919127  0.11331106  0.84123516  1
  H+  H256  1  0.87539464  0.87081977  0.51503966  1
  H+  H257  1  0.03383219  0.64315343  0.14874190  1
  H+  H258  1  0.88747473  0.36004689  0.17246412  1
  H+  H259  1  0.11358458  0.38907302  0.82931461  1
  H+  H260  1  0.98384332  0.61276343  0.36649084  1
  H+  H261  1  0.66861081  0.57236465  0.93634028  1
  H+  H262  1  1.02613034  0.63236259  0.99553810  1
  H+  H263  1  0.61251207  0.38162655  0.00689955  1
  H+  H264  1  0.68260427  0.85898463  -0.05501539  1
  H+  H265  1  0.11610099  0.47815445  0.17106026  1
  H+  H266  1  0.52570761  0.87303976  0.68139758  1
  H+  H267  1  0.26825719  0.89888880  0.35327178  1
  H+  H268  1  0.61635541  0.13699065  0.35026122  1
  H+  H269  1  0.38282487  0.51113364  0.33217487  1
  H+  H270  1  0.61316624  0.10449638  0.99694706  1
  H+  H271  1  0.64177321  0.78312372  0.86567690  1
  H+  H272  1  0.13959484  0.76677483  0.51489032  1
  H+  H273  1  0.14600432  0.62240463  0.16419519  1
  H+  H274  1  0.86530349  0.12653895  0.67976460  1
  H+  H275  1  0.60724878  0.14767483  0.50906622  1
  H+  H276  1  0.35888085  0.88028329  1.01027246  1
  H+  H277  1  0.47330749  0.35796530  0.66200951  1
  H+  H278  1  0.51505392  0.61421754  0.00639605  1
  H+  H279  1  0.84037783  0.20266806  0.89937937  1
  H+  H280  1  0.01918479  0.87994324  0.01087600  1
  H+  H281  1  0.13267820  0.87308052  0.66000246  1
  H+  H282  1  0.88362905  0.26764255  0.32937728  1
  H+  H283  1  0.01567271  0.39752250  0.33177737  1
  H+  H284  1  1.01965460  0.39608232  1.00621127  1
  H+  H285  1  0.07242795  0.42959150  0.39110181  1
  H+  H286  1  0.12677109  0.53263935  0.32395446  1
  H+  H287  1  0.16840662  0.33553394  0.90423807  1
  H+  H288  1  0.33402300  0.91747017  0.10407628  1
  H+  H289  1  0.16275726  0.83961734  0.60123358  1
  H+  H290  1  0.58017547  0.68013453  0.80213899  1
  H+  H291  1  0.34262897  0.48015128  0.42694810  1
  H+  H292  1  0.62851203  0.37181925  0.50641271  1
  H+  H293  1  0.74536463  0.89789264  0.00777649  1
  H+  H294  1  0.28739609  0.77187058  0.88147032  1
  H+  H295  1  0.13734784  0.86793047  0.83517508  1
  H+  H296  1  0.41570501  0.32469383  0.89985195  1
  H+  H297  1  0.47979297  0.35426756  0.99445945  1
  H+  H298  1  0.33353858  0.92404445  0.44102084  1
  H+  H299  1  0.87493353  0.98693057  0.35039902  1
  H+  H300  1  0.31480270  0.38767617  0.74062426  1
  H+  H301  1  0.58745114  0.17432208  0.06299294  1
  H+  H302  1  0.09074840  0.16780016  0.10995813  1
  H+  H303  1  0.84359282  0.16521523  0.40663113  1
  H+  H304  1  0.92790152  0.30999983  0.97862879  1
  H+  H305  1  0.57848653  0.91314017  0.07412320  1
  H+  H306  1  0.42019195  0.33409239  0.56169441  1
  H+  H307  1  0.82541497  0.42833050  0.75825768  1
  H+  H308  1  0.81916406  0.39838575  0.40792399  1
  H+  H309  1  0.16338892  0.07345100  0.27558322  1
  H+  H310  1  0.86908132  0.22447985  0.50404924  1
  H+  H311  1  0.61012781  0.67450950  0.05789031  1
  H+  H312  1  0.26800478  0.89214492  0.81803492  1
  H+  H313  1  0.41562523  0.32774037  0.22680589  1
  H+  H314  1  0.91732164  0.57685387  0.92731373  1
  H+  H315  1  0.11402537  0.18979646  0.73025566  1
  H+  H316  1  0.91014540  0.35160587  0.88391618  1
  H+  H317  1  0.32635121  0.67560806  0.42755277  1
  H+  H318  1  0.15187616  0.12096958  0.65392757  1
  H+  H319  1  0.65926066  0.33841712  0.60216027  1
  H+  H320  1  0.84664547  0.69078036  0.40685114  1
  H+  H321  1  0.32563693  0.92273893  0.72941966  1
  H+  H322  1  0.60632269  0.47413234  0.67223404  1
  H+  H323  1  0.64685056  0.80335496  0.56404284  1
  H+  H324  1  0.51552224  0.64155237  0.85723092  1
  H+  H325  1  0.16954721  0.58443650  0.92550892  1
  H+  H326  1  0.56721934  0.40753832  0.39328705  1
  H+  H327  1  0.78101761  0.52154571  0.26938376  1
  H+  H328  1  0.88147705  0.64578471  0.82096327  1
  H+  H329  1  0.47109248  0.10742412  0.99196670  1
  H+  H330  1  0.08927581  0.92969872  0.76124416  1
  H+  H331  1  0.38073984  0.36132837  0.31670389  1
  H+  H332  1  0.64206337  0.88777556  0.00838749  1
  H+  H333  1  0.88605717  0.02899132  0.84337117  1
  H+  H334  1  0.83145846  0.16414742  0.73047840  1
  H+  H335  1  0.58272324  0.17030465  0.40593724  1
  H+  H336  1  0.66102070  0.33068946  0.92817896  1
  H+  H337  1  0.72119858  0.84328712  0.35287035  1
  H+  H338  1  0.90903271  0.84526803  0.60916222  1
  H+  H339  1  0.65973149  0.58532994  0.55738024  1
  H+  H340  1  0.36843202  0.14070905  0.33722593  1
  H+  H341  1  0.81798207  0.56681267  0.26938447  1
  H+  H342  1  0.92714562  0.09584939  0.93398109  1
  H+  H343  1  0.65642349  0.08427646  0.46273751  1
  H+  H344  1  0.41504739  0.08020919  0.59741187  1
  H+  H345  1  0.19983589  0.53406276  0.54406043  1
  H+  H346  1  0.91111156  0.83600606  0.92471609  1
  H+  H347  1  0.16392442  0.59646523  0.26602187  1
  H+  H348  1  0.62792085  0.60608621  0.85731873  1
  H+  H349  1  0.88808611  0.88445664  0.66652687  1
  H+  H350  1  0.64634454  0.07593191  0.90420608  1
  H+  H351  1  0.08333605  0.67199019  0.76586164  1
  H+  H352  1  0.13623109  0.43595140  0.08358756  1
  H+  H353  1  0.83229246  0.92224758  0.44536453  1
  H+  H354  1  0.41503456  0.07495414  0.89555157  1
  H+  H355  1  0.91441269  0.58735038  0.56842627  1
  H+  H356  1  0.83213556  0.41373056  0.09758431  1
  H+  H357  1  0.76890022  0.39007560  0.66783240  1
  H+  H358  1  0.33902093  0.16336194  0.76057993  1
  H+  H359  1  0.41504784  0.84979027  0.28063052  1
  H+  H360  1  0.50614005  0.60678069  0.70680939  1
  H+  H361  1  0.98848050  0.87499174  0.83406793  1
  H+  H362  1  0.02902539  0.38723003  0.16673856  1
  H+  H363  1  0.16893171  0.06625152  0.55288990  1
  H+  H364  1  0.66544639  0.69457432  0.33415144  1
  H+  H365  1  0.02598410  0.84561396  0.30230560  1
  H+  H366  1  0.09106201  0.67136098  0.08805721  1
  H+  H367  1  0.32492261  0.64784104  0.05382006  1
  H+  H368  1  0.41844079  0.07295135  0.23404756  1
  H+  H369  1  0.83927573  0.66432414  0.09796440  1
  H+  H370  1  0.12996143  0.89142945  0.40847691  1
  H+  H371  1  0.40513049  0.82564308  0.93759813  1
  H+  H372  1  0.08798458  0.42733493  0.73112194  1
  H+  H373  1  0.17312843  0.09644087  0.90883014  1
  H+  H374  1  0.57970536  0.41787081  0.76853949  1
  H+  H375  1  0.68867776  0.61444307  0.27156863  1
  H+  H376  1  0.59293878  0.67922568  0.41926348  1
  H+  H377  1  0.91135216  0.32858071  0.23391554  1
  H+  H378  1  0.66912661  0.08293208  0.28386448  1
  H+  H379  1  0.60545651  0.91235988  0.72697791  1
  H+  H380  1  0.67107844  0.33558013  0.23448099  1
  H+  H381  1  0.84652519  0.92775428  0.11792641  1
  H+  H382  1  0.58462993  0.41154679  0.06823705  1
  H+  H383  1  0.09847663  0.66794971  0.41279626  1
  O2-  O384  1  0.09123413  0.16680754  0.15506475  1
  O2-  O385  1  0.05515972  0.17305492  0.48497223  1
  O2-  O386  1  0.07966333  0.17427398  0.81089468  1
  O2-  O387  1  0.09130573  0.41785215  0.15670212  1
  O2-  O388  1  0.06756278  0.42040759  0.47298319  1
  O2-  O389  1  0.08641968  0.42093097  0.81097326  1
  O2-  O390  1  0.09433177  0.67700154  0.13354033  1
  O2-  O391  1  0.08845045  0.65870396  0.49330111  1
  O2-  O392  1  0.08349001  0.67115466  0.81171446  1
  O2-  O393  1  0.08776430  0.91496626  0.14397117  1
  O2-  O394  1  0.10696303  0.90421386  0.44642665  1
  O2-  O395  1  0.09015213  0.92768779  0.80765657  1
  O2-  O396  1  0.33577984  0.15677064  0.14734917  1
  O2-  O397  1  0.34204011  0.16829574  0.47748916  1
  O2-  O398  1  0.34159991  0.16337915  0.80670105  1
  O2-  O399  1  0.33578099  0.41278508  0.14491459  1
  O2-  O400  1  0.32366207  0.48936730  0.46786422  1
  O2-  O401  1  0.33505659  0.42049133  0.82024164  1
  O2-  O402  1  0.33710123  0.65223645  0.12736547  1
  O2-  O403  1  0.32920832  0.67298867  0.47312005  1
  O2-  O404  1  0.32941134  0.65240696  0.81583241  1
  O2-  O405  1  0.32871130  0.91395594  0.14935847  1
  O2-  O406  1  0.33643452  0.92283825  0.48676481  1
  O2-  O407  1  0.32792972  0.91775009  0.80141995  1
  O2-  O408  1  0.64378644  0.19574681  0.13299272  1
  O2-  O409  1  0.57718537  0.17388482  0.48908016  1
  O2-  O410  1  0.58375709  0.16435666  0.80967683  1
  O2-  O411  1  0.58604442  0.41388055  0.14599016  1
  O2-  O412  1  0.57948524  0.41646198  0.47372466  1
  O2-  O413  1  0.58067179  0.41611764  0.81414997  1
  O2-  O414  1  0.66054798  0.70673344  0.12373253  1
  O2-  O415  1  0.57738828  0.65924178  0.46232381  1
  O2-  O416  1  0.57888752  0.67760997  0.84642993  1
  O2-  O417  1  0.58005130  0.91384904  0.14913762  1
  O2-  O418  1  0.58086714  0.90293632  0.48461347  1
  O2-  O419  1  0.66223514  0.95434785  0.80249227  1
  O2-  O420  1  0.83195047  0.16066156  0.15617308  1
  O2-  O421  1  0.84163111  0.16371164  0.48936113  1
  O2-  O422  1  0.82880485  0.17598666  0.85855218  1
  O2-  O423  1  0.83739720  0.41905903  0.14271586  1
  O2-  O424  1  0.82147524  0.41037084  0.48778377  1
  O2-  O425  1  0.82684955  0.43038087  0.80422722  1
  O2-  O426  1  0.84016543  0.66712965  0.14322010  1
  O2-  O427  1  0.83845859  0.67668776  0.48680405  1
  O2-  O428  1  0.85484313  0.68192138  0.80460113  1
  O2-  O429  1  0.84362556  0.92358516  0.16257742  1
  O2-  O430  1  0.82707896  0.91581548  0.49102172  1
  O2-  O431  1  0.84225627  0.92517372  0.81176338  1
  O2-  O432  1  0.16774320  0.07183037  0.18731035  1
  O2-  O433  1  0.17842134  0.07136673  0.50854944  1
  O2-  O434  1  0.18413247  0.11969252  0.86553182  1
  O2-  O435  1  0.17807149  0.33500799  0.19418033  1
  O2-  O436  1  0.16698343  0.35713203  0.51676433  1
  O2-  O437  1  0.16599926  0.33855579  0.85873206  1
  O2-  O438  1  0.17267422  0.59166610  0.18407723  1
  O2-  O439  1  0.18811159  0.57939269  0.53132529  1
  O2-  O440  1  0.16372559  0.58309018  0.85146011  1
  O2-  O441  1  0.16839446  0.83678329  0.17043795  1
  O2-  O442  1  0.16555439  0.82854022  0.52647403  1
  O2-  O443  1  0.16783891  0.83824394  0.85075363  1
  O2-  O444  1  0.41514645  0.06705493  0.18875026  1
  O2-  O445  1  0.41461961  0.08662716  0.52483137  1
  O2-  O446  1  0.41732657  0.07542792  0.84990011  1
  O2-  O447  1  0.41924852  0.32775068  0.18116313  1
  O2-  O448  1  0.42343659  0.33769483  0.51678558  1
  O2-  O449  1  0.41364743  0.32921104  0.85445658  1
  O2-  O450  1  0.40305074  0.57716259  0.18814210  1
  O2-  O451  1  0.39706378  0.57032276  0.48993672  1
  O2-  O452  1  0.41335363  0.58031716  0.87369611  1
  O2-  O453  1  0.40966680  0.83573543  0.19490152  1
  O2-  O454  1  0.41172311  0.82657263  0.52201493  1
  O2-  O455  1  0.34713771  0.80047459  0.86809234  1
  O2-  O456  1  0.66572044  0.07392638  0.19976254  1
  O2-  O457  1  0.67510809  0.08262327  0.50414724  1
  O2-  O458  1  0.65947990  0.08385370  0.85973556  1
  O2-  O459  1  0.67537630  0.33950462  0.18868018  1
  O2-  O460  1  0.65857630  0.34219382  0.52545072  1
  O2-  O461  1  0.66112329  0.33083981  0.85018242  1
  O2-  O462  1  0.67491688  0.58037094  0.18918788  1
  O2-  O463  1  0.66772619  0.58796370  0.51255912  1
  O2-  O464  1  0.66000518  0.57617606  0.86609198  1
  O2-  O465  1  0.66806681  0.82824003  0.18953927  1
  O2-  O466  1  0.65807491  0.81384825  0.51968049  1
  O2-  O467  1  0.68300018  0.84528790  0.87513646  1
  O2-  O468  1  0.92511069  0.09241965  0.19769136  1
  O2-  O469  1  0.91253115  0.07602551  0.54535299  1
  O2-  O470  1  0.91605867  0.08850666  0.86027872  1
  O2-  O471  1  0.91549403  0.32821337  0.18815612  1
  O2-  O472  1  0.91024928  0.33135892  0.52490488  1
  O2-  O473  1  0.91372052  0.34746052  0.83973985  1
  O2-  O474  1  0.93007002  0.58433794  0.17535730  1
  O2-  O475  1  0.91676254  0.58728479  0.52282872  1
  O2-  O476  1  0.91722189  0.59158527  0.84651533  1
  O2-  O477  1  0.92923029  0.83877009  0.18881726  1
  O2-  O478  1  0.90798487  0.84216825  0.53312142  1
  O2-  O479  1  0.92652929  0.84033165  0.84717772  1
  O2-  O480  1  0.16385180  0.07848707  0.32019286  1
  O2-  O481  1  0.16999096  0.07977842  0.63928657  1
  O2-  O482  1  0.16634978  0.07734579  0.98153699  1
  O2-  O483  1  0.18711339  0.31967921  0.32013954  1
  O2-  O484  1  0.16600363  0.35661504  0.63815798  1
  O2-  O485  1  0.18273640  0.33215630  0.98220210  1
  O2-  O486  1  0.16173513  0.59593541  0.31111264  1
  O2-  O487  1  0.16740671  0.59810495  0.65420862  1
  O2-  O488  1  0.17449421  0.59008557  0.97161310  1
  O2-  O489  1  0.15655736  0.84510782  0.35169718  1
  O2-  O490  1  0.16516714  0.84360181  0.64714143  1
  O2-  O491  1  0.16641269  0.83211648  0.97633373  1
  O2-  O492  1  0.42105367  0.08696565  0.31236272  1
  O2-  O493  1  0.41444848  0.07540185  0.64376444  1
  O2-  O494  1  0.41213287  0.07527421  0.97405888  1
  O2-  O495  1  0.40770029  0.32819250  0.30325680  1
  O2-  O496  1  0.41413222  0.32268124  0.64510351  1
  O2-  O497  1  0.41955625  0.32454232  0.97836538  1
  O2-  O498  1  0.39944966  0.59083414  0.29882154  1
  O2-  O499  1  0.33976523  0.58695884  0.65662640  1
  O2-  O500  1  0.43819583  0.57778519  0.99577404  1
  O2-  O501  1  0.40891856  0.84373394  0.32520807  1
  O2-  O502  1  0.41855810  0.82872480  0.67652250  1
  O2-  O503  1  0.41131024  0.82336865  0.98258381  1
  O2-  O504  1  0.67033038  0.08504723  0.32895974  1
  O2-  O505  1  0.67815835  0.11686191  0.63320981  1
  O2-  O506  1  0.64131227  0.06999839  0.98429427  1
  O2-  O507  1  0.66315504  0.33014820  0.31079547  1
  O2-  O508  1  0.66343095  0.33766495  0.64781462  1
  O2-  O509  1  0.65973100  0.32772787  0.97387433  1
  O2-  O510  1  0.69451277  0.63294253  0.31440907  1
  O2-  O511  1  0.65112887  0.57879662  0.63983400  1
  O2-  O512  1  0.67378829  0.57562614  0.98301215  1
  O2-  O513  1  0.75387361  0.90746489  0.35031082  1
  O2-  O514  1  0.62466168  0.78517237  0.64272582  1
  O2-  O515  1  0.68396961  0.86578118  0.99183572  1
  O2-  O516  1  0.92683723  0.08481242  0.31896884  1
  O2-  O517  1  0.90476225  0.05598239  0.66679519  1
  O2-  O518  1  0.93177755  0.10315468  0.98002748  1
  O2-  O519  1  0.90625194  0.32563472  0.31035409  1
  O2-  O520  1  0.91729138  0.34004938  0.64923064  1
  O2-  O521  1  0.86617754  0.27927640  0.96867047  1
  O2-  O522  1  0.91979240  0.57874561  0.37394541  1
  O2-  O523  1  0.90951733  0.59267801  0.64742379  1
  O2-  O524  1  0.91947203  0.57197477  0.97240351  1
  O2-  O525  1  0.96636707  0.83816777  0.30113934  1
  O2-  O526  1  0.91040798  0.84607145  0.65497797  1
  O2-  O527  1  0.89042759  0.82674155  0.96813265  1
  O2-  O528  1  0.10166809  0.17147821  0.02776318  1
  O2-  O529  1  0.08307372  0.15876762  0.36279545  1
  O2-  O530  1  0.14486023  0.20482431  0.69086761  1
  O2-  O531  1  0.17208818  0.45181932  0.04609284  1
  O2-  O532  1  0.07473841  0.43714620  0.34647291  1
  O2-  O533  1  0.08435010  0.43195186  0.68613178  1
  O2-  O534  1  0.08713159  0.66444590  0.01017244  1
  O2-  O535  1  0.09002674  0.67368430  0.36868416  1
  O2-  O536  1  0.07725957  0.67455150  0.68909549  1
  O2-  O537  1  0.07967545  0.91017203  0.02276638  1
  O2-  O538  1  0.12437177  0.86136273  0.29630757  1
  O2-  O539  1  0.08276736  0.92532328  0.68760310  1
  O2-  O540  1  0.33466465  0.16007977  0.02115130  1
  O2-  O541  1  0.33636934  0.16776461  0.35478365  1
  O2-  O542  1  0.33454081  0.16135295  0.68534583  1
  O2-  O543  1  0.34833902  0.41466665  0.02350336  1
  O2-  O544  1  0.37260727  0.45778850  0.35832481  1
  O2-  O545  1  0.30057802  0.35785508  0.70062143  1
  O2-  O546  1  0.32162079  0.65789648  0.00843935  1
  O2-  O547  1  0.32632062  0.67433803  0.35036636  1
  O2-  O548  1  0.32892314  0.65109421  0.69166917  1
  O2-  O549  1  0.33084317  0.91288148  0.02419324  1
  O2-  O550  1  0.33017003  0.92836684  0.36487862  1
  O2-  O551  1  0.32253526  0.92589299  0.68289625  1
  O2-  O552  1  0.57472045  0.16591208  0.01854651  1
  O2-  O553  1  0.58476301  0.16820034  0.36087329  1
  O2-  O554  1  0.57607604  0.16722450  0.68343418  1
  O2-  O555  1  0.58314761  0.41259714  0.02251212  1
  O2-  O556  1  0.56173382  0.40287687  0.34819978  1
  O2-  O557  1  0.57808748  0.41568052  0.69060380  1
  O2-  O558  1  0.59160014  0.65470165  0.01475340  1
  O2-  O559  1  0.64315709  0.73328743  0.35230699  1
  O2-  O560  1  0.51795452  0.61909493  0.66362172  1
  O2-  O561  1  0.58080984  0.91190514  0.02784719  1
  O2-  O562  1  0.58085086  0.92430727  0.36090262  1
  O2-  O563  1  0.58925013  0.89561141  0.68433774  1
  O2-  O564  1  0.79943326  0.13921328  0.04090666  1
  O2-  O565  1  0.84073926  0.16502763  0.36147900  1
  O2-  O566  1  0.84197268  0.16603693  0.68688030  1
  O2-  O567  1  0.82613298  0.40695581  0.01652160  1
  O2-  O568  1  0.82390192  0.40373523  0.36265033  1
  O2-  O569  1  0.82988358  0.42400646  0.68272507  1
  O2-  O570  1  0.83813367  0.65404444  0.01748994  1
  O2-  O571  1  0.85321012  0.68774288  0.36206340  1
  O2-  O572  1  0.82778639  0.67545554  0.69058623  1
  O2-  O573  1  0.84554662  0.94114085  0.03054029  1
  O2-  O574  1  0.84022908  0.92795303  0.36962490  1
  O2-  O575  1  0.85033526  0.96403702  0.68411434  1
