# generated using pymatgen
data_H2O
_symmetry_space_group_name_H-M   'P 1'
_cell_length_a   17.96692066
_cell_length_b   17.96362692
_cell_length_c   21.98330341
_cell_angle_alpha   90.04292015
_cell_angle_beta   89.96575200
_cell_angle_gamma   119.97187135
_symmetry_Int_Tables_number   1
_chemical_formula_structural   H2O
_chemical_formula_sum   'H384 O192'
_cell_volume   6146.30565482
_cell_formula_units_Z   192
loop_
 _symmetry_equiv_pos_site_id
 _symmetry_equiv_pos_as_xyz
  1  'x, y, z'
loop_
 _atom_type_symbol
 _atom_type_oxidation_number
  H+  1.0
  O2-  -2.0
loop_
 _atom_site_type_symbol
 _atom_site_label
 _atom_site_symmetry_multiplicity
 _atom_site_fract_x
 _atom_site_fract_y
 _atom_site_fract_z
 _atom_site_occupancy
  H+  H0  1  0.64389384  0.01959437  0.33850920  1
  H+  H1  1  0.78501513  0.13738296  0.39832848  1
  H+  H2  1  0.61623568  0.88260599  0.49082002  1
  H+  H3  1  0.60874121  -0.02866615  0.15910018  1
  H+  H4  1  0.32445318  0.07991825  0.85335407  1
  H+  H5  1  0.13367002  0.26332445  0.32608102  1
  H+  H6  1  0.82218991  0.77433305  0.34754810  1
  H+  H7  1  0.26674635  0.38276317  0.32492338  1
  H+  H8  1  0.12659948  0.50770177  0.66235657  1
  H+  H9  1  0.63738098  0.26656282  0.32952921  1
  H+  H10  1  0.76764648  0.37577003  0.16734549  1
  H+  H11  1  0.62379064  0.13528288  0.34674242  1
  H+  H12  1  0.35379097  0.12513618  1.01103622  1
  H+  H13  1  0.28961966  0.30808529  0.46055618  1
  H+  H14  1  0.77319565  0.89350739  0.49721251  1
  H+  H15  1  0.35809028  0.87339697  -0.07086796  1
  H+  H16  1  0.35105642  0.95147382  0.44113890  1
  H+  H17  1  0.99488300  0.11574866  0.33054899  1
  H+  H18  1  0.10618394  0.72556438  1.01332343  1
  H+  H19  1  0.88315735  0.35765861  0.18436663  1
  H+  H20  1  0.25673883  0.64678354  0.17782384  1
  H+  H21  1  0.91689140  0.66974383  0.63787334  1
  H+  H22  1  0.91632013  0.85090024  0.26489946  1
  H+  H23  1  0.09442610  0.61422457  0.67202479  1
  H+  H24  1  0.19831305  0.69152613  0.86237510  1
  H+  H25  1  0.06023836  0.39267756  0.41501133  1
  H+  H26  1  0.91546559  0.08177965  0.92880173  1
  H+  H27  1  0.25105040  0.63054750  0.32964433  1
  H+  H28  1  0.63676232  0.85704895  0.66422992  1
  H+  H29  1  0.55753724  0.92056235  0.00182548  1
  H+  H30  1  0.31814873  0.41078079  0.09560495  1
  H+  H31  1  0.48254317  0.58426309  0.21418181  1
  H+  H32  1  0.63539062  0.36917581  1.02707673  1
  H+  H33  1  0.16982350  0.53488125  0.33000186  1
  H+  H34  1  0.88791911  0.02385675  0.83621873  1
  H+  H35  1  0.47224930  0.86173463  0.17811611  1
  H+  H36  1  0.88474730  0.57840641  0.57323477  1
  H+  H37  1  0.24153182  0.87554769  0.51733213  1
  H+  H38  1  0.42279953  0.34679020  0.22399330  1
  H+  H39  1  0.76478824  0.36708443  0.48068666  1
  H+  H40  1  0.47416409  0.85342581  0.66662591  1
  H+  H41  1  0.13769783  0.11947507  0.17622366  1
  H+  H42  1  0.99699950  0.65516822  0.63311299  1
  H+  H43  1  0.32105147  0.20572585  0.42814628  1
  H+  H44  1  0.77004098  0.12847308  0.82958308  1
  H+  H45  1  0.63260029  0.73183132  0.68316963  1
  H+  H46  1  0.88850841  0.87273797  0.50139420  1
  H+  H47  1  0.62525736  0.26871574  0.16991549  1
  H+  H48  1  0.59511956  0.87864608  0.33377830  1
  H+  H49  1  0.40769979  0.89228122  0.51424223  1
  H+  H50  1  0.47209412  0.87584847  0.32954152  1
  H+  H51  1  0.83508128  0.61925034  0.50914725  1
  H+  H52  1  0.26582215  -0.02154692  0.87050488  1
  H+  H53  1  0.86937259  0.76528734  -0.01673347  1
  H+  H54  1  0.78459526  0.65801616  0.15816995  1
  H+  H55  1  0.95690932  0.61047946  0.17659382  1
  H+  H56  1  0.60110198  0.22411913  0.01083020  1
  H+  H57  1  0.36075982  0.71558948  0.02241951  1
  H+  H58  1  0.35305066  0.73117852  0.17608137  1
  H+  H59  1  0.36849717  0.74373941  0.33874089  1
  H+  H60  1  0.88478799  0.50755892  0.67475910  1
  H+  H61  1  0.76293586  0.35336040  0.67023328  1
  H+  H62  1  1.13506128  0.63835210  0.34568580  1
  H+  H63  1  0.87033768  0.72480767  0.81966318  1
  H+  H64  1  0.89099821  0.11593809  0.98957010  1
  H+  H65  1  0.78091941  0.64180399  0.66680273  1
  H+  H66  1  0.39411310  0.60875424  0.99198254  1
  H+  H67  1  -0.00738020  0.29328820  0.40587294  1
  H+  H68  1  0.28041514  0.14586574  0.33586047  1
  H+  H69  1  0.57727767  0.91088770  0.39766966  1
  H+  H70  1  0.37408110  0.39300220  0.83091761  1
  H+  H71  1  0.84156251  0.67284757  0.72615516  1
  H+  H72  1  0.13048697  0.99350887  0.01783489  1
  H+  H73  1  0.52960963  0.88859037  0.49306848  1
  H+  H74  1  0.64053693  0.77746780  0.50600050  1
  H+  H75  1  0.52791559  0.60202486  0.20275137  1
  H+  H76  1  0.10650312  0.47322769  1.01135395  1
  H+  H77  1  0.10654020  0.38308697  0.01205339  1
  H+  H78  1  0.66485066  0.40532584  0.64934473  1
  H+  H79  1  0.60962790  0.38935215  0.33691451  1
  H+  H80  1  0.39586146  0.52258594  0.83892657  1
  H+  H81  1  0.13924471  0.36850396  0.83869152  1
  H+  H82  1  0.66387851  0.55487908  0.94460362  1
  H+  H83  1  0.36778882  0.36824038  0.67803730  1
  H+  H84  1  0.14539669  1.03795611  0.51576675  1
  H+  H85  1  0.64423910  0.76622722  0.84534474  1
  H+  H86  1  0.13483690  0.12232735  0.51434429  1
  H+  H87  1  0.60168606  0.86541338  0.83644556  1
  H+  H88  1  0.11738245  0.34071108  0.33376275  1
  H+  H89  1  0.71418064  0.57182606  0.23365440  1
  H+  H90  1  0.33245914  0.58422447  0.21002902  1
  H+  H91  1  0.64803655  0.51049539  0.84133543  1
  H+  H92  1  0.61717693  0.47803394  0.04369387  1
  H+  H93  1  0.66896996  0.83467050  0.56768812  1
  H+  H94  1  0.82339607  0.16925688  0.76965773  1
  H+  H95  1  0.10991096  0.88349039  0.67499636  1
  H+  H96  1  0.78857055  0.49785641  0.57648729  1
  H+  H97  1  0.53412294  0.63337445  0.00402168  1
  H+  H98  1  0.57359920  0.12959874  0.74067942  1
  H+  H99  1  0.49679206  0.10806229  0.64699456  1
  H+  H100  1  1.02235813  0.14193353  0.49290291  1
  H+  H101  1  0.45335174  0.73524939  0.78115442  1
  H+  H102  1  0.27524068  0.88929285  0.16863249  1
  H+  H103  1  0.54045354  0.63065920  0.83413392  1
  H+  H104  1  0.89556259  0.04278308  0.65259000  1
  H+  H105  1  0.60289413  0.36057964  0.82036357  1
  H+  H106  1  0.47829332  0.12274627  0.32593382  1
  H+  H107  1  0.05563384  0.63948083  0.50115360  1
  H+  H108  1  0.51000682  0.07326700  0.79222129  1
  H+  H109  1  0.85274854  0.75904406  0.15378501  1
  H+  H110  1  0.27382318  0.88210637  0.68433840  1
  H+  H111  1  0.51355285  0.13936768  0.16333540  1
  H+  H112  1  0.61571783  0.38803491  0.14347216  1
  H+  H113  1  0.62779177  0.10560086  0.16669070  1
  H+  H114  1  0.63897953  0.52954175  0.31936311  1
  H+  H115  1  0.35383303  0.37711418  0.00076630  1
  H+  H116  1  0.35340213  0.71222164  0.66478069  1
  H+  H117  1  0.64988517  0.30981318  0.42358448  1
  H+  H118  1  0.16190236  0.85514169  0.90901524  1
  H+  H119  1  0.36762847  0.23718729  0.33124222  1
  H+  H120  1  0.23539917  0.87133741  0.33556295  1
  H+  H121  1  0.22804644  0.12069732  0.17308100  1
  H+  H122  1  0.27504820  0.12856308  0.67616642  1
  H+  H123  1  0.20990972  0.59959381  0.01841367  1
  H+  H124  1  0.35949282  0.21668247  0.00289809  1
  H+  H125  1  0.14045475  0.13251810  0.82314039  1
  H+  H126  1  0.52616890  0.38350191  0.83006210  1
  H+  H127  1  0.88543517  0.11190947  0.83631618  1
  H+  H128  1  0.37082482  0.51155369  0.35443557  1
  H+  H129  1  0.43465115  0.41172182  0.54816012  1
  H+  H130  1  0.85718849  0.46440269  0.17152102  1
  H+  H131  1  0.01695443  0.63573108  0.01262034  1
  H+  H132  1  0.53130067  0.39836893  0.49583326  1
  H+  H133  1  0.71936202  0.61997889  0.50257105  1
  H+  H134  1  0.10809191  0.90663783  0.83192338  1
  H+  H135  1  0.62926738  0.84614288  -0.00323215  1
  H+  H136  1  0.37507310  0.00171218  0.82534332  1
  H+  H137  1  0.50509843  0.62473950  0.35334319  1
  H+  H138  1  0.78425450  0.22997004  0.69767917  1
  H+  H139  1  0.64230196  0.52311793  0.65887128  1
  H+  H140  1  0.60743985  0.64150652  0.49163869  1
  H+  H141  1  0.12853284  0.77586125  0.18037887  1
  H+  H142  1  0.89054588  0.78457597  0.50579074  1
  H+  H143  1  0.22668959  0.84818670  0.98266615  1
  H+  H144  1  0.64121333  1.01881533  0.49919923  1
  H+  H145  1  0.10563767  0.38896012  0.16687070  1
  H+  H146  1  0.13118919  0.37984321  0.50998078  1
  H+  H147  1  0.88342736  0.26908073  0.84412102  1
  H+  H148  1  0.64709106  0.74205472  0.14528825  1
  H+  H149  1  -0.01589981  0.87684313  0.17748382  1
  H+  H150  1  0.06188168  0.66687643  0.81585444  1
  H+  H151  1  0.77303889  0.88856343  0.82694103  1
  H+  H152  1  0.13631837  0.04150242  0.82611589  1
  H+  H153  1  0.12046562  0.14125345  0.67186331  1
  H+  H154  1  0.86885163  0.47634658  0.34202530  1
  H+  H155  1  0.63796657  0.86295339  0.17249823  1
  H+  H156  1  0.37265650  0.09517940  0.64804150  1
  H+  H157  1  0.11860020  0.88922733  0.33293867  1
  H+  H158  1  0.13712896  0.56808216  0.49088066  1
  H+  H159  1  0.13496943  0.76541919  0.66869116  1
  H+  H160  1  0.88995557  0.52410546  1.00050001  1
  H+  H161  1  0.59322732  0.63052366  0.32958229  1
  H+  H162  1  0.14043752  0.02483187  0.66116958  1
  H+  H163  1  0.89466925  0.36887300  0.50645691  1
  H+  H164  1  0.64375330  0.76584930  -0.00915628  1
  H+  H165  1  0.47993139  0.43688192  0.87784786  1
  H+  H166  1  0.88665748  0.69557328  0.33608258  1
  H+  H167  1  0.51668838  0.23913479  0.56494470  1
  H+  H168  1  0.02638419  0.38455860  0.82811984  1
  H+  H169  1  0.47565499  0.37133075  0.31925392  1
  H+  H170  1  0.99288487  0.38802320  0.50907652  1
  H+  H171  1  0.91487847  0.61680974  0.33041572  1
  H+  H172  1  0.83778218  0.45934687  0.50193653  1
  H+  H173  1  0.10740673  0.23439531  0.49557737  1
  H+  H174  1  0.12605406  0.13662333  0.34458091  1
  H+  H175  1  0.66102030  0.04639564  0.99861162  1
  H+  H176  1  0.65049730  0.60038699  0.84668048  1
  H+  H177  1  0.07296216  0.41660276  0.10799561  1
  H+  H178  1  0.32833496  0.49736687  0.19637861  1
  H+  H179  1  0.87245266  0.85570580  0.98585782  1
  H+  H180  1  0.97629652  0.36310990  0.18203311  1
  H+  H181  1  0.60051491  -0.04696077  0.83598553  1
  H+  H182  1  0.77037544  0.62811913  1.00820535  1
  H+  H183  1  1.02335882  0.88915373  0.66978732  1
  H+  H184  1  0.70940135  0.63095907  0.32508067  1
  H+  H185  1  0.36645684  0.99524150  0.34463607  1
  H+  H186  1  0.87287692  0.23331764  0.00654016  1
  H+  H187  1  0.91739911  0.71628872  0.36244648  1
  H+  H188  1  0.73208784  0.87157323  0.65944052  1
  H+  H189  1  0.36864248  0.90697169  0.34707142  1
  H+  H190  1  0.63493771  0.59837354  -0.00427985  1
  H+  H191  1  0.16364984  0.82204362  0.84269077  1
  H+  H192  1  0.40305945  0.93103360  0.81893021  1
  H+  H193  1  0.03668610  0.89985273  0.50784205  1
  H+  H194  1  0.86021322  0.88567458  0.82343905  1
  H+  H195  1  0.98547334  0.12807063  0.65060380  1
  H+  H196  1  0.39208748  0.13000488  0.32894641  1
  H+  H197  1  0.96654609  0.34821901  0.33991030  1
  H+  H198  1  0.15264586  0.77647454  0.33540694  1
  H+  H199  1  0.11522680  0.89345850  0.17279337  1
  H+  H200  1  0.02272348  0.14587128  0.82177286  1
  H+  H201  1  0.93253044  0.33082852  0.59509573  1
  H+  H202  1  0.06623379  0.66854526  0.10769270  1
  H+  H203  1  0.51287481  0.25130403  0.59695947  1
  H+  H204  1  0.36197862  0.97915690  0.16781917  1
  H+  H205  1  0.21421402  0.36371951  0.17204899  1
  H+  H206  1  0.45644000  0.08998417  0.99023669  1
  H+  H207  1  0.79017521  0.62954711  0.82272836  1
  H+  H208  1  0.46396917  0.35529767  0.99867910  1
  H+  H209  1  0.28111828  0.38786944  0.82731950  1
  H+  H210  1  0.10620902  0.66772957  0.43857680  1
  H+  H211  1  1.03244688  0.89471326  0.33131469  1
  H+  H212  1  0.24104141  0.35936373  0.47860532  1
  H+  H213  1  0.91547261  0.53159896  0.79398899  1
  H+  H214  1  0.29079860  0.55065611  0.06359891  1
  H+  H215  1  0.38899544  0.46861922  0.61169575  1
  H+  H216  1  0.11151413  0.23750860  0.82265782  1
  H+  H217  1  0.77617457  0.38009074  0.82146017  1
  H+  H218  1  0.09037956  0.63667169  0.16840096  1
  H+  H219  1  0.90815533  0.16898208  0.46704586  1
  H+  H220  1  1.02452639  0.13766375  0.16151504  1
  H+  H221  1  0.35961870  0.46878624  0.99888431  1
  H+  H222  1  0.31156537  0.63427418  0.10217995  1
  H+  H223  1  0.69475335  0.52201148  0.17029220  1
  H+  H224  1  0.39570681  0.25741633  0.66630021  1
  H+  H225  1  0.60813618  0.11544854  0.49732373  1
  H+  H226  1  0.37724408  0.60533361  0.35573769  1
  H+  H227  1  -0.03212017  0.86420834  0.83521086  1
  H+  H228  1  0.89667187  0.88295425  0.17555758  1
  H+  H229  1  0.91599252  0.91115470  0.31708749  1
  H+  H230  1  0.37097648  1.00502553  0.64927222  1
  H+  H231  1  0.86774167  0.90060947  0.67105576  1
  H+  H232  1  0.37655560  0.05141287  0.94288506  1
  H+  H233  1  0.85004641  0.20895808  0.67076635  1
  H+  H234  1  0.63360740  0.64413960  0.68173131  1
  H+  H235  1  0.23833516  0.36266830  0.65725325  1
  H+  H236  1  0.16180535  0.78033527  0.51328634  1
  H+  H237  1  1.03292917  0.37674833  0.67207020  1
  H+  H238  1  0.26802974  0.14475433  0.81965889  1
  H+  H239  1  0.04428185  0.63378791  0.34421223  1
  H+  H240  1  0.35250131  0.38743843  0.15499091  1
  H+  H241  1  0.77115870  0.88695790  0.01061296  1
  H+  H242  1  0.61781778  0.22819039  0.81567239  1
  H+  H243  1  0.21801753  0.35596667  0.99467568  1
  H+  H244  1  -0.02351114  0.36431649  -0.00183670  1
  H+  H245  1  0.88805996  0.03451241  0.50224740  1
  H+  H246  1  0.60636551  -0.04162573  0.68168158  1
  H+  H247  1  0.12277065  0.52638750  0.17996412  1
  H+  H248  1  0.02567800  0.62022618  0.71845969  1
  H+  H249  1  0.90375533  0.25420404  0.47184897  1
  H+  H250  1  0.69950510  0.86168157  0.32804816  1
  H+  H251  1  0.53215804  0.38083014  0.67482675  1
  H+  H252  1  0.74523505  0.13391493  0.99263600  1
  H+  H253  1  0.89386040  0.34220892  0.65701844  1
  H+  H254  1  0.12921371  0.61243577  1.00658452  1
  H+  H255  1  0.36640855  0.22062261  0.83015741  1
  H+  H256  1  0.49259384  0.82621426  0.01992273  1
  H+  H257  1  0.39575130  0.31949375  0.51273471  1
  H+  H258  1  0.11779025  0.98478797  0.17140374  1
  H+  H259  1  0.38325068  0.36608413  0.31718029  1
  H+  H260  1  0.36346680  0.23378197  0.15407889  1
  H+  H261  1  0.71728458  0.10730785  0.16410409  1
  H+  H262  1  0.47979556  0.37942924  0.16333095  1
  H+  H263  1  0.91655121  0.13110603  0.33397693  1
  H+  H264  1  0.85739542  0.22162722  0.16182303  1
  H+  H265  1  0.88436897  0.36979805  0.33042397  1
  H+  H266  1  0.76601018  0.99488109  0.37242146  1
  H+  H267  1  0.70919443  0.09761858  0.66151402  1
  H+  H268  1  0.38220420  0.12083243  0.17184420  1
  H+  H269  1  0.59340153  0.41520505  0.73279750  1
  H+  H270  1  0.85841104  0.13405874  0.15923128  1
  H+  H271  1  0.72472376  0.35847100  0.32898792  1
  H+  H272  1  0.26507728  0.62590051  0.67090623  1
  H+  H273  1  0.61579638  0.08102633  0.64814746  1
  H+  H274  1  0.15694721  0.87516726  1.00335906  1
  H+  H275  1  0.90546431  0.48544400  0.65914897  1
  H+  H276  1  0.77342373  0.38508426  1.01971260  1
  H+  H277  1  0.41259399  0.09457096  0.23336089  1
  H+  H278  1  0.36712560  0.74835601  0.49182365  1
  H+  H279  1  0.61762573  0.76470868  0.32519860  1
  H+  H280  1  0.84147985  0.99401008  0.33931742  1
  H+  H281  1  0.26247535  0.17533539  0.48882528  1
  H+  H282  1  0.65359481  0.33095301  0.22797519  1
  H+  H283  1  0.61315696  0.14269102  0.00794090  1
  H+  H284  1  0.46982394  0.62816000  0.49449306  1
  H+  H285  1  0.88699893  0.78343677  0.65783779  1
  H+  H286  1  0.44781244  0.84658134  0.85111645  1
  H+  H287  1  0.39652001  0.57160227  0.45056799  1
  H+  H288  1  0.78250553  0.72490087  0.40921173  1
  H+  H289  1  0.16893110  0.83369549  0.24000312  1
  H+  H290  1  0.11453269  0.93923973  0.07813877  1
  H+  H291  1  0.90084280  0.82473196  0.89123567  1
  H+  H292  1  0.57044084  0.16450052  0.10243665  1
  H+  H293  1  0.15568340  0.33375622  0.23271223  1
  H+  H294  1  0.08623532  0.41280814  0.76973318  1
  H+  H295  1  0.91768999  0.84459480  0.59914043  1
  H+  H296  1  0.08738608  0.17583920  0.72705276  1
  H+  H297  1  0.49299842  0.00595891  0.24679178  1
  H+  H298  1  0.35441179  0.93750138  0.73160850  1
  H+  H299  1  0.33876244  0.15519733  0.73365882  1
  H+  H300  1  0.83635181  0.41598006  0.40177757  1
  H+  H301  1  0.13139946  0.26602835  0.99307601  1
  H+  H302  1  0.30920997  0.38870393  0.38932389  1
  H+  H303  1  0.09300658  0.16826582  0.40381290  1
  H+  H304  1  0.61278962  0.38811943  0.47920598  1
  H+  H305  1  0.88477311  0.02717840  0.17339793  1
  H+  H306  1  0.07752907  0.92343112  0.76740114  1
  H+  H307  1  0.33683376  0.68996690  0.40166591  1
  H+  H308  1  0.14365155  0.55508321  0.59901555  1
  H+  H309  1  0.85814504  0.66315710  0.44498928  1
  H+  H310  1  0.41167424  0.84604569  0.27055077  1
  H+  H311  1  0.85533692  0.58136911  0.19229391  1
  H+  H312  1  0.82897020  0.68288273  0.06275244  1
  H+  H313  1  0.16490506  0.33350567  0.89749410  1
  H+  H314  1  0.53026395  0.07369245  0.90617862  1
  H+  H315  1  0.22545487  0.65815721  0.91954269  1
  H+  H316  1  0.92094501  0.09895370  0.55960079  1
  H+  H317  1  0.14667545  0.27679602  0.65591379  1
  H+  H318  1  0.81058193  0.36242849  0.73412924  1
  H+  H319  1  0.17370707  0.82807096  0.61180608  1
  H+  H320  1  0.58068615  0.15274086  0.40287927  1
  H+  H321  1  0.88713458  0.61093104  0.99867282  1
  H+  H322  1  0.63174387  0.09032611  0.82900927  1
  H+  H323  1  0.88553892  0.36128958  0.99937463  1
  H+  H324  1  0.70491291  0.70323675  0.12517907  1
  H+  H325  1  0.51229950  0.10543823  0.49176941  1
  H+  H326  1  0.12627064  0.38604540  0.67417098  1
  H+  H327  1  0.17475686  0.09312671  0.26807888  1
  H+  H328  1  0.62134357  0.24834283  0.47941609  1
  H+  H329  1  0.16461617  0.34305586  0.56506977  1
  H+  H330  1  0.34580571  0.78421753  0.86235649  1
  H+  H331  1  0.86425228  0.38009665  0.82664062  1
  H+  H332  1  0.67080561  0.82990883  0.90253775  1
  H+  H333  1  0.58077964  0.42431049  0.39359808  1
  H+  H334  1  0.67575861  0.35676577  0.59284164  1
  H+  H335  1  0.66706105  0.58265649  0.59909511  1
  H+  H336  1  0.37040047  0.80346667  0.99612794  1
  H+  H337  1  0.63487363  0.52841643  0.50073837  1
  H+  H338  1  0.65923316  0.36251337  0.95972241  1
  H+  H339  1  0.36459023  0.66871385  0.75325494  1
  H+  H340  1  0.83541277  0.40993831  0.07659081  1
  H+  H341  1  0.86061395  0.97549745  0.00764230  1
  H+  H342  1  0.77680638  0.89208426  0.16337363  1
  H+  H343  1  0.42743883  0.84812922  0.57074223  1
  H+  H344  1  0.01412941  0.11849619  -0.00472962  1
  H+  H345  1  0.57618948  0.89897931  0.74252461  1
  H+  H346  1  0.36696568  0.93942238  -0.01917215  1
  H+  H347  1  0.40538149  0.51681310  0.54707893  1
  H+  H348  1  0.12404086  0.89825361  0.51449913  1
  H+  H349  1  0.17438788  0.09104078  0.60442056  1
  H+  H350  1  0.57272590  0.90061073  0.10524464  1
  H+  H351  1  0.13889053  0.70627056  0.77206979  1
  H+  H352  1  0.64665010  0.27237930  0.87887676  1
  H+  H353  1  0.91479635  0.33118565  0.90250118  1
  H+  H354  1  0.35747647  0.65569678  0.48736557  1
  H+  H355  1  0.41271526  0.61935286  0.83308987  1
  H+  H356  1  0.43058875  0.32622043  0.61074580  1
  H+  H357  1  0.42509011  0.34357911  0.92970055  1
  H+  H358  1  0.38527197  0.86897432  0.17792240  1
  H+  H359  1  0.92526466  0.57568702  0.26982503  1
  H+  H360  1  0.54211399  0.11992166  0.90442432  1
  H+  H361  1  0.11028604  0.22720373  0.16336238  1
  H+  H362  1  0.14742050  1.02829926  0.32481508  1
  H+  H363  1  0.33127683  0.16882105  0.09696806  1
  H+  H364  1  0.58503004  0.67454574  0.43061080  1
  H+  H365  1  0.83574389  0.92202091  0.10310824  1
  H+  H366  1  0.58873862  0.19341743  0.64431918  1
  H+  H367  1  0.91817006  0.08968561  0.23140687  1
  H+  H368  1  0.66489877  0.08124277  0.89562931  1
  H+  H369  1  0.82070617  0.93211673  0.43505441  1
  H+  H370  1  0.60873272  0.67252835  0.05768532  1
  H+  H371  1  0.53489150  0.03724831  0.26103440  1
  H+  H372  1  0.60521214  0.66597568  0.77711773  1
  H+  H373  1  0.15806465  0.58563417  0.23935250  1
  H+  H374  1  0.83680708  0.92869672  0.73028865  1
  H+  H375  1  0.34183349  0.41299971  0.72967853  1
  H+  H376  1  0.83917717  0.16915270  0.06447641  1
  H+  H377  1  0.91883343  0.33676347  0.26533228  1
  H+  H378  1  0.38848221  0.86007666  0.66420127  1
  H+  H379  1  0.91512918  0.61929455  0.79163747  1
  H+  H380  1  0.66377726  0.06685561  0.56239748  1
  H+  H381  1  0.42383136  0.58260319  0.93041354  1
  H+  H382  1  0.38686904  0.04148904  0.54928019  1
  H+  H383  1  0.66290952  0.82740781  0.23052084  1
  O2-  O384  1  0.08625346  0.16630745  0.15100973  1
  O2-  O385  1  0.08478318  0.17422592  0.48043212  1
  O2-  O386  1  0.08134202  0.17859797  0.80372293  1
  O2-  O387  1  0.07250074  0.41824605  0.15348543  1
  O2-  O388  1  0.09214502  0.44244331  0.48534598  1
  O2-  O389  1  0.08704039  0.41373865  0.81499436  1
  O2-  O390  1  0.05998312  0.66685170  0.15343374  1
  O2-  O391  1  0.11335955  0.66859254  0.48399560  1
  O2-  O392  1  0.12444843  0.70858909  0.81474887  1
  O2-  O393  1  0.08539741  0.92370563  0.15651170  1
  O2-  O394  1  0.09943300  0.93391087  0.50164424  1
  O2-  O395  1  0.07363016  0.92974964  0.81213607  1
  O2-  O396  1  0.33212935  0.17189421  0.14342005  1
  O2-  O397  1  0.31039547  0.22576004  0.46767928  1
  O2-  O398  1  0.33230490  0.16353243  0.81227197  1
  O2-  O399  1  0.31499344  0.41010308  0.14085337  1
  O2-  O400  1  0.29199566  0.36457125  0.45672176  1
  O2-  O401  1  0.34105880  0.41900316  0.81139788  1
  O2-  O402  1  0.31794176  0.66783858  0.16672272  1
  O2-  O403  1  0.33209795  0.69087995  0.47320647  1
  O2-  O404  1  0.39741257  0.68779982  0.79272462  1
  O2-  O405  1  0.33626111  0.91793569  0.15572105  1
  O2-  O406  1  0.35246522  0.95022258  0.48748924  1
  O2-  O407  1  0.40707804  0.98220290  0.79759463  1
  O2-  O408  1  0.57471502  0.16941670  0.14760677  1
  O2-  O409  1  0.57333367  0.14241224  0.48037446  1
  O2-  O410  1  0.57008471  0.12205375  0.78557005  1
  O2-  O411  1  0.59879256  0.43132738  0.12963033  1
  O2-  O412  1  0.58772657  0.42542041  0.47235757  1
  O2-  O413  1  0.58500638  0.40238836  0.80915986  1
  O2-  O414  1  0.64485726  0.69212621  0.12392924  1
  O2-  O415  1  0.58401583  0.67775239  0.47596027  1
  O2-  O416  1  0.60282588  0.66149692  0.82324038  1
  O2-  O417  1  0.57777013  0.90727502  0.15008088  1
  O2-  O418  1  0.58668546  0.91209306  0.47246338  1
  O2-  O419  1  0.56687418  0.89217613  0.82261594  1
  O2-  O420  1  0.82904305  0.16472664  0.14191579  1
  O2-  O421  1  0.90295657  0.21226375  0.44147280  1
  O2-  O422  1  0.83019803  0.16420476  0.81433626  1
  O2-  O423  1  0.83003259  0.40380511  0.15649647  1
  O2-  O424  1  0.82792244  0.40770350  0.47789770  1
  O2-  O425  1  0.83469328  0.40758453  0.80472216  1
  O2-  O426  1  0.80585690  0.70926461  0.13115345  1
  O2-  O427  1  0.83417634  0.66584398  0.48423705  1
  O2-  O428  1  0.84660415  0.66492155  0.80266975  1
  O2-  O429  1  0.83800755  0.92541119  0.14883878  1
  O2-  O430  1  0.83218611  0.92512234  0.47829609  1
  O2-  O431  1  0.83285210  0.92036565  0.81055097  1
  O2-  O432  1  0.16956502  0.08992867  0.19189759  1
  O2-  O433  1  0.17281748  0.10011206  0.52880064  1
  O2-  O434  1  0.17441056  0.10407369  0.83336317  1
  O2-  O435  1  0.15359782  0.33600598  0.18737133  1
  O2-  O436  1  0.15284165  0.33907620  0.52036119  1
  O2-  O437  1  0.17008014  0.33671805  0.85258843  1
  O2-  O438  1  0.14782832  0.58678366  0.19484142  1
  O2-  O439  1  0.14463750  0.52701894  0.51633789  1
  O2-  O440  1  0.24803784  0.69310231  0.88253352  1
  O2-  O441  1  0.16455863  0.83611355  0.19477993  1
  O2-  O442  1  0.18302275  0.83706548  0.53319045  1
  O2-  O443  1  0.17193054  0.87362046  0.86481605  1
  O2-  O444  1  0.41335494  0.09150358  0.18803921  1
  O2-  O445  1  0.39536556  0.04203855  0.50390110  1
  O2-  O446  1  0.32460642  0.02951394  0.87290648  1
  O2-  O447  1  0.42028815  0.34681536  0.17829333  1
  O2-  O448  1  0.44512374  0.36184635  0.53712116  1
  O2-  O449  1  0.44778704  0.37616808  0.86633766  1
  O2-  O450  1  0.32744716  0.53299775  0.23002427  1
  O2-  O451  1  0.40623227  0.59092595  0.49392983  1
  O2-  O452  1  0.43075957  0.58218864  0.85610577  1
  O2-  O453  1  0.41231605  0.83473254  0.19431932  1
  O2-  O454  1  0.43153068  0.85507253  0.52519778  1
  O2-  O455  1  0.39332831  0.84545859  0.85960572  1
  O2-  O456  1  0.65648637  0.07242272  0.17685839  1
  O2-  O457  1  0.66434910  0.07676773  0.51797889  1
  O2-  O458  1  0.66403608  0.06737900  0.85186917  1
  O2-  O459  1  0.65777616  0.33163922  0.18315831  1
  O2-  O460  1  0.65362906  0.31144596  0.46808851  1
  O2-  O461  1  0.64832608  0.28581611  0.83584936  1
  O2-  O462  1  0.74195953  0.56373044  0.19638000  1
  O2-  O463  1  0.65995079  0.58768561  0.51817190  1
  O2-  O464  1  0.67965924  0.56830188  0.86073680  1
  O2-  O465  1  0.67261019  0.83598509  0.18570858  1
  O2-  O466  1  0.67149853  0.83793949  0.52198994  1
  O2-  O467  1  0.66779917  0.82823257  0.85697515  1
  O2-  O468  1  0.91335409  0.08908731  0.18655491  1
  O2-  O469  1  0.92082224  0.09652542  0.51337798  1
  O2-  O470  1  0.91801518  0.08441193  0.85214637  1
  O2-  O471  1  0.91655202  0.33066388  0.20093296  1
  O2-  O472  1  0.93062925  0.34376529  0.51884591  1
  O2-  O473  1  0.91289337  0.33056339  0.85708212  1
  O2-  O474  1  0.90216948  0.56830817  0.19844199  1
  O2-  O475  1  0.83370655  0.53568589  0.54727900  1
  O2-  O476  1  0.95219763  0.59335362  0.78484083  1
  O2-  O477  1  0.92244307  0.84873106  0.19212891  1
  O2-  O478  1  0.91935746  0.84478251  0.51966524  1
  O2-  O479  1  0.90555624  0.82641089  0.84492241  1
  O2-  O480  1  0.17751121  0.09148694  0.31378178  1
  O2-  O481  1  0.17408813  0.08708956  0.65020053  1
  O2-  O482  1  0.10836129  0.10133719  0.97384336  1
  O2-  O483  1  0.15269382  0.32276138  0.31050266  1
  O2-  O484  1  0.17781706  0.33837762  0.64218462  1
  O2-  O485  1  0.15618362  0.32718380  0.98212298  1
  O2-  O486  1  0.18736481  0.59242833  0.31532014  1
  O2-  O487  1  0.14636226  0.56603111  0.64324725  1
  O2-  O488  1  0.15993675  0.58235558  0.99131230  1
  O2-  O489  1  0.17672022  0.83509303  0.31804277  1
  O2-  O490  1  0.16824400  0.82690918  0.65719481  1
  O2-  O491  1  0.16488470  0.83095668  0.98067693  1
  O2-  O492  1  0.41787848  0.09540321  0.31223427  1
  O2-  O493  1  0.39705551  0.06213023  0.62725657  1
  O2-  O494  1  0.39408267  0.05075631  0.98588162  1
  O2-  O495  1  0.41716236  0.33927808  0.30099623  1
  O2-  O496  1  0.42805797  0.32018057  0.65611697  1
  O2-  O497  1  0.40972604  0.32736958  0.97647174  1
  O2-  O498  1  0.40397058  0.57206957  0.37062567  1
  O2-  O499  1  0.42502057  0.48643086  0.57491234  1
  O2-  O500  1  0.42331252  0.57892474  0.97661405  1
  O2-  O501  1  0.41045843  0.84802529  0.31631619  1
  O2-  O502  1  0.41700926  0.82981648  0.64619079  1
  O2-  O503  1  0.39939469  0.76883273  1.00080133  1
  O2-  O504  1  0.69015191  0.08295176  0.33867410  1
  O2-  O505  1  0.65262531  0.05453533  0.64355213  1
  O2-  O506  1  0.68241305  0.10203879  0.97906228  1
  O2-  O507  1  0.66259633  0.32882876  0.31870066  1
  O2-  O508  1  0.70885749  0.39938128  0.62383691  1
  O2-  O509  1  0.66082504  0.34201641  1.00046322  1
  O2-  O510  1  0.66584098  0.58588061  0.29783243  1
  O2-  O511  1  0.67632915  0.58348581  0.64374296  1
  O2-  O512  1  0.66005192  0.55958338  0.98958329  1
  O2-  O513  1  0.64343780  0.82432236  0.30796172  1
  O2-  O514  1  0.67156687  0.83409522  0.64495744  1
  O2-  O515  1  0.66964905  0.82858303  0.98005198  1
  O2-  O516  1  0.93399028  0.09316130  0.31488253  1
  O2-  O517  1  0.92590343  0.10097776  0.63434435  1
  O2-  O518  1  0.91661679  0.08108005  0.97469690  1
  O2-  O519  1  0.91403480  0.33762067  0.31396542  1
  O2-  O520  1  0.93289277  0.32341565  0.64028598  1
  O2-  O521  1  0.91617041  0.33247224  0.98181228  1
  O2-  O522  1  0.93410885  0.57766669  0.31567783  1
  O2-  O523  1  0.95364912  0.66009360  0.60837675  1
  O2-  O524  1  0.92081370  0.58365944  0.98514912  1
  O2-  O525  1  0.91461505  0.85682478  0.31093771  1
  O2-  O526  1  0.91911660  0.84505035  0.64451284  1
  O2-  O527  1  0.89364415  0.82238235  0.96325781  1
  O2-  O528  1  0.07882875  0.14521730  0.00534965  1
  O2-  O529  1  0.09230772  0.16503573  0.35805935  1
  O2-  O530  1  0.09113978  0.17466227  0.68155644  1
  O2-  O531  1  0.07645222  0.41322547  0.02813728  1
  O2-  O532  1  0.03284012  0.34719061  0.38274617  1
  O2-  O533  1  0.09168159  0.41186711  0.68999309  1
  O2-  O534  1  0.07688145  0.66674189  0.03131088  1
  O2-  O535  1  0.10287462  0.66686369  0.36154393  1
  O2-  O536  1  0.07133835  0.65167544  0.68771661  1
  O2-  O537  1  0.13756448  0.94786621  0.03607308  1
  O2-  O538  1  0.09366097  0.92625317  0.34238804  1
  O2-  O539  1  0.08311941  0.91817376  0.68685241  1
  O2-  O540  1  0.33008648  0.16125683  0.02496826  1
  O2-  O541  1  0.34072794  0.18003306  0.35219872  1
  O2-  O542  1  0.33708184  0.15249604  0.68816820  1
  O2-  O543  1  0.32462095  0.40931025  0.01513358  1
  O2-  O544  1  0.32386805  0.40591798  0.34440257  1
  O2-  O545  1  0.33895124  0.40264651  0.68490999  1
  O2-  O546  1  0.30243691  0.60938816  0.05856650  1
  O2-  O547  1  0.33953520  0.68374903  0.35544426  1
  O2-  O548  1  0.32626789  0.65377013  0.68226512  1
  O2-  O549  1  0.33979064  0.87703574  -0.02876831  1
  O2-  O550  1  0.33979776  0.93757857  0.36507555  1
  O2-  O551  1  0.33758233  0.91733223  0.68856595  1
  O2-  O552  1  0.57359517  0.16270608  0.02205985  1
  O2-  O553  1  0.59007080  0.16327146  0.35789885  1
  O2-  O554  1  0.55922097  0.13551147  0.66098907  1
  O2-  O555  1  0.58895498  0.41869372  0.06283312  1
  O2-  O556  1  0.58202952  0.42348093  0.34810161  1
  O2-  O557  1  0.59391995  0.41886901  0.68711704  1
  O2-  O558  1  0.59690251  0.66324942  0.01175951  1
  O2-  O559  1  0.56988426  0.66246898  0.35135871  1
  O2-  O560  1  0.60899612  0.67517878  0.70344120  1
  O2-  O561  1  0.55561405  0.87451404  0.02633690  1
  O2-  O562  1  0.57478599  0.91664285  0.35208212  1
  O2-  O563  1  0.57635372  0.89783928  0.69704612  1
  O2-  O564  1  0.84116524  0.17070604  0.01878960  1
  O2-  O565  1  0.73814157  0.07787486  0.39135117  1
  O2-  O566  1  0.79693414  0.18174865  0.69553629  1
  O2-  O567  1  0.83464664  0.41104523  0.03122195  1
  O2-  O568  1  0.83582018  0.41495448  0.35582584  1
  O2-  O569  1  0.79391156  0.33083989  0.69435902  1
  O2-  O570  1  0.83164007  0.66548771  0.01979958  1
  O2-  O571  1  0.76976152  0.72621433  0.36642182  1
  O2-  O572  1  0.84168389  0.67899585  0.68073027  1
  O2-  O573  1  0.83146792  0.91730167  0.02632424  1
  O2-  O574  1  0.78857278  0.95575964  0.36256260  1
  O2-  O575  1  0.83712369  0.93114728  0.68487537  1
