# generated using pymatgen
data_H2O
_symmetry_space_group_name_H-M   'P 1'
_cell_length_a   17.99513920
_cell_length_b   17.98532738
_cell_length_c   21.99888285
_cell_angle_alpha   90.00438059
_cell_angle_beta   90.00622080
_cell_angle_gamma   120.00146172
_symmetry_Int_Tables_number   1
_chemical_formula_structural   H2O
_chemical_formula_sum   'H384 O192'
_cell_volume   6165.92747335
_cell_formula_units_Z   192
loop_
 _symmetry_equiv_pos_site_id
 _symmetry_equiv_pos_as_xyz
  1  'x, y, z'
loop_
 _atom_type_symbol
 _atom_type_oxidation_number
  H+  1.0
  O2-  -2.0
loop_
 _atom_site_type_symbol
 _atom_site_label
 _atom_site_symmetry_multiplicity
 _atom_site_fract_x
 _atom_site_fract_y
 _atom_site_fract_z
 _atom_site_occupancy
  H+  H0  1  0.25801964  0.12971207  1.00807798  1
  H+  H1  1  0.28292219  0.39284559  0.16403446  1
  H+  H2  1  0.15320904  0.78159036  0.17450984  1
  H+  H3  1  0.37605789  -0.02428218  0.83988131  1
  H+  H4  1  0.10534894  0.96712012  0.16192500  1
  H+  H5  1  0.15590150  0.03031702  0.83851010  1
  H+  H6  1  0.83654170  0.65774804  0.42906793  1
  H+  H7  1  0.18784698  0.61024785  0.82605021  1
  H+  H8  1  0.14628525  0.86349560  0.66764430  1
  H+  H9  1  0.47537963  0.85396950  0.32654066  1
  H+  H10  1  0.34198671  0.84152619  0.34762380  1
  H+  H11  1  0.47504297  0.86234791  0.51907735  1
  H+  H12  1  0.73847036  0.38169160  0.51280531  1
  H+  H13  1  -0.01253701  0.13991889  0.84920239  1
  H+  H14  1  0.38179415  0.86780850  0.50139419  1
  H+  H15  1  0.60331622  0.23416642  0.83327507  1
  H+  H16  1  0.46783296  0.84996183  0.66714002  1
  H+  H17  1  0.66525649  0.33981849  0.93715693  1
  H+  H18  1  0.62559037  0.39441000  0.67589576  1
  H+  H19  1  0.13116493  0.27770738  0.31649281  1
  H+  H20  1  0.63511264  1.01568283  0.17529253  1
  H+  H21  1  0.38398827  0.85511480  0.67656871  1
  H+  H22  1  0.13256302  0.51087277  0.30290447  1
  H+  H23  1  0.37326682  0.60980002  0.84379436  1
  H+  H24  1  0.88051827  0.86154486  0.83949579  1
  H+  H25  1  0.48054314  0.11567502  0.85290849  1
  H+  H26  1  0.78345858  0.13707664  0.82630946  1
  H+  H27  1  0.51836838  0.37283462  0.16039463  1
  H+  H28  1  0.39455137  0.42051995  0.47714657  1
  H+  H29  1  0.86769874  0.47653237  0.49691950  1
  H+  H30  1  0.87584495  0.72899613  0.84034160  1
  H+  H31  1  0.03374579  0.14152763  0.32863783  1
  H+  H32  1  1.02794158  0.89110771  0.66467295  1
  H+  H33  1  0.23697787  0.01798586  0.75351634  1
  H+  H34  1  0.64409735  0.28148820  0.31744977  1
  H+  H35  1  0.61655624  0.35755599  0.16497726  1
  H+  H36  1  0.56396058  0.65363133  -0.01264858  1
  H+  H37  1  0.17802367  0.96772534  0.47894514  1
  H+  H38  1  0.36263291  0.23211330  0.33337698  1
  H+  H39  1  0.14119931  0.12270436  0.33010190  1
  H+  H40  1  0.28577454  0.88380988  0.16316592  1
  H+  H41  1  0.88182830  0.11288630  0.16836816  1
  H+  H42  1  0.21301308  0.84645406  0.32430233  1
  H+  H43  1  0.32355304  0.73396635  0.86154445  1
  H+  H44  1  0.73184750  0.61359688  0.49061373  1
  H+  H45  1  0.02019799  0.88402143  0.00785282  1
  H+  H46  1  0.77610406  0.38955570  0.00608771  1
  H+  H47  1  0.02499418  0.40119971  0.31855001  1
  H+  H48  1  -0.11402332  0.11961579  0.00260760  1
  H+  H49  1  0.12945438  0.65032152  0.17036985  1
  H+  H50  1  0.63789384  0.11312964  0.66720175  1
  H+  H51  1  0.88938363  0.37328197  0.32156433  1
  H+  H52  1  0.37269695  0.72355049  0.18341639  1
  H+  H53  1  0.87183032  0.72813581  0.65502112  1
  H+  H54  1  0.31482956  0.01416322  0.72784176  1
  H+  H55  1  0.96402425  0.34743058  0.50484049  1
  H+  H56  1  0.11066334  0.39829140  0.66548707  1
  H+  H57  1  0.73246908  0.85935658  0.17865695  1
  H+  H58  1  0.39367904  0.01563651  0.17058091  1
  H+  H59  1  0.39191933  0.54592182  0.50438626  1
  H+  H60  1  0.12140511  0.25547256  0.48274990  1
  H+  H61  1  0.13825235  0.28340611  0.69355587  1
  H+  H62  1  0.88544917  0.02451948  0.16577449  1
  H+  H63  1  0.86575275  0.48218153  0.67620887  1
  H+  H64  1  0.87473325  0.01378197  0.65565761  1
  H+  H65  1  -0.03315782  0.36306140  0.64953358  1
  H+  H66  1  -0.02425647  0.36658057  0.17312885  1
  H+  H67  1  0.47179448  0.11780691  0.49809402  1
  H+  H68  1  0.88028093  0.27280932  0.65923898  1
  H+  H69  1  0.82594474  0.16637646  0.07054913  1
  H+  H70  1  0.02312030  0.64445417  0.01702298  1
  H+  H71  1  0.86769916  0.72039188  0.48687703  1
  H+  H72  1  0.84698997  0.20982196  0.49002033  1
  H+  H73  1  0.52974780  0.64000206  0.15522226  1
  H+  H74  1  0.63890713  0.85984466  0.00473965  1
  H+  H75  1  0.64419793  0.85812823  0.33116068  1
  H+  H76  1  0.97347004  0.35788080  0.99312977  1
  H+  H77  1  0.64495054  0.76878918  0.17531825  1
  H+  H78  1  0.65089528  0.53958974  0.00337671  1
  H+  H79  1  0.77044554  0.38061320  0.15557995  1
  H+  H80  1  0.14522109  0.11354510  0.84689074  1
  H+  H81  1  0.11843881  -0.02221323  0.66207653  1
  H+  H82  1  0.27597640  0.15706855  0.49049240  1
  H+  H83  1  0.36661153  0.13212719  0.16388087  1
  H+  H84  1  0.62450999  0.88713693  0.65536120  1
  H+  H85  1  0.57012570  0.90576293  0.58086716  1
  H+  H86  1  0.73537382  0.36366321  0.67259392  1
  H+  H87  1  0.01817697  0.14588933  0.15578724  1
  H+  H88  1  0.32284386  0.21965728  0.03619207  1
  H+  H89  1  0.78361641  0.89211861  0.33982215  1
  H+  H90  1  0.43820675  0.58300531  0.24771578  1
  H+  H91  1  0.67942862  0.40530086  0.55347457  1
  H+  H92  1  0.36142511  0.88346705  0.00692119  1
  H+  H93  1  0.65407739  0.63171181  1.00287257  1
  H+  H94  1  0.41244757  1.00158147  0.37298183  1
  H+  H95  1  0.10992188  0.93196033  0.76258251  1
  H+  H96  1  0.65936173  0.07707890  0.23344710  1
  H+  H97  1  0.63801691  0.27853103  0.99582213  1
  H+  H98  1  0.38440463  0.35561922  0.83008024  1
  H+  H99  1  0.96840601  0.61052571  0.31633886  1
  H+  H100  1  0.71323819  0.10431071  0.50651843  1
  H+  H101  1  0.33593991  0.22473235  0.67094167  1
  H+  H102  1  0.90209117  0.31908497  0.56181619  1
  H+  H103  1  0.41270831  0.28444864  0.97907342  1
  H+  H104  1  0.14580796  0.53723619  0.49938545  1
  H+  H105  1  0.13099833  0.06731845  0.24260347  1
  H+  H106  1  0.62207938  0.39469223  0.01059504  1
  H+  H107  1  0.92007799  0.08769871  0.56558281  1
  H+  H108  1  0.23691663  0.86827619  0.84367011  1
  H+  H109  1  0.88663918  0.36362634  -0.00314178  1
  H+  H110  1  0.12841453  0.10778277  0.99918239  1
  H+  H111  1  0.50400394  0.88366500  0.00560105  1
  H+  H112  1  0.24865732  0.36195047  0.84832235  1
  H+  H113  1  0.36268057  0.97808355  0.49186587  1
  H+  H114  1  0.14609199  0.52582803  0.20494051  1
  H+  H115  1  0.52610254  0.13887615  0.00857918  1
  H+  H116  1  0.64221794  0.53623581  0.32354299  1
  H+  H117  1  0.89295806  0.86394838  0.64492917  1
  H+  H118  1  0.13465215  0.62584808  1.01147187  1
  H+  H119  1  0.11500188  0.16456146  0.48764742  1
  H+  H120  1  0.13539672  0.05008528  0.49616431  1
  H+  H121  1  0.05256848  0.50309473  0.79567552  1
  H+  H122  1  0.36426261  0.46497753  0.32819371  1
  H+  H123  1  0.42032654  0.32929738  0.22662286  1
  H+  H124  1  0.89852029  0.86563142  0.49434520  1
  H+  H125  1  0.03719111  0.60739780  0.82929182  1
  H+  H126  1  0.26993404  0.64650827  0.47557328  1
  H+  H127  1  0.12330410  0.39629165  0.16476031  1
  H+  H128  1  0.12561726  0.84400228  0.50223000  1
  H+  H129  1  0.35170421  0.20656473  0.64638289  1
  H+  H130  1  0.61899293  0.87315669  0.16834039  1
  H+  H131  1  0.37881136  0.52415674  0.00463438  1
  H+  H132  1  0.07568520  0.65540560  0.41323788  1
  H+  H133  1  0.61613668  0.13990608  0.00127746  1
  H+  H134  1  0.48284116  0.37584321  0.49259303  1
  H+  H135  1  0.49799870  0.39637146  0.64945903  1
  H+  H136  1  0.28266969  0.14040465  0.84239874  1
  H+  H137  1  0.63285482  0.11344406  0.32376447  1
  H+  H138  1  0.77408063  0.63736151  0.33948872  1
  H+  H139  1  0.53675920  0.40074684  0.00766162  1
  H+  H140  1  0.36081674  0.83367160  0.84892066  1
  H+  H141  1  0.11836342  0.37906666  0.99594039  1
  H+  H142  1  0.27592082  0.88893729  0.68231892  1
  H+  H143  1  -0.02306802  0.85974604  0.16660933  1
  H+  H144  1  0.11323038  0.39564834  0.31614764  1
  H+  H145  1  0.13890289  0.39620787  0.83522858  1
  H+  H146  1  0.52636523  0.13501116  0.67330861  1
  H+  H147  1  0.89031801  0.78121372  -0.00578068  1
  H+  H148  1  0.02166394  0.13852819  0.01034189  1
  H+  H149  1  0.22020400  0.61545414  0.65511268  1
  H+  H150  1  0.60983636  0.23010818  0.49694616  1
  H+  H151  1  0.12745542  0.40494992  0.49977789  1
  H+  H152  1  -0.09234130  0.02339026  0.31697679  1
  H+  H153  1  0.88852949  0.61560354  0.65565451  1
  H+  H154  1  0.73270650  0.87328585  0.85294077  1
  H+  H155  1  0.40900270  0.49957670  0.42946907  1
  H+  H156  1  0.38881861  0.10742780  0.85838071  1
  H+  H157  1  0.38288781  0.11856165  0.49908273  1
  H+  H158  1  0.37641500  0.62683736  0.19371308  1
  H+  H159  1  0.62285547  0.97760808  0.66078203  1
  H+  H160  1  0.12093145  0.89284344  0.33506331  1
  H+  H161  1  0.64425820  0.77120299  1.00433471  1
  H+  H162  1  0.86762248  0.88955175  0.16051213  1
  H+  H163  1  0.76797530  0.87332499  0.65676714  1
  H+  H164  1  0.48109039  0.85085235  0.17519031  1
  H+  H165  1  0.59825454  0.43300402  0.73068593  1
  H+  H166  1  0.86442684  0.98297915  0.01033594  1
  H+  H167  1  0.39121565  0.85321996  0.17157661  1
  H+  H168  1  0.58492923  0.40977217  0.10178426  1
  H+  H169  1  0.41161381  0.15434794  0.31212189  1
  H+  H170  1  0.34259864  0.71383652  0.68055285  1
  H+  H171  1  0.86896786  0.60282422  0.16753101  1
  H+  H172  1  0.37044919  0.97298987  0.66900360  1
  H+  H173  1  0.78131483  0.64174254  0.65211415  1
  H+  H174  1  0.62421888  0.64518287  0.66482962  1
  H+  H175  1  0.14109328  0.26631752  1.00057285  1
  H+  H176  1  0.38192064  0.77261305  0.48863361  1
  H+  H177  1  0.64051592  0.76816357  0.65100999  1
  H+  H178  1  0.64678457  0.77964729  0.47749261  1
  H+  H179  1  0.63831951  0.60478172  0.84226566  1
  H+  H180  1  0.89586878  0.13284468  0.84516435  1
  H+  H181  1  0.28017465  0.39624194  0.67509412  1
  H+  H182  1  0.57309173  0.16932044  0.77664068  1
  H+  H183  1  0.63700156  0.85752183  0.50449836  1
  H+  H184  1  0.87318813  0.64670438  1.00637638  1
  H+  H185  1  0.89186988  0.52880105  0.99855394  1
  H+  H186  1  0.61255586  0.39100579  0.32254197  1
  H+  H187  1  0.73038382  0.37266602  0.31218150  1
  H+  H188  1  0.53542386  0.64492176  0.66830979  1
  H+  H189  1  0.14035964  0.28152040  0.16455314  1
  H+  H190  1  0.90814416  0.62080501  0.85141815  1
  H+  H191  1  0.61519876  0.22263008  0.68185325  1
  H+  H192  1  0.56534233  0.65840514  0.40695586  1
  H+  H193  1  0.62220202  0.48510001  0.83013965  1
  H+  H194  1  0.39898144  0.53416602  0.66260322  1
  H+  H195  1  0.08642181  0.42348159  0.55641152  1
  H+  H196  1  0.63473340  0.61273243  0.16767079  1
  H+  H197  1  0.72622777  0.11432187  0.99296483  1
  H+  H198  1  0.86405352  0.39192441  0.67568303  1
  H+  H199  1  0.11148884  0.63734610  0.66809122  1
  H+  H200  1  0.12679676  0.40105965  0.86701956  1
  H+  H201  1  0.10552435  0.72085099  0.31936479  1
  H+  H202  1  0.41827172  0.82676108  0.26517367  1
  H+  H203  1  0.12252225  0.98451984  0.33751129  1
  H+  H204  1  0.36042204  0.64796865  0.47792691  1
  H+  H205  1  0.15401087  0.90965821  0.82124508  1
  H+  H206  1  0.41030374  0.39795353  0.65264871  1
  H+  H207  1  0.96458413  0.09397312  0.66830593  1
  H+  H208  1  0.37245206  0.39348314  1.01110952  1
  H+  H209  1  -0.02259646  0.12716081  0.50551140  1
  H+  H210  1  0.13631953  0.86383335  -0.00451061  1
  H+  H211  1  0.15229172  0.87092840  0.17064885  1
  H+  H212  1  0.58777769  0.66936098  0.09311277  1
  H+  H213  1  0.62341357  0.89163077  0.82671192  1
  H+  H214  1  0.61657774  0.13418564  0.15754266  1
  H+  H215  1  0.35547136  0.49612181  0.83096296  1
  H+  H216  1  0.41876216  1.08193681  -0.05512490  1
  H+  H217  1  0.45877184  0.61608228  1.01525706  1
  H+  H218  1  0.11253609  0.73363184  0.01354920  1
  H+  H219  1  0.63537323  0.52426255  0.17460642  1
  H+  H220  1  0.10987597  0.93677963  0.42510339  1
  H+  H221  1  0.84777247  0.12228508  0.48975132  1
  H+  H222  1  0.38567770  0.10004553  0.65363318  1
  H+  H223  1  0.39520743  0.52382596  0.18813749  1
  H+  H224  1  0.77080692  0.63963722  0.15639645  1
  H+  H225  1  0.36275907  0.72426030  0.32600430  1
  H+  H226  1  0.78607997  0.89215702  0.48883957  1
  H+  H227  1  0.88958577  0.87038434  0.99705442  1
  H+  H228  1  0.86300521  0.13844790  0.67548148  1
  H+  H229  1  0.60942216  0.14153934  0.49569295  1
  H+  H230  1  0.61760217  0.48429480  0.47421937  1
  H+  H231  1  0.47731035  0.36494710  0.31605933  1
  H+  H232  1  0.40760285  0.02790330  0.34837602  1
  H+  H233  1  0.77555565  0.89223525  0.01059335  1
  H+  H234  1  0.98530174  0.86298562  0.49256825  1
  H+  H235  1  0.61106832  0.97971842  0.33367450  1
  H+  H236  1  0.10349294  0.44676071  -0.03749884  1
  H+  H237  1  0.13951072  0.25328971  0.82877936  1
  H+  H238  1  0.83414027  0.41682738  0.06600124  1
  H+  H239  1  0.39847983  0.81814297  0.93714003  1
  H+  H240  1  0.88636951  0.36660416  0.16865430  1
  H+  H241  1  0.85275080  0.22856076  0.33595363  1
  H+  H242  1  0.66439127  0.09079685  0.57026021  1
  H+  H243  1  0.13145420  0.10725992  0.66313970  1
  H+  H244  1  0.73007071  0.11865598  0.66472637  1
  H+  H245  1  0.25933496  0.78340236  0.38617472  1
  H+  H246  1  0.38824133  0.11401726  1.00274484  1
  H+  H247  1  0.85806223  0.22669093  0.16326694  1
  H+  H248  1  0.47019581  0.63846580  0.51211694  1
  H+  H249  1  0.03410657  0.04732599  0.73595718  1
  H+  H250  1  0.53163290  0.39753130  0.82240816  1
  H+  H251  1  0.22538644  0.86360966  0.99693182  1
  H+  H252  1  0.43023140  0.36283481  0.55413236  1
  H+  H253  1  0.76848359  0.13626807  0.16478733  1
  H+  H254  1  0.85773704  0.22624392  0.01070454  1
  H+  H255  1  0.29750016  0.63687781  0.73101230  1
  H+  H256  1  0.63711403  0.02683070  0.98571027  1
  H+  H257  1  0.03856656  0.01612300  0.21525952  1
  H+  H258  1  0.65717291  1.02782720  0.83080814  1
  H+  H259  1  0.10619960  0.71615619  0.47328740  1
  H+  H260  1  0.26071059  0.40292603  0.47555322  1
  H+  H261  1  0.79062311  0.63804835  0.84258327  1
  H+  H262  1  0.13975851  0.62153487  0.48552238  1
  H+  H263  1  0.21494135  0.84746712  0.50561955  1
  H+  H264  1  0.65407272  0.73381662  0.38675632  1
  H+  H265  1  0.72205793  0.11391381  0.32377721  1
  H+  H266  1  0.02454456  0.63885034  0.67579415  1
  H+  H267  1  0.97862465  0.60775691  0.49773450  1
  H+  H268  1  0.35410557  0.64700954  1.02009927  1
  H+  H269  1  0.87445160  -0.01838381  0.49367744  1
  H+  H270  1  0.88050117  0.61363519  0.32494508  1
  H+  H271  1  -0.01806619  0.86231743  0.34828402  1
  H+  H272  1  0.78378247  0.64694956  0.00553928  1
  H+  H273  1  0.10938938  -0.02776694  1.00920361  1
  H+  H274  1  0.85946437  0.48386546  0.33311738  1
  H+  H275  1  0.38015245  0.77357167  1.00366945  1
  H+  H276  1  0.36788435  0.24231060  0.49011389  1
  H+  H277  1  0.61626362  0.39435004  0.47702685  1
  H+  H278  1  0.22658384  0.12860774  0.64937465  1
  H+  H279  1  0.28011357  0.62968177  0.20021389  1
  H+  H280  1  0.89135959  0.61005259  0.50368170  1
  H+  H281  1  0.65077503  0.62206938  0.47434560  1
  H+  H282  1  -0.04139230  0.37259098  0.83529928  1
  H+  H283  1  0.85130695  0.38362986  0.83440608  1
  H+  H284  1  0.87633302  0.00549805  0.83027095  1
  H+  H285  1  0.22903528  0.11955197  0.32405795  1
  H+  H286  1  0.39244727  0.27207708  0.83599557  1
  H+  H287  1  0.53885279  0.16640807  0.32858820  1
  H+  H288  1  0.59006402  0.18079513  0.39252468  1
  H+  H289  1  0.20024325  0.31222655  0.90920425  1
  H+  H290  1  0.34138028  0.90815273  0.10204875  1
  H+  H291  1  0.63704855  0.37262198  0.84369457  1
  H+  H292  1  0.08240427  0.16571457  0.06942257  1
  H+  H293  1  0.41733164  0.08384383  0.59014852  1
  H+  H294  1  0.85745406  0.38189333  0.49417647  1
  H+  H295  1  0.82641333  0.89561534  0.71669054  1
  H+  H296  1  0.08804605  0.91319396  0.09970428  1
  H+  H297  1  0.06953202  0.14614858  0.74867091  1
  H+  H298  1  0.59542408  0.91464876  0.76388759  1
  H+  H299  1  0.16833802  0.83765515  0.25913803  1
  H+  H300  1  0.58441178  0.89822382  0.10845680  1
  H+  H301  1  0.27562346  0.49078171  0.80380341  1
  H+  H302  1  0.09957134  0.13691586  0.16419877  1
  H+  H303  1  0.42918909  0.34775715  0.92574055  1
  H+  H304  1  0.59102283  0.16657437  0.09576035  1
  H+  H305  1  0.91741804  0.84472425  0.89942530  1
  H+  H306  1  0.16168400  0.10440613  0.55738251  1
  H+  H307  1  0.14671695  0.77555096  0.67284109  1
  H+  H308  1  0.57871391  0.64981712  0.76560286  1
  H+  H309  1  0.67285153  0.82094500  0.27721120  1
  H+  H310  1  0.09900949  0.44517931  0.11569964  1
  H+  H311  1  0.67003871  0.82121916  0.58718601  1
  H+  H312  1  0.37077984  0.38885420  0.16454335  1
  H+  H313  1  0.68199193  0.08819954  0.88973505  1
  H+  H314  1  0.34322844  0.41912419  0.07351961  1
  H+  H315  1  0.32441904  0.15300105  0.10906591  1
  H+  H316  1  0.08604652  0.18420353  0.39112545  1
  H+  H317  1  0.91139377  0.33336357  0.90096278  1
  H+  H318  1  0.54871975  0.96136084  0.05036750  1
  H+  H319  1  0.58431158  0.92164875  0.39257635  1
  H+  H320  1  0.86656903  0.72497111  0.34976706  1
  H+  H321  1  0.80001085  0.96694638  0.78540165  1
  H+  H322  1  0.26420434  0.62973543  0.31985685  1
  H+  H323  1  0.38876239  0.26726419  0.16830697  1
  H+  H324  1  0.67205778  0.58616364  0.90514427  1
  H+  H325  1  0.91347072  0.33804923  0.26235166  1
  H+  H326  1  0.16903654  0.59781286  0.58994833  1
  H+  H327  1  0.17061142  0.84194499  0.89822356  1
  H+  H328  1  0.09564552  0.67638894  0.11110699  1
  H+  H329  1  0.59923932  0.97257555  0.52651874  1
  H+  H330  1  0.66988101  0.84064550  0.90879708  1
  H+  H331  1  0.47990700  0.10666854  0.16374770  1
  H+  H332  1  0.33608519  0.17514539  0.39393723  1
  H+  H333  1  0.32168054  0.39682451  0.38025488  1
  H+  H334  1  0.83414264  0.67138370  0.09830244  1
  H+  H335  1  0.93341771  0.08251914  0.25660549  1
  H+  H336  1  0.83300897  0.91802779  0.10281620  1
  H+  H337  1  0.67574425  0.59895615  0.26828099  1
  H+  H338  1  0.10855311  0.63312565  0.31336263  1
  H+  H339  1  0.32309113  0.66099360  0.38729885  1
  H+  H340  1  0.89547213  0.57188630  0.22783860  1
  H+  H341  1  0.32545624  0.90380288  0.43926332  1
  H+  H342  1  0.67599401  0.32453398  0.61405848  1
  H+  H343  1  0.89611260  0.52719557  0.84960886  1
  H+  H344  1  0.14517034  0.29237183  0.62326210  1
  H+  H345  1  0.91985420  0.09606295  0.94239887  1
  H+  H346  1  0.22485883  0.38156193  0.54053593  1
  H+  H347  1  0.84669122  0.92952393  0.39660380  1
  H+  H348  1  0.83050320  0.42088046  0.77518375  1
  H+  H349  1  0.33388143  0.13576617  0.78602728  1
  H+  H350  1  0.04516202  0.43180648  0.74903683  1
  H+  H351  1  0.51785863  0.62341986  0.82401508  1
  H+  H352  1  0.89278932  0.86245817  0.34571715  1
  H+  H353  1  0.92330843  0.58158583  0.60177767  1
  H+  H354  1  0.38410433  0.35899929  0.31336027  1
  H+  H355  1  0.41224004  0.59905682  0.90688928  1
  H+  H356  1  0.16104017  0.07777082  0.94047576  1
  H+  H357  1  0.65815952  0.32652089  0.22902395  1
  H+  H358  1  0.44108561  0.12168328  0.25387174  1
  H+  H359  1  0.11052760  0.48837858  0.65245995  1
  H+  H360  1  0.22050418  0.36518839  0.31300973  1
  H+  H361  1  0.14100672  0.54159450  0.01963667  1
  H+  H362  1  0.41760470  0.59805928  0.60765053  1
  H+  H363  1  0.27072724  0.65410197  1.02371911  1
  H+  H364  1  0.85438082  0.47546297  0.16001282  1
  H+  H365  1  0.34932066  0.92238012  0.77736590  1
  H+  H366  1  0.66339027  0.58402584  0.58548209  1
  H+  H367  1  0.08438753  0.63265535  0.76476238  1
  H+  H368  1  0.06341344  0.25817754  0.79315448  1
  H+  H369  1  0.33037859  0.43781046  0.73567016  1
  H+  H370  1  0.82032163  0.16369381  0.39201603  1
  H+  H371  1  0.88525160  0.77678521  0.16900801  1
  H+  H372  1  0.72364310  0.36855175  0.84574062  1
  H+  H373  1  0.82709413  0.42128743  0.39153842  1
  H+  H374  1  0.16741861  0.33769604  0.22519559  1
  H+  H375  1  0.64511940  0.53026802  0.64772235  1
  H+  H376  1  0.92913637  0.58798786  0.93947030  1
  H+  H377  1  0.36328759  0.97400716  0.01343634  1
  H+  H378  1  0.23097087  0.35685760  1.00339424  1
  H+  H379  1  0.58250868  0.41795937  0.38292396  1
  H+  H380  1  0.62516006  0.25981766  0.16685398  1
  H+  H381  1  0.84013169  0.17256844  0.73600078  1
  H+  H382  1  0.93064809  0.83892834  0.58738109  1
  H+  H383  1  0.86877508  0.23218023  0.82764511  1
  O2-  O384  1  0.08096252  0.17467373  0.14413752  1
  O2-  O385  1  0.08335770  0.19403966  0.47358930  1
  O2-  O386  1  0.08540787  0.21923962  0.80070223  1
  O2-  O387  1  0.09510578  0.43272345  0.15919382  1
  O2-  O388  1  0.08640423  0.42426935  0.51179597  1
  O2-  O389  1  0.03627591  0.44107963  0.79166800  1
  O2-  O390  1  0.10471839  0.68457965  0.15598626  1
  O2-  O391  1  0.07753462  0.65488043  0.45859850  1
  O2-  O392  1  0.08353030  0.60647959  0.80513625  1
  O2-  O393  1  0.09010418  0.90999223  0.14525275  1
  O2-  O394  1  0.11687262  0.94472951  0.47175394  1
  O2-  O395  1  0.14852589  0.95704249  0.79812958  1
  O2-  O396  1  0.33709315  0.16459240  0.15258887  1
  O2-  O397  1  0.33647124  0.18060368  0.47716521  1
  O2-  O398  1  0.34218202  0.16574555  0.82597737  1
  O2-  O399  1  0.34525495  0.42522959  0.15263616  1
  O2-  O400  1  0.36837249  0.45458406  0.46037146  1
  O2-  O401  1  0.30307550  0.45361527  0.80795883  1
  O2-  O402  1  0.34044549  0.65720614  0.18241807  1
  O2-  O403  1  0.33152376  0.67752242  0.45814391  1
  O2-  O404  1  0.28087288  0.58873681  0.80077480  1
  O2-  O405  1  0.34631056  0.90800240  0.14778977  1
  O2-  O406  1  0.33392281  0.91458592  0.48384226  1
  O2-  O407  1  0.34462647  0.91666801  0.82224745  1
  O2-  O408  1  0.58885977  0.16691949  0.14175962  1
  O2-  O409  1  0.58061597  0.17254630  0.47884320  1
  O2-  O410  1  0.56708897  0.17318769  0.82096801  1
  O2-  O411  1  0.58196438  0.40187671  0.14777413  1
  O2-  O412  1  0.58504117  0.42215839  0.46087691  1
  O2-  O413  1  0.59247661  0.42658116  0.80968814  1
  O2-  O414  1  0.58894439  0.66826964  0.13970561  1
  O2-  O415  1  0.62354586  0.70026040  0.42304666  1
  O2-  O416  1  0.56771090  0.62278898  0.80609296  1
  O2-  O417  1  0.58502945  0.90087980  0.15332194  1
  O2-  O418  1  0.56789224  0.90867656  0.53521515  1
  O2-  O419  1  0.60111381  0.92702861  0.80733792  1
  O2-  O420  1  0.82799629  0.16625163  0.14796994  1
  O2-  O421  1  0.81406234  0.14915164  0.47554823  1
  O2-  O422  1  0.84721589  0.17240509  0.81163831  1
  O2-  O423  1  0.83099493  0.41308273  0.14332961  1
  O2-  O424  1  0.82981701  0.41587730  0.48196923  1
  O2-  O425  1  0.82608390  0.41930905  0.82030093  1
  O2-  O426  1  0.83216962  0.66932955  0.14383452  1
  O2-  O427  1  0.83665801  0.65865312  0.47552846  1
  O2-  O428  1  0.85280398  0.66653179  0.83408416  1
  O2-  O429  1  0.83377211  0.91868263  0.14841556  1
  O2-  O430  1  0.84742249  0.92222009  0.47662163  1
  O2-  O431  1  0.83873809  0.95210677  0.80610683  1
  O2-  O432  1  0.09858194  0.05038260  0.20286531  1
  O2-  O433  1  0.16410853  0.10974147  0.51212478  1
  O2-  O434  1  0.17454181  0.08514239  0.86371304  1
  O2-  O435  1  0.17316631  0.34235637  0.17934943  1
  O2-  O436  1  0.20514094  0.37305454  0.49846730  1
  O2-  O437  1  0.21681082  0.30355396  0.86751691  1
  O2-  O438  1  0.18134787  0.58662535  0.22096421  1
  O2-  O439  1  0.17817615  0.60087515  0.50356578  1
  O2-  O440  1  0.23940901  0.61572916  0.84685442  1
  O2-  O441  1  0.18483188  0.84419510  0.18855619  1
  O2-  O442  1  0.15243863  0.80864660  0.50808251  1
  O2-  O443  1  0.17551537  0.84748186  0.85326473  1
  O2-  O444  1  0.42107403  0.07790702  0.18116135  1
  O2-  O445  1  0.41072477  0.08485039  0.51215242  1
  O2-  O446  1  0.42073214  0.07852014  0.87192354  1
  O2-  O447  1  0.42152252  0.33027800  0.18059026  1
  O2-  O448  1  0.42341550  0.35306343  0.50858065  1
  O2-  O449  1  0.41989324  0.33449265  0.84806394  1
  O2-  O450  1  0.42536005  0.58465640  0.20385802  1
  O2-  O451  1  0.40851807  0.60467794  0.51944789  1
  O2-  O452  1  0.41707524  0.59756375  0.86227107  1
  O2-  O453  1  0.41988416  0.82196651  0.19020666  1
  O2-  O454  1  0.40849583  0.82975751  0.51139981  1
  O2-  O455  1  0.37331195  0.79153303  0.86869486  1
  O2-  O456  1  0.66099034  0.07682943  0.18756810  1
  O2-  O457  1  0.65468678  0.08144220  0.52516917  1
  O2-  O458  1  0.69222123  0.08860830  0.84566964  1
  O2-  O459  1  0.65132134  0.32254461  0.18169213  1
  O2-  O460  1  0.67761179  0.35838253  0.52990208  1
  O2-  O461  1  0.66332512  0.33997529  0.86187418  1
  O2-  O462  1  0.66647473  0.58534152  0.18581310  1
  O2-  O463  1  0.66809118  0.58661746  0.49804653  1
  O2-  O464  1  0.67349636  0.58089195  0.86013369  1
  O2-  O465  1  0.67203724  0.82682460  0.19476451  1
  O2-  O466  1  0.67196785  0.82942023  0.50641879  1
  O2-  O467  1  0.67168967  0.84379764  0.86363737  1
  O2-  O468  1  0.91765718  0.08656874  0.17869547  1
  O2-  O469  1  0.91835202  0.08694549  0.52032851  1
  O2-  O470  1  0.92804717  0.10442323  0.86381306  1
  O2-  O471  1  0.91443549  0.33416256  0.18484676  1
  O2-  O472  1  0.90267440  0.31715970  0.51606905  1
  O2-  O473  1  0.90318889  0.33048744  0.85603285  1
  O2-  O474  1  0.89035245  0.56466541  0.18298863  1
  O2-  O475  1  0.92190586  0.57980913  0.51875940  1
  O2-  O476  1  0.93635408  0.58631255  0.86423922  1
  O2-  O477  1  0.91737848  0.83867455  0.18052012  1
  O2-  O478  1  0.92691648  0.83301205  0.50893670  1
  O2-  O479  1  0.91812535  0.84104950  0.85428076  1
  O2-  O480  1  0.16618068  0.08743502  0.31401125  1
  O2-  O481  1  0.16719028  0.09472140  0.63505707  1
  O2-  O482  1  0.16052570  0.07799403  0.98589634  1
  O2-  O483  1  0.15941653  0.33775406  0.29893300  1
  O2-  O484  1  0.15968899  0.32568820  0.66071441  1
  O2-  O485  1  0.17361483  0.32620970  0.98329719  1
  O2-  O486  1  0.17308253  0.58217049  0.28845038  1
  O2-  O487  1  0.15947750  0.58579305  0.63388940  1
  O2-  O488  1  0.16911035  0.59781193  1.00016210  1
  O2-  O489  1  0.15711582  0.82910979  0.30500307  1
  O2-  O490  1  0.18153340  0.83658662  0.65956762  1
  O2-  O491  1  0.16599613  0.83306466  0.98010982  1
  O2-  O492  1  0.46203113  0.15905690  0.29039475  1
  O2-  O493  1  0.42271311  0.08082453  0.63533013  1
  O2-  O494  1  0.41914899  0.08396680  0.99118731  1
  O2-  O495  1  0.41663586  0.32981386  0.30077299  1
  O2-  O496  1  0.44325144  0.37878589  0.62786685  1
  O2-  O497  1  0.43170696  0.34497720  0.97122916  1
  O2-  O498  1  0.43648963  0.56137530  0.32616629  1
  O2-  O499  1  0.43636156  0.59398071  0.64865018  1
  O2-  O500  1  0.40488288  0.58573389  0.99246339  1
  O2-  O501  1  0.41480583  0.81977337  0.31093030  1
  O2-  O502  1  0.40588428  0.81952749  0.65857699  1
  O2-  O503  1  0.41032448  0.83223735  0.98245386  1
  O2-  O504  1  0.65937573  0.07910413  0.30956712  1
  O2-  O505  1  0.67035804  0.08707145  0.64798935  1
  O2-  O506  1  0.66790320  0.08802138  0.97379020  1
  O2-  O507  1  0.66975476  0.33905284  0.29638591  1
  O2-  O508  1  0.67335408  0.32848796  0.65855382  1
  O2-  O509  1  0.66764991  0.34004414  0.98316469  1
  O2-  O510  1  0.67741712  0.59782281  0.31325860  1
  O2-  O511  1  0.67044675  0.58923001  0.63009501  1
  O2-  O512  1  0.68136538  0.59774011  0.98540325  1
  O2-  O513  1  0.67586486  0.82780407  0.32224824  1
  O2-  O514  1  0.67200096  0.82857361  0.63207667  1
  O2-  O515  1  0.67339744  0.83603888  0.98926716  1
  O2-  O516  1  0.94799964  0.08097252  0.29988351  1
  O2-  O517  1  0.91011931  0.07677518  0.64686209  1
  O2-  O518  1  0.91882084  0.09159521  0.98764286  1
  O2-  O519  1  0.91999194  0.34293326  0.30766364  1
  O2-  O520  1  0.90449686  0.33032305  0.63909008  1
  O2-  O521  1  0.91188330  0.32836403  0.98127881  1
  O2-  O522  1  0.90604890  0.57942540  0.30681601  1
  O2-  O523  1  0.91970698  0.58219129  0.64676190  1
  O2-  O524  1  0.92334215  0.58982420  0.98514556  1
  O2-  O525  1  0.91906767  0.82562191  0.35093170  1
  O2-  O526  1  0.93012388  0.84008258  0.63277368  1
  O2-  O527  1  0.92108063  0.84248916  0.97993883  1
  O2-  O528  1  0.08332391  0.16441108  0.02355985  1
  O2-  O529  1  0.09390890  0.18123255  0.34674236  1
  O2-  O530  1  0.05584267  0.10258365  0.71545224  1
  O2-  O531  1  0.08800688  0.41310133  -0.00002289  1
  O2-  O532  1  0.08921692  0.43425657  0.32582685  1
  O2-  O533  1  0.07404529  0.42426921  0.66236593  1
  O2-  O534  1  0.08319694  0.67560827  0.03334758  1
  O2-  O535  1  0.07860583  0.65980007  0.33373960  1
  O2-  O536  1  0.08485615  0.66600182  0.69116286  1
  O2-  O537  1  0.08107120  0.91153212  0.02341807  1
  O2-  O538  1  0.09673557  0.92564283  0.35590961  1
  O2-  O539  1  0.08703141  0.92198204  0.68292277  1
  O2-  O540  1  0.32000851  0.16669352  0.02258846  1
  O2-  O541  1  0.33254370  0.17143998  0.34889517  1
  O2-  O542  1  0.29270218  0.05432780  0.73162736  1
  O2-  O543  1  0.33794444  0.41755555  0.02804458  1
  O2-  O544  1  0.32207733  0.40065783  0.33565613  1
  O2-  O545  1  0.33842784  0.42853342  0.69181710  1
  O2-  O546  1  0.33263353  0.68383009  0.03641277  1
  O2-  O547  1  0.32434793  0.66115743  0.34035826  1
  O2-  O548  1  0.30208697  0.65136495  0.68674309  1
  O2-  O549  1  0.33192015  0.91280672  0.02654854  1
  O2-  O550  1  0.29540591  0.84223031  0.37199300  1
  O2-  O551  1  0.33784418  0.92581607  0.69818439  1
  O2-  O552  1  0.58830697  0.17044902  0.02065979  1
  O2-  O553  1  0.59687820  0.18281644  0.34785305  1
  O2-  O554  1  0.58300123  0.16073686  0.69377896  1
  O2-  O555  1  0.59300921  0.42531611  0.02862909  1
  O2-  O556  1  0.58040862  0.41902763  0.33757853  1
  O2-  O557  1  0.60066942  0.43146705  0.68520352  1
  O2-  O558  1  0.60266358  0.67953366  0.02165299  1
  O2-  O559  1  0.46206023  0.57928776  0.38487731  1
  O2-  O560  1  0.59763000  0.67778953  0.68178023  1
  O2-  O561  1  0.56202645  0.92327943  0.02719137  1
  O2-  O562  1  0.58071391  0.91746100  0.34840204  1
  O2-  O563  1  0.58729341  0.91341681  0.66018094  1
  O2-  O564  1  0.82692656  0.16510409  0.02495081  1
  O2-  O565  1  0.81708660  0.16743557  0.34731686  1
  O2-  O566  1  0.83570179  0.17134777  0.69013872  1
  O2-  O567  1  0.83688901  0.41785457  0.02042346  1
  O2-  O568  1  0.82843661  0.42119555  0.34660581  1
  O2-  O569  1  0.83518556  0.42195642  0.69332375  1
  O2-  O570  1  0.84454773  0.67883389  0.02107112  1
  O2-  O571  1  0.83408866  0.66034036  0.35665830  1
  O2-  O572  1  0.84072358  0.66719376  0.66767030  1
  O2-  O573  1  0.83691924  0.92258872  0.02513583  1
  O2-  O574  1  0.84550291  0.92573334  0.35147229  1
  O2-  O575  1  0.82957850  0.90550691  0.67273563  1
