# generated using pymatgen
data_H2O
_symmetry_space_group_name_H-M   'P 1'
_cell_length_a   17.98110708
_cell_length_b   17.98512564
_cell_length_c   22.01588367
_cell_angle_alpha   89.98773414
_cell_angle_beta   90.04320606
_cell_angle_gamma   120.00135639
_symmetry_Int_Tables_number   1
_chemical_formula_structural   H2O
_chemical_formula_sum   'H384 O192'
_cell_volume   6165.81641746
_cell_formula_units_Z   192
loop_
 _symmetry_equiv_pos_site_id
 _symmetry_equiv_pos_as_xyz
  1  'x, y, z'
loop_
 _atom_type_symbol
 _atom_type_oxidation_number
  H+  1.0
  O2-  -2.0
loop_
 _atom_site_type_symbol
 _atom_site_label
 _atom_site_symmetry_multiplicity
 _atom_site_fract_x
 _atom_site_fract_y
 _atom_site_fract_z
 _atom_site_occupancy
  H+  H0  1  0.39571597  0.26337386  0.65525211  1
  H+  H1  1  0.18497042  0.84856137  0.55994381  1
  H+  H2  1  0.88133581  0.60279202  0.18409997  1
  H+  H3  1  0.86624567  0.88581540  0.33810667  1
  H+  H4  1  0.71623158  0.37167529  0.58441373  1
  H+  H5  1  0.74331223  0.67090208  0.01706994  1
  H+  H6  1  0.89757643  0.36577683  0.49685966  1
  H+  H7  1  0.85584426  0.87279016  0.49578970  1
  H+  H8  1  0.97928952  0.86102495  0.84667095  1
  H+  H9  1  0.12002731  0.22749797  0.46971989  1
  H+  H10  1  0.88058269  0.10909437  0.32968018  1
  H+  H11  1  0.12176040  0.84528565  0.31895325  1
  H+  H12  1  0.87495716  0.34055765  0.81385609  1
  H+  H13  1  0.26867511  0.12271552  0.15181240  1
  H+  H14  1  0.11659407  0.72906430  0.82651041  1
  H+  H15  1  0.14722615  0.52928677  0.50417869  1
  H+  H16  1  0.43105102  0.41385391  0.18606577  1
  H+  H17  1  0.94564808  0.84079746  0.65596614  1
  H+  H18  1  0.12735735  0.73077557  0.49313204  1
  H+  H19  1  0.09246040  0.66630974  0.43617604  1
  H+  H20  1  0.68649716  0.85672124  0.67425700  1
  H+  H21  1  0.22756154  0.86260892  0.84808584  1
  H+  H22  1  0.22938717  0.61743494  0.32575500  1
  H+  H23  1  0.62630131  0.72965827  0.34149563  1
  H+  H24  1  0.75453305  0.15252228  0.00242036  1
  H+  H25  1  0.77677872  0.89851172  0.60608859  1
  H+  H26  1  0.36739063  0.65000849  0.83340772  1
  H+  H27  1  0.09295606  0.86750008  0.00683575  1
  H+  H28  1  0.64552144  0.11783550  0.47710537  1
  H+  H29  1  0.12373287  0.47239940  0.16164017  1
  H+  H30  1  0.99191290  0.83435560  0.47726006  1
  H+  H31  1  0.02394726  0.88893602  0.33836220  1
  H+  H32  1  0.42049854  0.83961215  0.93669223  1
  H+  H33  1  0.85595663  0.38227220  0.02832964  1
  H+  H34  1  0.37287014  0.11333615  0.31038853  1
  H+  H35  1  0.63390210  0.37315738  0.31911992  1
  H+  H36  1  0.85132596  0.37512465  0.33950503  1
  H+  H37  1  0.37697770  0.05040523  0.57791999  1
  H+  H38  1  0.61538260  0.14537781  0.16467615  1
  H+  H39  1  0.97230457  0.86460475  1.00139142  1
  H+  H40  1  0.64746207  0.03475908  0.49550093  1
  H+  H41  1  1.01787237  0.38454181  0.33074976  1
  H+  H42  1  0.87697648  0.01367840  0.84586507  1
  H+  H43  1  0.52364237  0.38184349  0.67044036  1
  H+  H44  1  0.87629921  0.75998834  0.17533529  1
  H+  H45  1  0.47234576  0.90341257  0.66960737  1
  H+  H46  1  0.98186929  0.60093567  0.32922940  1
  H+  H47  1  0.63726789  0.75985840  0.99329554  1
  H+  H48  1  0.56550328  0.50984531  0.20149367  1
  H+  H49  1  0.62102741  0.61193160  0.65976634  1
  H+  H50  1  0.62358190  0.46018225  0.50200750  1
  H+  H51  1  0.26486318  0.12540592  0.00156558  1
  H+  H52  1  0.64034250  0.09722189  0.36648056  1
  H+  H53  1  0.87629872  0.84772875  0.17152179  1
  H+  H54  1  0.36072342  0.72419797  0.00195566  1
  H+  H55  1  0.67609676  0.12844974  0.67547448  1
  H+  H56  1  0.27711170  0.38785018  0.33746013  1
  H+  H57  1  0.62836379  0.90374979  0.50397272  1
  H+  H58  1  0.98375331  0.37499596  0.65197040  1
  H+  H59  1  0.47041903  0.62422214  0.17328887  1
  H+  H60  1  0.76022063  0.12015408  0.84149323  1
  H+  H61  1  0.42595467  0.87948387  0.60521690  1
  H+  H62  1  0.38218497  0.98449544  0.49331446  1
  H+  H63  1  0.86196350  0.96919893  0.15678856  1
  H+  H64  1  0.89595198  0.98843505  0.48800551  1
  H+  H65  1  0.66204698  0.80993757  0.52661126  1
  H+  H66  1  0.15091689  0.61928695  0.50610267  1
  H+  H67  1  0.17681810  0.59222022  0.59931582  1
  H+  H68  1  0.83194705  0.87561478  0.65029354  1
  H+  H69  1  0.12697244  0.49107274  0.67335440  1
  H+  H70  1  0.75709330  0.12873338  0.15775825  1
  H+  H71  1  0.60338321  0.15499817  0.29592517  1
  H+  H72  1  0.37882439  0.35396026  0.00033766  1
  H+  H73  1  0.66454002  0.49179558  0.80975988  1
  H+  H74  1  0.14235681  0.61921343  0.65890201  1
  H+  H75  1  0.79222968  0.39433951  0.50051269  1
  H+  H76  1  0.39570694  0.12006556  0.82504373  1
  H+  H77  1  0.39110107  0.36702428  0.32982666  1
  H+  H78  1  0.28179396  0.14123731  0.65786396  1
  H+  H79  1  0.35264845  0.11274371  0.65627284  1
  H+  H80  1  0.11089181  0.89247622  0.67276080  1
  H+  H81  1  0.29242264  0.38973316  0.16593520  1
  H+  H82  1  0.24869106  0.86881488  0.50371073  1
  H+  H83  1  0.61130839  0.59240985  0.84181277  1
  H+  H84  1  0.38572090  0.48653377  0.48481113  1
  H+  H85  1  0.38701463  0.34825742  0.66088548  1
  H+  H86  1  0.97685206  0.12772288  0.99171669  1
  H+  H87  1  0.83258846  0.34503712  0.17993562  1
  H+  H88  1  0.15402916  0.26914723  0.17716462  1
  H+  H89  1  0.86508589  0.63262800  0.49886579  1
  H+  H90  1  0.37916305  0.50220795  0.64981472  1
  H+  H91  1  0.86844310  0.72479250  0.84180691  1
  H+  H92  1  0.11802293  -0.02307335  0.82848395  1
  H+  H93  1  0.09665276  0.71183760  0.67277055  1
  H+  H94  1  0.88290210  0.26752040  0.32914442  1
  H+  H95  1  0.84021242  0.16577646  0.40167791  1
  H+  H96  1  0.63613250  0.85838346  0.83951806  1
  H+  H97  1  0.22085704  0.86570441  0.66991103  1
  H+  H98  1  0.88404113  0.28195545  0.99972807  1
  H+  H99  1  0.37021292  0.48633077  0.16151581  1
  H+  H100  1  0.14617765  0.06088718  0.63293557  1
  H+  H101  1  0.13471393  0.84574377  0.16786515  1
  H+  H102  1  0.67773144  0.27558920  0.68844911  1
  H+  H103  1  0.11696625  0.12667056  0.15602557  1
  H+  H104  1  0.46626277  0.12390417  0.30351146  1
  H+  H105  1  0.42007150  0.58659319  0.93651095  1
  H+  H106  1  0.66125630  0.53862686  1.01288451  1
  H+  H107  1  0.14679839  0.36168996  0.99897386  1
  H+  H108  1  0.63667827  0.11731926  0.84113629  1
  H+  H109  1  0.02041242  0.38123278  0.81684596  1
  H+  H110  1  0.60410649  0.03495239  1.00475383  1
  H+  H111  1  0.51109234  0.10413927  0.45161441  1
  H+  H112  1  0.77480929  0.36649125  0.83109416  1
  H+  H113  1  0.16525400  1.00478046  0.47729173  1
  H+  H114  1  0.10632208  0.47397780  0.82714720  1
  H+  H115  1  0.02891058  0.39057333  0.48510302  1
  H+  H116  1  0.65126502  0.08683866  0.90541119  1
  H+  H117  1  0.27669893  0.12320151  0.80727927  1
  H+  H118  1  0.41227584  0.62294592  0.49570050  1
  H+  H119  1  0.12019983  0.22650476  1.00395225  1
  H+  H120  1  0.36633218  0.98162167  0.82889306  1
  H+  H121  1  0.37738882  0.89389298  1.01901810  1
  H+  H122  1  0.46216296  0.34740557  0.83929149  1
  H+  H123  1  -0.01643362  0.11073373  0.49368555  1
  H+  H124  1  0.56738453  0.49621163  0.86402379  1
  H+  H125  1  0.62024140  0.40760640  0.12233429  1
  H+  H126  1  0.74018086  0.60596622  0.16869605  1
  H+  H127  1  0.88899651  0.13071790  0.98880078  1
  H+  H128  1  0.26767733  0.86115696  0.17115370  1
  H+  H129  1  0.59670026  0.88613093  0.07253138  1
  H+  H130  1  0.60577263  0.56472476  0.50858082  1
  H+  H131  1  0.75432083  0.63161445  0.68473972  1
  H+  H132  1  0.59066762  0.84878390  0.68434803  1
  H+  H133  1  0.10514081  0.12525227  0.32635343  1
  H+  H134  1  0.48981989  0.89301022  0.19411100  1
  H+  H135  1  0.16167511  0.13583819  0.48862820  1
  H+  H136  1  0.86875190  0.88487866  1.00475400  1
  H+  H137  1  0.78250011  0.63453701  0.84922779  1
  H+  H138  1  0.36896412  0.53314864  0.32104041  1
  H+  H139  1  0.87029516  0.78578256  0.00489954  1
  H+  H140  1  0.60041409  0.64192301  0.16174807  1
  H+  H141  1  0.71127289  0.45520850  0.76250688  1
  H+  H142  1  0.12634195  0.26295336  0.32995669  1
  H+  H143  1  0.24150689  0.37166857  0.46814796  1
  H+  H144  1  0.83479034  0.41673950  0.43358096  1
  H+  H145  1  0.14300188  0.52347945  0.32078724  1
  H+  H146  1  0.27710421  0.63958927  0.67205742  1
  H+  H147  1  0.13817081  0.86122626  0.84289521  1
  H+  H148  1  0.89301634  0.48962344  0.98034600  1
  H+  H149  1  0.62039917  0.88549785  0.34245407  1
  H+  H150  1  0.48148310  0.85800497  0.33555623  1
  H+  H151  1  0.03800109  0.38716426  0.01891870  1
  H+  H152  1  0.59506179  0.19343789  0.66644000  1
  H+  H153  1  0.86311123  0.97466233  0.33867661  1
  H+  H154  1  0.41343534  0.39796860  0.84658984  1
  H+  H155  1  1.00998054  0.11789637  0.82405939  1
  H+  H156  1  0.66457749  0.39425465  0.66892360  1
  H+  H157  1  -0.03361787  0.11198907  0.65004022  1
  H+  H158  1  0.63745570  0.01682760  0.33797999  1
  H+  H159  1  0.67440029  0.96786613  0.04777755  1
  H+  H160  1  0.12643499  0.10313808  -0.00443077  1
  H+  H161  1  0.77486769  0.13301902  0.34536856  1
  H+  H162  1  0.76693755  0.38400821  0.33408940  1
  H+  H163  1  0.38205393  0.87159026  0.18673391  1
  H+  H164  1  0.76673878  0.88842946  0.15931560  1
  H+  H165  1  0.53315289  0.11433184  0.99196092  1
  H+  H166  1  0.77657449  0.88523728  0.82878221  1
  H+  H167  1  0.53499239  0.89328452  0.49681581  1
  H+  H168  1  0.85282521  0.59722544  0.02558736  1
  H+  H169  1  0.47848773  0.85776935  0.99560488  1
  H+  H170  1  0.65610199  0.69034133  0.50838456  1
  H+  H171  1  0.27255707  0.37617389  0.67250280  1
  H+  H172  1  0.16230779  0.33936208  0.61074452  1
  H+  H173  1  0.88149034  0.77605092  0.33525259  1
  H+  H174  1  0.10483414  0.62140463  0.15696222  1
  H+  H175  1  0.89805509  0.52728211  0.50284829  1
  H+  H176  1  0.40183180  0.14167549  0.48938339  1
  H+  H177  1  0.24274410  0.94479517  0.62991422  1
  H+  H178  1  0.16265087  0.91409356  0.47766505  1
  H+  H179  1  0.38235914  0.89943803  0.34354088  1
  H+  H180  1  0.86437132  0.13289665  0.48902914  1
  H+  H181  1  0.83226257  0.74780004  0.51241398  1
  H+  H182  1  0.88999766  0.51413935  0.32727829  1
  H+  H183  1  0.98948363  0.57157162  0.97962558  1
  H+  H184  1  0.02159848  0.87432181  0.16222525  1
  H+  H185  1  0.90782841  0.08474762  0.26702715  1
  H+  H186  1  0.64856232  0.85424257  0.99045680  1
  H+  H187  1  0.73229779  0.86495186  0.32705768  1
  H+  H188  1  0.11986771  0.39483640  0.47262188  1
  H+  H189  1  0.00275006  0.84844227  0.50974671  1
  H+  H190  1  0.89596511  0.27512523  0.49713750  1
  H+  H191  1  0.82617589  0.90700986  0.06728970  1
  H+  H192  1  0.29760938  0.87276127  0.75005796  1
  H+  H193  1  0.87333694  0.52023762  0.66658687  1
  H+  H194  1  0.64952961  0.57039808  0.94365404  1
  H+  H195  1  0.77118203  0.64540028  0.34598696  1
  H+  H196  1  0.17797652  0.33956434  0.41256037  1
  H+  H197  1  0.66465346  0.39217346  0.00986353  1
  H+  H198  1  0.88393925  0.13279491  0.16786494  1
  H+  H199  1  0.10343671  0.23713655  0.68010837  1
  H+  H200  1  0.08299710  0.66575949  0.76731631  1
  H+  H201  1  0.07781057  0.41888292  0.39002217  1
  H+  H202  1  0.40173166  0.77980820  0.50921611  1
  H+  H203  1  0.13157465  1.01751086  0.31624351  1
  H+  H204  1  0.76585328  0.86920925  0.00389497  1
  H+  H205  1  0.38554004  0.53970685  0.83979412  1
  H+  H206  1  0.01618340  0.62347691  0.15977803  1
  H+  H207  1  0.83913609  0.21743825  0.15099212  1
  H+  H208  1  0.38634247  0.61324980  -0.00523971  1
  H+  H209  1  0.50737688  0.62600053  0.67077878  1
  H+  H210  1  0.25770137  0.14947400  0.49066968  1
  H+  H211  1  0.58905748  0.72155664  0.67748117  1
  H+  H212  1  0.86669687  0.88893390  0.83377544  1
  H+  H213  1  0.62075832  0.52562518  0.14614177  1
  H+  H214  1  0.14293691  0.38089411  0.66825865  1
  H+  H215  1  0.22125268  0.60969955  0.16545682  1
  H+  H216  1  0.36742147  0.89394809  0.83982343  1
  H+  H217  1  0.40066456  0.27767506  0.50255448  1
  H+  H218  1  0.59515513  0.42151234  0.72537279  1
  H+  H219  1  0.66088236  0.36956500  0.84335814  1
  H+  H220  1  0.40123265  0.86837653  0.50439023  1
  H+  H221  1  0.09179139  0.42800900  0.73234557  1
  H+  H222  1  0.53300353  0.14410025  0.82051520  1
  H+  H223  1  0.11305576  0.62469980  0.00640407  1
  H+  H224  1  0.27256436  0.63282510  0.99942618  1
  H+  H225  1  0.47769710  0.36223901  0.33818427  1
  H+  H226  1  0.13489926  0.61283005  0.84036908  1
  H+  H227  1  0.62337688  0.52279532  0.65982288  1
  H+  H228  1  0.13484991  0.01077758  0.16749282  1
  H+  H229  1  0.91252185  0.82929058  0.27235438  1
  H+  H230  1  0.40289050  0.98616544  0.04273457  1
  H+  H231  1  0.47998670  0.62286757  0.84063566  1
  H+  H232  1  0.12576692  0.11041984  0.83495698  1
  H+  H233  1  0.38137474  0.11217088  0.98485177  1
  H+  H234  1  0.37895574  0.39379345  0.48839331  1
  H+  H235  1  0.61361201  0.72226530  0.82398923  1
  H+  H236  1  0.85503829  0.60916484  0.99263520  1
  H+  H237  1  0.14366532  0.51668176  0.99560177  1
  H+  H238  1  0.38664936  -0.00072833  0.63351677  1
  H+  H239  1  0.76897939  0.61643779  0.49762587  1
  H+  H240  1  0.01545223  0.61569655  0.67436396  1
  H+  H241  1  0.62868387  1.02238588  0.18054963  1
  H+  H242  1  0.06861208  0.14986360  0.76375806  1
  H+  H243  1  0.35318007  0.21788488  0.00117203  1
  H+  H244  1  0.63829329  0.61482705  0.33533504  1
  H+  H245  1  0.35660578  0.22651081  0.33330848  1
  H+  H246  1  0.35890059  0.61597898  0.32183088  1
  H+  H247  1  0.53342377  0.37573787  0.50000238  1
  H+  H248  1  0.11522883  0.63039143  0.34084485  1
  H+  H249  1  -0.00854308  0.62158156  0.83850131  1
  H+  H250  1  0.63754135  0.88018442  0.17765684  1
  H+  H251  1  0.38117965  0.77111286  0.33758286  1
  H+  H252  1  0.13848621  0.36674454  0.84597391  1
  H+  H253  1  0.71433986  0.37703190  0.16357010  1
  H+  H254  1  0.47983821  0.12882906  0.16337292  1
  H+  H255  1  0.26128178  0.40601787  0.82623356  1
  H+  H256  1  0.65039620  0.03247599  0.68346744  1
  H+  H257  1  0.11414455  0.15789860  0.66647168  1
  H+  H258  1  0.21843836  0.11003388  0.31804677  1
  H+  H259  1  0.10869380  0.75268186  -0.00586004  1
  H+  H260  1  0.37375874  0.71549459  0.66982038  1
  H+  H261  1  0.55646773  0.66503876  0.50108018  1
  H+  H262  1  0.10649730  0.71523596  0.34010622  1
  H+  H263  1  0.76703213  0.38455098  0.01597221  1
  H+  H264  1  0.77489740  0.25197616  0.20734044  1
  H+  H265  1  0.51822973  0.63919498  0.00769992  1
  H+  H266  1  0.60863962  0.24610002  0.30734218  1
  H+  H267  1  0.88475801  0.24042767  0.67374085  1
  H+  H268  1  0.85764735  0.10948099  0.84038101  1
  H+  H269  1  0.85691024  0.47893873  0.17005688  1
  H+  H270  1  0.48284599  0.86901139  0.84880533  1
  H+  H271  1  0.66214060  0.36582616  0.52542417  1
  H+  H272  1  0.98480349  0.61742772  0.50762778  1
  H+  H273  1  0.36869127  0.47747104  0.01026738  1
  H+  H274  1  0.61133072  -0.02824214  0.83366871  1
  H+  H275  1  0.64250822  0.27391876  0.85211071  1
  H+  H276  1  0.13410487  0.38878998  0.16275954  1
  H+  H277  1  0.85321994  0.20335834  0.81725829  1
  H+  H278  1  0.37603278  0.12722222  0.15505373  1
  H+  H279  1  0.33322931  0.86126712  0.68717406  1
  H+  H280  1  0.12957821  0.75401971  0.16570564  1
  H+  H281  1  0.29512194  0.63965809  0.49401181  1
  H+  H282  1  0.06555604  0.94824373  0.68343036  1
  H+  H283  1  0.83026049  0.67411644  0.40537892  1
  H+  H284  1  0.37124442  0.58707553  0.65056639  1
  H+  H285  1  0.23596353  0.36243064  0.99898252  1
  H+  H286  1  0.89575228  0.61562102  0.85105128  1
  H+  H287  1  0.10154655  0.96251008  0.00904264  1
  H+  H288  1  0.02168016  0.26679610  0.57576951  1
  H+  H289  1  0.38963979  0.78288090  0.84718585  1
  H+  H290  1  0.91099143  0.08343919  0.90433124  1
  H+  H291  1  0.63210094  0.78689957  0.17097009  1
  H+  H292  1  0.57466811  0.65930411  0.76602487  1
  H+  H293  1  0.61329315  0.47696497  0.34886860  1
  H+  H294  1  0.85854622  0.92043439  0.42537536  1
  H+  H295  1  0.82569216  0.42493932  0.10673877  1
  H+  H296  1  0.59166318  0.41185283  0.40574503  1
  H+  H297  1  0.65315767  0.57366682  0.57283090  1
  H+  H298  1  0.45790372  0.38391510  0.24629832  1
  H+  H299  1  0.67651638  0.10383957  0.23734750  1
  H+  H300  1  0.67011745  0.34346040  0.95000587  1
  H+  H301  1  0.16391019  0.57345631  0.93404272  1
  H+  H302  1  0.96773534  0.18880461  0.20415338  1
  H+  H303  1  0.32101862  0.65995884  0.09499177  1
  H+  H304  1  0.19282280  0.12709826  0.58143939  1
  H+  H305  1  0.93212794  0.55946159  0.90247896  1
  H+  H306  1  0.41074441  0.09174086  0.22102493  1
  H+  H307  1  0.42200424  0.33239161  0.56479189  1
  H+  H308  1  0.42113118  0.33710006  0.94308693  1
  H+  H309  1  0.60909403  0.18621174  0.77007312  1
  H+  H310  1  0.92423761  0.07701127  0.55491662  1
  H+  H311  1  0.21560868  0.14838629  0.86977371  1
  H+  H312  1  0.81342982  0.16719690  0.05977314  1
  H+  H313  1  0.14838546  0.80746940  0.26310815  1
  H+  H314  1  0.65855421  0.57706552  0.27546430  1
  H+  H315  1  0.33072353  0.16156413  0.38858156  1
  H+  H316  1  0.01429159  0.12462669  0.33138363  1
  H+  H317  1  0.88043549  0.01922995  0.64015426  1
  H+  H318  1  0.61291975  0.68602765  0.40566836  1
  H+  H319  1  0.56676567  0.90356038  0.77536370  1
  H+  H320  1  0.84885340  0.80221282  0.57290815  1
  H+  H321  1  0.27991612  0.71207860  0.37958499  1
  H+  H322  1  0.14945717  0.06687920  0.93705453  1
  H+  H323  1  0.92680156  0.33934153  0.59323249  1
  H+  H324  1  0.33861887  0.15794818  0.75090834  1
  H+  H325  1  0.92834392  0.37248719  0.96304049  1
  H+  H326  1  0.22380996  0.61352126  0.84143215  1
  H+  H327  1  0.56521422  0.15204803  0.39288582  1
  H+  H328  1  0.17905655  0.32565330  0.23794516  1
  H+  H329  1  0.64844342  0.84693818  0.58786770  1
  H+  H330  1  0.66829225  0.82342498  0.89463273  1
  H+  H331  1  0.07579913  0.90251796  0.10093796  1
  H+  H332  1  0.92055490  0.57630367  0.24186610  1
  H+  H333  1  0.36745473  0.02092543  0.96820572  1
  H+  H334  1  0.81051328  0.40491395  0.76516976  1
  H+  H335  1  0.57983733  0.67804086  0.10203174  1
  H+  H336  1  0.48077655  0.13558673  0.53376702  1
  H+  H337  1  0.08722237  0.16618246  0.06259557  1
  H+  H338  1  0.33450684  0.41233224  0.72900619  1
  H+  H339  1  0.60446868  0.63289685  0.01088306  1
  H+  H340  1  0.76503822  0.57141697  0.11294562  1
  H+  H341  1  0.92018363  0.56410216  0.60304262  1
  H+  H342  1  0.16600543  0.07480798  0.22479477  1
  H+  H343  1  0.58722916  0.16255450  0.10005934  1
  H+  H344  1  0.12624914  0.35479038  0.32867985  1
  H+  H345  1  0.03355523  0.13803492  0.15702809  1
  H+  H346  1  0.90444302  0.30964536  0.87209739  1
  H+  H347  1  0.42381201  0.84341778  0.25396626  1
  H+  H348  1  0.67248753  0.83893512  0.26758493  1
  H+  H349  1  0.17933162  0.34479708  0.90388021  1
  H+  H350  1  0.89010786  0.31892238  0.26868096  1
  H+  H351  1  0.43195856  0.22467582  0.43891860  1
  H+  H352  1  0.85588160  0.75740550  0.66898438  1
  H+  H353  1  0.34411980  0.42583850  0.39241941  1
  H+  H354  1  0.04817069  0.25006295  0.56116442  1
  H+  H355  1  0.32684748  0.15543573  0.08976708  1
  H+  H356  1  0.08005043  0.91036994  0.77321011  1
  H+  H357  1  0.33664264  0.90213691  0.11662022  1
  H+  H358  1  0.62617222  0.28838714  0.16046881  1
  H+  H359  1  0.10441730  0.41784105  0.07378638  1
  H+  H360  1  0.81188111  0.14593372  0.68358535  1
  H+  H361  1  0.91843452  0.83399433  0.90540844  1
  H+  H362  1  0.79645437  0.69102514  0.07787187  1
  H+  H363  1  0.65832655  0.35346402  0.25221383  1
  H+  H364  1  0.77672681  0.13940451  0.48622159  1
  H+  H365  1  0.35404355  0.92793937  0.43299413  1
  H+  H366  1  0.10483847  0.92808257  0.38613420  1
  H+  H367  1  0.06917345  0.64366370  0.06327031  1
  H+  H368  1  0.34415891  0.67695297  0.43143858  1
  H+  H369  1  0.42613367  0.09717725  0.88732734  1
  H+  H370  1  0.16633746  0.58187789  0.22765418  1
  H+  H371  1  0.28945448  0.48001127  0.77764942  1
  H+  H372  1  0.34315932  0.42136714  0.07143743  1
  H+  H373  1  0.59253736  0.91494785  0.40381239  1
  H+  H374  1  0.37362823  0.98364692  0.33715255  1
  H+  H375  1  0.48611899  0.82170705  0.72529358  1
  H+  H376  1  0.43090301  0.58429512  0.55501900  1
  H+  H377  1  0.08263889  0.15537791  0.41989972  1
  H+  H378  1  0.14379153  0.81650191  0.93752871  1
  H+  H379  1  0.35044999  0.63367512  0.15503911  1
  H+  H380  1  0.81562578  0.66043139  0.74348683  1
  H+  H381  1  0.40342821  0.59119781  0.22935900  1
  H+  H382  1  0.56984565  0.95540881  0.12423657  1
  H+  H383  1  0.33579194  0.67539005  0.77335714  1
  O2-  O384  1  0.09312501  0.16413064  0.14228217  1
  O2-  O385  1  0.09004838  0.16379472  0.46523758  1
  O2-  O386  1  0.06806514  0.13719212  0.80785952  1
  O2-  O387  1  0.10047958  0.41306425  0.14482823  1
  O2-  O388  1  0.08875158  0.42699325  0.46772695  1
  O2-  O389  1  0.08336508  0.41576504  0.80883178  1
  O2-  O390  1  0.07397425  0.65102030  0.14006577  1
  O2-  O391  1  0.09517127  0.66871519  0.48192796  1
  O2-  O392  1  0.08407626  0.66718731  0.81301334  1
  O2-  O393  1  0.08113538  0.90444942  0.14647794  1
  O2-  O394  1  0.15482493  0.95529207  0.45225781  1
  O2-  O395  1  0.08523649  0.91539301  0.81837712  1
  O2-  O396  1  0.32914422  0.15491931  0.13568775  1
  O2-  O397  1  0.38049044  0.18855546  0.46289124  1
  O2-  O398  1  0.33730055  0.15993408  0.79626723  1
  O2-  O399  1  0.35037288  0.42573677  0.14792558  1
  O2-  O400  1  0.35174421  0.42566662  0.47061136  1
  O2-  O401  1  0.31357440  0.44938382  0.79918074  1
  O2-  O402  1  0.31601892  0.65919794  0.13978289  1
  O2-  O403  1  0.35411116  0.67100766  0.47707476  1
  O2-  O404  1  0.33401907  0.67739816  0.81833651  1
  O2-  O405  1  0.33081802  0.89536649  0.16157477  1
  O2-  O406  1  0.35283831  0.92408764  0.47934633  1
  O2-  O407  1  0.33157851  0.91791524  0.82417936  1
  O2-  O408  1  0.58364353  0.17185716  0.14382637  1
  O2-  O409  1  0.56545081  0.12133387  0.43012930  1
  O2-  O410  1  0.59684047  0.17456904  0.81432093  1
  O2-  O411  1  0.60925783  0.44785095  0.09759829  1
  O2-  O412  1  0.59414740  0.40077189  0.48564576  1
  O2-  O413  1  0.65895631  0.44055760  0.78912751  1
  O2-  O414  1  0.58157107  0.68284716  0.14733279  1
  O2-  O415  1  0.61726641  0.70634978  0.48887472  1
  O2-  O416  1  0.57864704  0.66031825  0.81156718  1
  O2-  O417  1  0.58853980  0.94856945  0.16439900  1
  O2-  O418  1  0.59470964  0.92408271  0.47979763  1
  O2-  O419  1  0.58076963  0.91010630  0.82285375  1
  O2-  O420  1  0.81607535  0.15730000  0.13625097  1
  O2-  O421  1  0.84023599  0.16809975  0.47342997  1
  O2-  O422  1  0.81871114  0.13911651  0.82322237  1
  O2-  O423  1  0.81888544  0.41946263  0.15228857  1
  O2-  O424  1  0.84858355  0.42279441  0.47778334  1
  O2-  O425  1  0.82536320  0.38582947  0.80405400  1
  O2-  O426  1  0.79090647  0.61880457  0.14367695  1
  O2-  O427  1  0.82822617  0.65690591  0.48468418  1
  O2-  O428  1  0.83913117  0.66182218  0.83021027  1
  O2-  O429  1  0.82680640  0.91030719  0.14220924  1
  O2-  O430  1  0.88227831  0.92865589  0.46874168  1
  O2-  O431  1  0.83900844  0.92192372  0.82053031  1
  O2-  O432  1  0.16679917  0.07317285  0.17901207  1
  O2-  O433  1  0.20016638  0.11728803  0.50875628  1
  O2-  O434  1  0.16882651  0.09381491  0.85489736  1
  O2-  O435  1  0.18515119  0.32878879  0.19330467  1
  O2-  O436  1  0.17890516  0.33954211  0.45742177  1
  O2-  O437  1  0.18008301  0.34868020  0.85857233  1
  O2-  O438  1  0.16024720  0.57670036  0.18251061  1
  O2-  O439  1  0.18013985  0.58799903  0.52204365  1
  O2-  O440  1  0.16277497  0.57991557  0.85489355  1
  O2-  O441  1  0.16266722  0.81361330  0.18293290  1
  O2-  O442  1  0.18640468  0.84012704  0.51566529  1
  O2-  O443  1  0.16473390  0.82742686  0.85755093  1
  O2-  O444  1  0.41712524  0.09855896  0.17474504  1
  O2-  O445  1  0.42691162  0.09700717  0.51327450  1
  O2-  O446  1  0.42833500  0.09276132  0.84235697  1
  O2-  O447  1  0.48064790  0.41712845  0.20836333  1
  O2-  O448  1  0.42585625  0.33762558  0.51950681  1
  O2-  O449  1  0.46016684  0.39174538  0.86359599  1
  O2-  O450  1  0.40876035  0.58816252  0.18380857  1
  O2-  O451  1  0.44448600  0.59389566  0.51089076  1
  O2-  O452  1  0.42045262  0.59785902  0.85824909  1
  O2-  O453  1  0.42813761  0.85347889  0.20650750  1
  O2-  O454  1  0.43088635  0.84017478  0.52431462  1
  O2-  O455  1  0.42140701  0.84218256  0.86434280  1
  O2-  O456  1  0.67003965  0.10109504  0.19307468  1
  O2-  O457  1  0.67918742  0.09825927  0.50070392  1
  O2-  O458  1  0.66144122  0.08398694  0.86174482  1
  O2-  O459  1  0.65109799  0.34920591  0.17298529  1
  O2-  O460  1  0.70443232  0.35135206  0.54203671  1
  O2-  O461  1  0.67483210  0.33293939  0.86953780  1
  O2-  O462  1  0.61999111  0.55903094  0.18286301  1
  O2-  O463  1  0.65607073  0.56661018  0.52680472  1
  O2-  O464  1  0.62408999  0.54907589  0.86050292  1
  O2-  O465  1  0.66838884  0.84800889  0.18548838  1
  O2-  O466  1  0.68017961  0.86465833  0.54827595  1
  O2-  O467  1  0.66648134  0.82564017  0.84966756  1
  O2-  O468  1  0.93137917  0.12943986  0.19078780  1
  O2-  O469  1  0.92288815  0.07478205  0.50743726  1
  O2-  O470  1  0.90447105  0.07754934  0.85808229  1
  O2-  O471  1  0.83480138  0.29416678  0.19843947  1
  O2-  O472  1  0.92992986  0.33644087  0.51009506  1
  O2-  O473  1  0.90917878  0.31068553  0.82806278  1
  O2-  O474  1  0.91608732  0.57631581  0.19457824  1
  O2-  O475  1  0.92361645  0.58620098  0.52109110  1
  O2-  O476  1  0.93089850  0.58658246  0.85691220  1
  O2-  O477  1  0.90783183  0.82013873  0.18813562  1
  O2-  O478  1  0.82269331  0.79295983  0.53145306  1
  O2-  O479  1  0.91822132  0.82856298  0.86025568  1
  O2-  O480  1  0.15909352  0.07899809  0.30064440  1
  O2-  O481  1  0.18438977  0.12222549  0.62728446  1
  O2-  O482  1  0.15344389  0.06841022  0.98197932  1
  O2-  O483  1  0.16266036  0.32672952  0.32435833  1
  O2-  O484  1  0.16987818  0.34439258  0.65465736  1
  O2-  O485  1  0.17609923  0.33119500  0.98192503  1
  O2-  O486  1  0.17058446  0.58374390  0.30629572  1
  O2-  O487  1  0.17818978  0.59416160  0.64507761  1
  O2-  O488  1  0.16910557  0.57674530  0.97923848  1
  O2-  O489  1  0.14297139  0.80580983  0.30793581  1
  O2-  O490  1  0.19217634  0.88845368  0.64073652  1
  O2-  O491  1  0.13236655  0.81350833  0.98175778  1
  O2-  O492  1  0.40462470  0.08603230  0.29232075  1
  O2-  O493  1  0.35479576  0.02789876  0.62019819  1
  O2-  O494  1  0.41118979  0.08192856  0.96693329  1
  O2-  O495  1  0.41953800  0.33313417  0.31890077  1
  O2-  O496  1  0.42278736  0.32524821  0.64344611  1
  O2-  O497  1  0.40060925  0.31649238  0.98426563  1
  O2-  O498  1  0.38992728  0.59035575  0.30273345  1
  O2-  O499  1  0.40528120  0.56229534  0.63397741  1
  O2-  O500  1  0.41922989  0.58404756  0.98181255  1
  O2-  O501  1  0.42214881  0.83383289  0.31928055  1
  O2-  O502  1  0.42681600  0.90664763  0.64447336  1
  O2-  O503  1  0.41914903  0.83604455  0.98303586  1
  O2-  O504  1  0.66420877  0.08128467  0.33204787  1
  O2-  O505  1  0.69225882  0.08560995  0.66397136  1
  O2-  O506  1  0.63222884  0.09381212  0.98843745  1
  O2-  O507  1  0.66297387  0.34582444  0.29689059  1
  O2-  O508  1  0.71306749  0.38177602  0.66918864  1
  O2-  O509  1  0.67343244  0.34493471  0.99507302  1
  O2-  O510  1  0.66326568  0.57800095  0.31985985  1
  O2-  O511  1  0.65321653  0.58353905  0.64437994  1
  O2-  O512  1  0.65625700  0.58493768  0.98730760  1
  O2-  O513  1  0.67144358  0.83557178  0.31258288  1
  O2-  O514  1  0.62505605  0.82216089  0.66356615  1
  O2-  O515  1  0.67531640  0.82096111  0.97628376  1
  O2-  O516  1  0.90816987  0.07674736  0.31154615  1
  O2-  O517  1  0.92007141  0.07572176  0.62147354  1
  O2-  O518  1  0.91731617  0.09896223  0.97515316  1
  O2-  O519  1  0.90824079  0.32702906  0.31208107  1
  O2-  O520  1  0.92383501  0.34265289  0.63797755  1
  O2-  O521  1  0.92524980  0.34547478  1.00204209  1
  O2-  O522  1  0.92389916  0.57248094  0.30970195  1
  O2-  O523  1  0.92950217  0.55672668  0.64647354  1
  O2-  O524  1  0.94319269  0.52606920  0.95283361  1
  O2-  O525  1  0.91494902  0.83698554  0.31690185  1
  O2-  O526  1  0.88426661  0.81479622  0.64659767  1
  O2-  O527  1  0.91195135  0.84210236  0.98375794  1
  O2-  O528  1  0.08419771  0.16496979  0.01734637  1
  O2-  O529  1  0.07592547  0.15571155  0.34442028  1
  O2-  O530  1  0.07615176  0.17434981  0.68755557  1
  O2-  O531  1  0.10044046  0.41707914  0.02715977  1
  O2-  O532  1  0.07880518  0.41220051  0.34478038  1
  O2-  O533  1  0.09752843  0.42979410  0.68694829  1
  O2-  O534  1  0.07164577  0.64426251  0.01757761  1
  O2-  O535  1  0.08329043  0.65645348  0.35993356  1
  O2-  O536  1  0.07744267  0.65558438  0.69075944  1
  O2-  O537  1  0.06726118  0.90258971  0.02477713  1
  O2-  O538  1  0.08769362  0.92028899  0.34205832  1
  O2-  O539  1  0.06184892  0.89417117  0.69457717  1
  O2-  O540  1  0.32625790  0.15520594  0.01456918  1
  O2-  O541  1  0.32300767  0.16360487  0.34382968  1
  O2-  O542  1  0.33978053  0.15650615  0.67355090  1
  O2-  O543  1  0.33839452  0.41740035  0.02582714  1
  O2-  O544  1  0.33905682  0.42292776  0.34715664  1
  O2-  O545  1  0.33446628  0.40146361  0.68467999  1
  O2-  O546  1  0.33352358  0.66310717  0.01445428  1
  O2-  O547  1  0.31692208  0.69042742  0.36505107  1
  O2-  O548  1  0.33663442  0.66025794  0.68919752  1
  O2-  O549  1  0.35483274  0.92768658  0.03997262  1
  O2-  O550  1  0.35633048  0.93181181  0.36169129  1
  O2-  O551  1  0.27901624  0.84187953  0.71065305  1
  O2-  O552  1  0.58453628  0.13110358  0.01785814  1
  O2-  O553  1  0.57351550  0.18150169  0.31534399  1
  O2-  O554  1  0.64232328  0.21195851  0.69507787  1
  O2-  O555  1  0.68382841  0.48738536  0.05663907  1
  O2-  O556  1  0.58470305  0.41475971  0.36095376  1
  O2-  O557  1  0.58561005  0.42142041  0.68071090  1
  O2-  O558  1  0.57948500  0.67007063  0.02308128  1
  O2-  O559  1  0.60439498  0.67327836  0.36184783  1
  O2-  O560  1  0.56604507  0.65878903  0.68852305  1
  O2-  O561  1  0.61773507  0.92122467  0.03567798  1
  O2-  O562  1  0.58994993  0.91542102  0.35809770  1
  O2-  O563  1  0.53445477  0.87716426  0.71352649  1
  O2-  O564  1  0.81504676  0.17573550  0.01456584  1
  O2-  O565  1  0.83754608  0.16381113  0.35522894  1
  O2-  O566  1  0.87073806  0.18747426  0.69667179  1
  O2-  O567  1  0.82939533  0.41882299  0.03208838  1
  O2-  O568  1  0.82345726  0.40766403  0.35456198  1
  O2-  O569  1  0.77549305  0.44889136  0.71112697  1
  O2-  O570  1  0.78864980  0.71896332  0.04187471  1
  O2-  O571  1  0.82972532  0.68539798  0.36132984  1
  O2-  O572  1  0.81443045  0.66589236  0.69915341  1
  O2-  O573  1  0.82715504  0.90744195  0.02127833  1
  O2-  O574  1  0.83533009  0.91533180  0.35615598  1
  O2-  O575  1  0.80273169  0.91009312  0.64704393  1
