# generated using pymatgen
data_H2O
_symmetry_space_group_name_H-M   'P 1'
_cell_length_a   17.99488580
_cell_length_b   17.99312441
_cell_length_c   22.00450763
_cell_angle_alpha   89.98657554
_cell_angle_beta   89.99153096
_cell_angle_gamma   119.96267120
_symmetry_Int_Tables_number   1
_chemical_formula_structural   H2O
_chemical_formula_sum   'H384 O192'
_cell_volume   6172.50100429
_cell_formula_units_Z   192
loop_
 _symmetry_equiv_pos_site_id
 _symmetry_equiv_pos_as_xyz
  1  'x, y, z'
loop_
 _atom_type_symbol
 _atom_type_oxidation_number
  H+  1.0
  O2-  -2.0
loop_
 _atom_site_type_symbol
 _atom_site_label
 _atom_site_symmetry_multiplicity
 _atom_site_fract_x
 _atom_site_fract_y
 _atom_site_fract_z
 _atom_site_occupancy
  H+  H0  1  0.38741520  0.35644872  0.70586334  1
  H+  H1  1  0.91408572  0.10791094  0.99522900  1
  H+  H2  1  0.27818574  0.13655308  0.53474164  1
  H+  H3  1  0.85700246  0.21370341  0.14742714  1
  H+  H4  1  0.97905203  0.36463359  0.33227194  1
  H+  H5  1  0.82922723  0.92286335  0.45889190  1
  H+  H6  1  0.61314542  0.39718554  0.33674383  1
  H+  H7  1  0.11496159  0.72318941  0.70262055  1
  H+  H8  1  -0.02326597  0.85937445  0.85013902  1
  H+  H9  1  0.86029365  0.96725111  -0.00119335  1
  H+  H10  1  0.10681393  0.38268411  0.33575254  1
  H+  H11  1  0.25551835  0.25007960  0.90789144  1
  H+  H12  1  0.10288948  0.15624382  0.68595069  1
  H+  H13  1  0.65160915  0.52626613  0.51417359  1
  H+  H14  1  0.57975104  0.66654530  0.09721518  1
  H+  H15  1  0.79641222  0.38935034  0.83094113  1
  H+  H16  1  0.60954225  -0.01711553  0.68185305  1
  H+  H17  1  0.38508110  0.61366900  0.65478214  1
  H+  H18  1  0.27628637  0.90124030  0.81426338  1
  H+  H19  1  0.00416835  -0.03602296  0.54783821  1
  H+  H20  1  0.76469844  0.12874607  0.16060137  1
  H+  H21  1  0.59856786  0.87450085  0.83075782  1
  H+  H22  1  0.75245417  0.39088084  0.99020496  1
  H+  H23  1  0.31843235  0.12218733  -0.00638506  1
  H+  H24  1  1.02716793  0.87758117  0.15722678  1
  H+  H25  1  0.61897531  0.73278093  0.00238051  1
  H+  H26  1  0.35214855  0.93368149  0.09912845  1
  H+  H27  1  0.52166380  0.05878146  0.10553568  1
  H+  H28  1  0.89935840  0.54272466  0.17622263  1
  H+  H29  1  0.85736398  0.71955319  0.34504755  1
  H+  H30  1  0.64897328  0.36018091  0.51671870  1
  H+  H31  1  0.27922256  0.87809662  0.50848126  1
  H+  H32  1  0.52885402  0.13752676  0.34504419  1
  H+  H33  1  0.21996071  0.38637428  -0.01825541  1
  H+  H34  1  0.37580161  0.86027785  0.00227168  1
  H+  H35  1  0.38117437  0.52795621  0.32270478  1
  H+  H36  1  0.63999731  0.24025496  0.83381820  1
  H+  H37  1  0.86249913  0.97990961  0.15444565  1
  H+  H38  1  0.38826533  0.77471147  0.16723146  1
  H+  H39  1  0.38547339  0.61799900  0.32350214  1
  H+  H40  1  0.14014528  0.28321871  0.68623015  1
  H+  H41  1  0.63930945  0.27906668  0.33075538  1
  H+  H42  1  0.48468378  0.36231424  0.18044307  1
  H+  H43  1  0.27777961  0.64390389  0.15192460  1
  H+  H44  1  0.90794246  0.52707856  -0.02489110  1
  H+  H45  1  0.41440702  0.15194832  0.49089396  1
  H+  H46  1  0.85667892  1.00670651  0.67734444  1
  H+  H47  1  0.13065324  0.60951153  0.33305667  1
  H+  H48  1  0.72380776  0.88502860  0.52863881  1
  H+  H49  1  0.85597936  0.96210033  0.36407804  1
  H+  H50  1  0.72379470  0.86097404  0.99208263  1
  H+  H51  1  0.67813544  0.59047492  0.90032711  1
  H+  H52  1  0.61662221  0.49051216  0.15822519  1
  H+  H53  1  0.60559792  0.72432834  0.34784553  1
  H+  H54  1  0.89906785  0.51569827  0.83000804  1
  H+  H55  1  0.53526371  0.38765610  0.55509141  1
  H+  H56  1  0.63519679  0.61553857  0.99320840  1
  H+  H57  1  0.67385239  0.10966489  0.98854726  1
  H+  H58  1  0.83034507  0.65497692  0.66970171  1
  H+  H59  1  0.61955058  0.11303025  0.66537321  1
  H+  H60  1  0.58628933  0.17310685  0.40510726  1
  H+  H61  1  0.26086860  0.10323576  0.51008684  1
  H+  H62  1  0.36928747  0.64176324  0.81835554  1
  H+  H63  1  0.08280313  0.17337470  0.78782470  1
  H+  H64  1  0.92200965  0.83959024  0.09927009  1
  H+  H65  1  0.37971466  0.90035967  0.15958289  1
  H+  H66  1  0.22721787  0.85498944  0.33330030  1
  H+  H67  1  0.78892814  0.63538904  0.83128049  1
  H+  H68  1  0.67279865  0.29695479  0.98948225  1
  H+  H69  1  0.90896442  0.27831819  0.00860233  1
  H+  H70  1  0.24616066  0.63060452  0.51590517  1
  H+  H71  1  0.26513571  0.17068065  -0.01397324  1
  H+  H72  1  0.88591399  0.31251676  0.81662181  1
  H+  H73  1  0.09893666  0.02128653  0.99935007  1
  H+  H74  1  0.07764818  0.45486703  0.48175414  1
  H+  H75  1  0.76597287  0.87579522  0.35882553  1
  H+  H76  1  0.08186298  0.66237536  0.40546219  1
  H+  H77  1  0.58595320  0.16126633  -0.02203384  1
  H+  H78  1  0.32526292  -0.01065022  0.98910708  1
  H+  H79  1  0.39815589  0.62450593  -0.03104881  1
  H+  H80  1  0.88188313  0.11425383  0.15662551  1
  H+  H81  1  0.14335319  0.46731139  0.09587577  1
  H+  H82  1  0.88196656  0.10133153  0.33967826  1
  H+  H83  1  0.16102035  0.37001631  0.16824384  1
  H+  H84  1  0.24611383  0.40368298  0.82451281  1
  H+  H85  1  0.65519697  0.53397404  0.84015348  1
  H+  H86  1  0.65426342  1.01296952  -0.00153046  1
  H+  H87  1  0.82691281  0.65848777  0.10022952  1
  H+  H88  1  0.36729044  -0.01108208  0.81422820  1
  H+  H89  1  0.62321015  0.40558992  0.16392199  1
  H+  H90  1  0.51904832  0.37728291  0.69860706  1
  H+  H91  1  0.13677769  0.27341846  0.32725093  1
  H+  H92  1  0.63414769  0.61831334  0.16940950  1
  H+  H93  1  0.37205192  0.72902969  0.50102853  1
  H+  H94  1  0.21018110  0.10734987  0.17543301  1
  H+  H95  1  0.87798598  0.85675436  0.34010845  1
  H+  H96  1  0.24043956  0.86791759  0.17210233  1
  H+  H97  1  0.09004814  0.26537350  1.01626808  1
  H+  H98  1  0.61326600  0.89386665  0.51174968  1
  H+  H99  1  0.46632047  0.86252001  0.00036805  1
  H+  H100  1  0.85639998  0.99148910  0.51415166  1
  H+  H101  1  0.14560537  0.59920632  0.98642741  1
  H+  H102  1  0.52326532  0.94780697  0.38031625  1
  H+  H103  1  0.77070529  0.41328615  0.15980753  1
  H+  H104  1  0.11215834  0.72215903  0.34548606  1
  H+  H105  1  0.90648580  0.10384279  0.58242390  1
  H+  H106  1  0.02532136  0.63132215  0.49969925  1
  H+  H107  1  0.69588161  0.73657295  0.54570345  1
  H+  H108  1  0.76693577  0.63224698  0.01266013  1
  H+  H109  1  0.85062034  0.40332576  0.15540103  1
  H+  H110  1  0.38692845  0.85129621  0.52449181  1
  H+  H111  1  0.64172350  0.12088620  0.33598176  1
  H+  H112  1  0.87212208  0.35902819  0.50723747  1
  H+  H113  1  0.23310922  0.36665672  0.68044873  1
  H+  H114  1  0.12800453  0.38741130  0.69293270  1
  H+  H115  1  0.47429804  0.16476572  1.00754347  1
  H+  H116  1  0.26870016  0.63435836  0.34635826  1
  H+  H117  1  1.02931970  0.64660516  0.17014670  1
  H+  H118  1  0.35233153  0.11139150  0.66681614  1
  H+  H119  1  0.61455834  0.96899302  0.16747699  1
  H+  H120  1  0.66517531  0.59063882  0.26571870  1
  H+  H121  1  0.38124144  0.76037230  0.32793406  1
  H+  H122  1  0.89180000  0.76896599  0.84797134  1
  H+  H123  1  0.80157460  0.13873114  0.99409762  1
  H+  H124  1  0.97985643  0.59043956  0.67656368  1
  H+  H125  1  0.62571948  0.11206900  0.50979202  1
  H+  H126  1  0.71313492  0.10937663  0.51049365  1
  H+  H127  1  0.88713603  0.88747770  0.67514099  1
  H+  H128  1  0.52310622  0.88379135  0.16292525  1
  H+  H129  1  0.39017074  0.15014246  0.82914764  1
  H+  H130  1  0.66121805  0.37525008  0.83629576  1
  H+  H131  1  0.60201982  0.97802756  0.50707712  1
  H+  H132  1  0.58028478  0.58908981  0.48769026  1
  H+  H133  1  0.85723537  0.88549697  0.84560316  1
  H+  H134  1  0.62261246  0.84857868  0.18804805  1
  H+  H135  1  0.33017173  0.46986920  0.49159713  1
  H+  H136  1  1.00103804  0.61481996  0.97291633  1
  H+  H137  1  0.88387619  0.40143176  0.01376995  1
  H+  H138  1  0.36282448  0.48433257  0.98769560  1
  H+  H139  1  0.64077485  0.09842064  0.85621570  1
  H+  H140  1  0.12195533  0.03474754  0.50705422  1
  H+  H141  1  0.43943082  0.13137826  0.19467489  1
  H+  H142  1  0.64399368  0.57949246  0.57040582  1
  H+  H143  1  0.62401788  0.39092506  1.00933726  1
  H+  H144  1  0.40099306  0.03377706  0.50799676  1
  H+  H145  1  0.34340323  0.85561588  0.67335364  1
  H+  H146  1  0.63137189  0.77027180  0.84511188  1
  H+  H147  1  0.12610741  0.71754189  -0.00526445  1
  H+  H148  1  0.10377861  0.26259510  0.49201453  1
  H+  H149  1  0.49504140  0.35637771  0.00269448  1
  H+  H150  1  0.37233753  0.46501051  0.14954807  1
  H+  H151  1  0.63084892  0.78340650  0.67653508  1
  H+  H152  1  0.72474787  0.61920803  0.17236738  1
  H+  H153  1  0.36354484  0.63507041  0.49632926  1
  H+  H154  1  0.12215235  0.60314061  0.68381688  1
  H+  H155  1  0.19025936  0.36075464  0.49532212  1
  H+  H156  1  0.86649823  0.22186450  0.34342657  1
  H+  H157  1  0.12364965  0.63729270  0.17474341  1
  H+  H158  1  0.13103379  0.51997143  0.32807152  1
  H+  H159  1  0.09348489  -0.00705869  0.68042520  1
  H+  H160  1  1.03383465  0.13808672  0.34624522  1
  H+  H161  1  0.32438898  0.38008160  0.47728089  1
  H+  H162  1  0.12055055  0.22700177  0.16731365  1
  H+  H163  1  0.14757443  0.77464057  0.82177559  1
  H+  H164  1  0.53965474  0.14857248  0.12606626  1
  H+  H165  1  0.13380117  0.83231964  0.98599516  1
  H+  H166  1  0.63948867  0.03104218  0.34095240  1
  H+  H167  1  0.85578892  0.97293537  0.83870398  1
  H+  H168  1  0.76833697  0.63245147  0.34059180  1
  H+  H169  1  1.06637604  0.40395261  0.13739682  1
  H+  H170  1  0.46586137  0.85057063  0.84440208  1
  H+  H171  1  0.88476578  0.61429163  0.32958039  1
  H+  H172  1  0.33365121  0.90080838  0.44761199  1
  H+  H173  1  0.86498792  0.64204777  0.16326611  1
  H+  H174  1  0.24069253  0.61716757  0.82924772  1
  H+  H175  1  0.63272276  0.86325922  0.34302788  1
  H+  H176  1  0.97627108  0.12069054  0.84646162  1
  H+  H177  1  0.37792543  0.00750572  0.64562680  1
  H+  H178  1  0.52001696  0.34131102  0.56186247  1
  H+  H179  1  0.34482018  0.68880563  0.72321237  1
  H+  H180  1  0.90620672  0.90674693  0.53296210  1
  H+  H181  1  0.10856622  0.46750422  0.68996827  1
  H+  H182  1  0.32435243  0.12215034  0.15393148  1
  H+  H183  1  0.59364444  0.52219819  0.66518464  1
  H+  H184  1  0.11334212  0.88369730  0.33442163  1
  H+  H185  1  0.61605283  0.64048682  0.83107513  1
  H+  H186  1  0.77564040  0.13504006  0.34105719  1
  H+  H187  1  0.73179033  0.35551416  0.52119953  1
  H+  H188  1  0.62345186  0.26753852  0.67191754  1
  H+  H189  1  0.17516175  0.54093644  0.54012673  1
  H+  H190  1  0.88880591  0.12197327  0.84048132  1
  H+  H191  1  0.15019079  0.61228972  0.82586331  1
  H+  H192  1  0.52180053  0.70737786  0.71785306  1
  H+  H193  1  0.43200328  0.37121326  0.43802146  1
  H+  H194  1  0.61100714  0.38664970  0.68046968  1
  H+  H195  1  0.12869533  0.47601423  0.83338128  1
  H+  H196  1  0.77318631  0.91279280  0.67522433  1
  H+  H197  1  0.39049852  0.27455703  0.84378021  1
  H+  H198  1  0.72904830  0.36882228  0.33200384  1
  H+  H199  1  0.09109834  0.10705899  0.50474332  1
  H+  H200  1  0.95627593  0.35033379  0.50017195  1
  H+  H201  1  0.38908939  0.26197332  -0.00113706  1
  H+  H202  1  0.62866230  0.87262863  0.67504143  1
  H+  H203  1  0.60098847  0.96359934  0.83388733  1
  H+  H204  1  0.95215619  0.33047015  0.09250251  1
  H+  H205  1  0.02461743  0.88416578  0.33963367  1
  H+  H206  1  0.39039017  0.28424961  0.47299761  1
  H+  H207  1  0.41988185  0.37563204  0.84086999  1
  H+  H208  1  0.38199408  0.26580491  0.69440960  1
  H+  H209  1  0.49478204  0.12406128  0.67025666  1
  H+  H210  1  0.38389499  0.09017633  0.33754714  1
  H+  H211  1  0.86543513  0.48241381  0.34210908  1
  H+  H212  1  0.72029097  0.86152923  0.84766835  1
  H+  H213  1  0.15899831  0.08438923  0.24839838  1
  H+  H214  1  0.13962869  0.76694989  0.51587880  1
  H+  H215  1  0.12330033  0.98493066  0.66135299  1
  H+  H216  1  0.51656451  0.62783915  0.15458895  1
  H+  H217  1  0.86405982  0.48245537  0.49964279  1
  H+  H218  1  0.11117531  0.82120437  0.67884946  1
  H+  H219  1  0.87075261  0.11973179  0.52038687  1
  H+  H220  1  0.61725916  0.48850726  0.33832761  1
  H+  H221  1  0.31348110  0.37983934  0.84422809  1
  H+  H222  1  0.47159891  0.84679047  0.32728124  1
  H+  H223  1  0.93990507  0.35766675  0.15853578  1
  H+  H224  1  -0.00505665  0.84235935  0.68862562  1
  H+  H225  1  0.12043783  0.11576086  0.18404176  1
  H+  H226  1  0.46391731  0.12374283  0.02363474  1
  H+  H227  1  0.84525329  0.22356587  0.49503683  1
  H+  H228  1  0.22373823  0.15906646  0.63633986  1
  H+  H229  1  0.51757007  0.13352812  0.50035613  1
  H+  H230  1  0.83086166  0.42403545  0.43878874  1
  H+  H231  1  0.88406119  0.85806730  -0.00157131  1
  H+  H232  1  0.17467165  0.33406163  0.23089987  1
  H+  H233  1  1.03323392  0.63666201  0.80544321  1
  H+  H234  1  0.21174810  0.83737108  0.67330781  1
  H+  H235  1  0.35730266  0.40048696  0.33779589  1
  H+  H236  1  0.38323577  0.60327849  0.16523824  1
  H+  H237  1  0.12971351  0.38528122  0.98118400  1
  H+  H238  1  0.10376756  0.24164920  0.83817376  1
  H+  H239  1  0.01632902  0.16035958  0.69758393  1
  H+  H240  1  0.86760481  0.44967592  0.67454905  1
  H+  H241  1  0.53206652  0.64429318  -0.00528968  1
  H+  H242  1  0.64844911  0.71773942  0.54361365  1
  H+  H243  1  0.61239215  0.22298643  0.50052051  1
  H+  H244  1  1.02639309  0.14130209  0.16342221  1
  H+  H245  1  0.01463908  0.84368937  0.01367814  1
  H+  H246  1  0.11399061  0.88067843  0.83106716  1
  H+  H247  1  0.36971373  0.47725561  0.68311650  1
  H+  H248  1  0.15020607  0.91335004  0.49516417  1
  H+  H249  1  0.92789097  0.86862418  0.61752001  1
  H+  H250  1  0.76931989  0.37241377  0.68260946  1
  H+  H251  1  0.05694160  1.00819096  -0.01623755  1
  H+  H252  1  0.13823592  0.11642216  0.33528280  1
  H+  H253  1  0.66089302  0.85349304  0.58668985  1
  H+  H254  1  0.55149567  0.39454641  0.83027674  1
  H+  H255  1  0.27635915  0.00853916  0.93533051  1
  H+  H256  1  0.36707368  0.72920414  0.82519550  1
  H+  H257  1  0.89039303  0.22201817  0.66299465  1
  H+  H258  1  0.63188169  0.10035259  0.17951415  1
  H+  H259  1  0.49409630  0.11454880  0.85395860  1
  H+  H260  1  0.36065010  0.72159780  0.00139043  1
  H+  H261  1  0.63371775  0.61791834  0.32592257  1
  H+  H262  1  0.22106857  0.36674196  0.32351383  1
  H+  H263  1  0.12663535  0.73712303  0.16561813  1
  H+  H264  1  0.47035941  0.23139963  0.44670978  1
  H+  H265  1  0.14412714  0.54117091  0.17626911  1
  H+  H266  1  0.33377715  0.66474663  0.09081656  1
  H+  H267  1  0.23035484  0.84921181  0.97786997  1
  H+  H268  1  0.39239728  0.34642414  0.17276913  1
  H+  H269  1  0.85892826  0.89077393  0.15113983  1
  H+  H270  1  0.36316755  0.96135638  0.34922515  1
  H+  H271  1  0.27459467  0.11750156  0.34936747  1
  H+  H272  1  0.65387378  0.82713336  0.28289347  1
  H+  H273  1  0.48964417  0.62677754  0.87099651  1
  H+  H274  1  0.63211706  0.52472285  -0.00560543  1
  H+  H275  1  0.77432956  0.63538540  0.50484243  1
  H+  H276  1  0.47522258  0.38471376  0.33098235  1
  H+  H277  1  0.71516766  0.46849640  0.45869908  1
  H+  H278  1  0.13304670  1.02300836  0.32876678  1
  H+  H279  1  0.88820182  0.61205340  0.51682058  1
  H+  H280  1  0.11564603  0.63293210  0.50055629  1
  H+  H281  1  0.45176061  0.58046880  0.50054988  1
  H+  H282  1  0.64545538  0.29623288  0.18166129  1
  H+  H283  1  0.91653625  0.82434378  0.94315529  1
  H+  H284  1  0.24099373  0.11212669  0.81897666  1
  H+  H285  1  0.47723088  0.85579400  0.52528015  1
  H+  H286  1  0.37983688  0.03096247  0.17591776  1
  H+  H287  1  0.89431390  0.60794281  0.83101073  1
  H+  H288  1  0.92654590  0.57734935  0.57122602  1
  H+  H289  1  0.85649486  0.71896720  0.01369519  1
  H+  H290  1  0.65705832  0.08689165  0.61018067  1
  H+  H291  1  0.41169178  0.57818840  0.22693232  1
  H+  H292  1  0.14917601  0.86467603  0.17585367  1
  H+  H293  1  0.08436287  0.17391346  0.41098803  1
  H+  H294  1  0.39124031  0.37232393  0.58925960  1
  H+  H295  1  0.67982106  0.06072165  0.90251574  1
  H+  H296  1  0.15379784  0.11293213  0.82351093  1
  H+  H297  1  0.26646467  0.88454936  0.04853537  1
  H+  H298  1  0.41595461  0.07874293  0.58856809  1
  H+  H299  1  0.56921488  0.66561077  0.77659049  1
  H+  H300  1  0.92817413  0.59647349  0.23901911  1
  H+  H301  1  0.17481759  0.82770438  0.27093956  1
  H+  H302  1  0.85032295  0.44631416  0.05993765  1
  H+  H303  1  0.41360886  0.82600336  0.23067048  1
  H+  H304  1  0.84464518  0.67171932  0.77100160  1
  H+  H305  1  0.28702790  0.37681448  0.14858525  1
  H+  H306  1  0.15929415  0.18160643  0.90892210  1
  H+  H307  1  0.66017493  0.83164458  0.93380369  1
  H+  H308  1  0.82378847  0.16033335  0.43802424  1
  H+  H309  1  0.51794780  0.63629445  0.33444903  1
  H+  H310  1  0.01223160  0.14823455  0.48403888  1
  H+  H311  1  0.11025411  0.96782865  0.16973542  1
  H+  H312  1  0.11551172  0.96958858  0.81795342  1
  H+  H313  1  0.09124562  0.36207206  0.48708499  1
  H+  H314  1  0.67496025  0.34885611  0.24356254  1
  H+  H315  1  0.93733029  0.58125660  0.90078168  1
  H+  H316  1  0.55230339  0.61849705  0.42717590  1
  H+  H317  1  0.84349934  0.16280722  0.05789318  1
  H+  H318  1  0.82601416  0.91329042  0.06098428  1
  H+  H319  1  0.82905665  0.65568091  0.44418955  1
  H+  H320  1  0.91126517  0.33277265  0.27813858  1
  H+  H321  1  0.07054156  0.40730638  0.39649492  1
  H+  H322  1  0.12293801  0.93751986  0.43357966  1
  H+  H323  1  0.08333407  0.87814627  0.06752911  1
  H+  H324  1  0.33243194  0.66724064  0.40446033  1
  H+  H325  1  0.57608681  0.92376481  0.42448104  1
  H+  H326  1  0.68920142  0.35100365  0.89887147  1
  H+  H327  1  0.61826400  0.16902020  0.04454389  1
  H+  H328  1  0.26742032  0.09681334  0.70144700  1
  H+  H329  1  0.47219145  0.61415009  0.66600809  1
  H+  H330  1  0.42705508  0.33170110  0.94031852  1
  H+  H331  1  0.16261987  0.59213281  0.24175581  1
  H+  H332  1  0.17734776  0.57659052  0.92607410  1
  H+  H333  1  0.60909327  0.88060879  0.00755297  1
  H+  H334  1  0.05298976  0.86233275  0.74743743  1
  H+  H335  1  0.32845761  0.91245122  0.72185093  1
  H+  H336  1  0.09199439  0.41430079  0.77006071  1
  H+  H337  1  0.35807968  0.87066183  0.34511827  1
  H+  H338  1  0.41089818  0.07518716  0.89941957  1
  H+  H339  1  1.00309665  0.53577523  0.63706625  1
  H+  H340  1  0.16335372  0.81617855  0.57861137  1
  H+  H341  1  0.31519071  0.42645156  0.39361675  1
  H+  H342  1  0.40605639  0.57294948  0.56565835  1
  H+  H343  1  0.14530780  0.35763158  0.88818981  1
  H+  H344  1  0.07040158  0.19261990  0.06270717  1
  H+  H345  1  0.91182359  0.07016930  0.93028428  1
  H+  H346  1  0.58460365  0.91250113  0.06845208  1
  H+  H347  1  0.17111077  0.81921973  0.88724936  1
  H+  H348  1  0.64673682  0.17466598  0.78983198  1
  H+  H349  1  0.37248124  0.32465676  0.59209268  1
  H+  H350  1  0.91732318  0.11320691  0.22004488  1
  H+  H351  1  0.02375184  0.42741616  -0.03576167  1
  H+  H352  1  0.84849208  0.40995257  0.76949504  1
  H+  H353  1  0.41732790  0.34568527  0.27282323  1
  H+  H354  1  0.27832571  0.62630565  -0.00347653  1
  H+  H355  1  0.88483046  0.76832680  0.14917358  1
  H+  H356  1  0.90229306  0.04529172  0.29275262  1
  H+  H357  1  0.87502996  0.33376998  0.66250907  1
  H+  H358  1  0.90121245  0.83097228  0.27662817  1
  H+  H359  1  0.15675142  0.59129922  0.61958749  1
  H+  H360  1  0.86499572  0.18621757  0.76142394  1
  H+  H361  1  0.62540434  0.43704460  0.42722616  1
  H+  H362  1  0.90222273  0.31646313  0.59706059  1
  H+  H363  1  0.28792130  0.14672955  0.09455143  1
  H+  H364  1  0.61972669  0.75926832  0.18849369  1
  H+  H365  1  0.60146467  0.42517823  0.76674390  1
  H+  H366  1  0.86453371  0.39271699  0.34651960  1
  H+  H367  1  0.14043283  0.11192160  0.59392392  1
  H+  H368  1  0.54289576  0.15247134  0.73474801  1
  H+  H369  1  0.35207333  0.15645175  0.39900954  1
  H+  H370  1  0.97574985  0.61586723  0.33284600  1
  H+  H371  1  0.33415104  0.42762691  0.74702576  1
  H+  H372  1  0.36167714  0.17981769  0.76951275  1
  H+  H373  1  0.58978742  0.60858617  0.66461247  1
  H+  H374  1  0.57379047  0.91829716  0.73846887  1
  H+  H375  1  0.08669672  0.66154209  0.05520597  1
  H+  H376  1  0.85354785  0.74947027  0.68515578  1
  H+  H377  1  0.33530296  0.42487079  0.04680457  1
  H+  H378  1  0.40374135  0.81617545  0.90211888  1
  H+  H379  1  0.39786349  0.78379569  0.61843542  1
  H+  H380  1  0.58844692  0.41750178  0.06937733  1
  H+  H381  1  0.66545944  0.08190054  0.24274593  1
  H+  H382  1  0.41286312  0.06218805  0.27860547  1
  H+  H383  1  0.66476315  0.32705516  0.61410195  1
  O2-  O384  1  0.08899451  0.16378604  0.15780658  1
  O2-  O385  1  0.07293675  0.17731990  0.47204649  1
  O2-  O386  1  0.08696819  0.17954888  0.83368949  1
  O2-  O387  1  0.12699015  0.45242114  0.13843136  1
  O2-  O388  1  0.05139160  0.39649951  0.46643703  1
  O2-  O389  1  0.08850343  0.41473751  0.82178511  1
  O2-  O390  1  0.09175082  0.67275013  0.15438282  1
  O2-  O391  1  0.08518077  0.66109736  0.48293423  1
  O2-  O392  1  0.09374471  0.66802796  0.79007162  1
  O2-  O393  1  0.09149991  0.90936545  0.15480686  1
  O2-  O394  1  0.15245480  0.96144429  0.47232644  1
  O2-  O395  1  0.07766523  0.90598058  0.81971264  1
  O2-  O396  1  0.28536553  0.14226737  0.13941674  1
  O2-  O397  1  0.41249032  0.19952043  0.46310536  1
  O2-  O398  1  0.35996063  0.18077419  0.81446211  1
  O2-  O399  1  0.34529825  0.40720071  0.13065743  1
  O2-  O400  1  0.29468318  0.41373666  0.47011265  1
  O2-  O401  1  0.30932762  0.42301991  0.82037679  1
  O2-  O402  1  0.33675505  0.66987653  0.13652624  1
  O2-  O403  1  0.33762348  0.67049718  0.48148756  1
  O2-  O404  1  0.34048015  0.67125839  0.80164083  1
  O2-  O405  1  0.35467159  0.93613769  0.14543293  1
  O2-  O406  1  0.33906045  0.90500578  0.49244072  1
  O2-  O407  1  0.32991292  0.93658259  0.79118789  1
  O2-  O408  1  0.56834590  0.11682269  0.11452542  1
  O2-  O409  1  0.58013117  0.16639839  0.47999029  1
  O2-  O410  1  0.60999203  0.17788439  0.82122695  1
  O2-  O411  1  0.59120830  0.42952825  0.14291991  1
  O2-  O412  1  0.65422026  0.44283460  0.46782985  1
  O2-  O413  1  0.60938125  0.42689165  0.81360738  1
  O2-  O414  1  0.57828169  0.66204872  0.14242638  1
  O2-  O415  1  0.53023616  0.58304527  0.46438337  1
  O2-  O416  1  0.57753924  0.66410261  0.82388012  1
  O2-  O417  1  0.58388907  0.91143227  0.14852098  1
  O2-  O418  1  0.57526096  0.91699599  0.49214139  1
  O2-  O419  1  0.56596153  0.90335881  0.81786121  1
  O2-  O420  1  0.81982146  0.15268145  0.13726239  1
  O2-  O421  1  0.81600643  0.16135469  0.48247316  1
  O2-  O422  1  0.85137410  0.19264916  0.80499517  1
  O2-  O423  1  0.83001103  0.44130540  0.14159737  1
  O2-  O424  1  0.82797400  0.42206239  0.48401252  1
  O2-  O425  1  0.85620600  0.41731874  0.81496049  1
  O2-  O426  1  0.82935995  0.66513023  0.14707753  1
  O2-  O427  1  0.83267310  0.65344899  0.48880773  1
  O2-  O428  1  0.84926417  0.66109260  0.81577443  1
  O2-  O429  1  0.82879633  0.92126506  0.13842405  1
  O2-  O430  1  0.82800551  0.92872274  0.50332583  1
  O2-  O431  1  0.82146266  0.91009405  0.83318484  1
  O2-  O432  1  0.15100271  0.08003221  0.20011733  1
  O2-  O433  1  0.09549051  0.06247282  0.53079942  1
  O2-  O434  1  0.17910680  0.07854188  0.80976969  1
  O2-  O435  1  0.17967578  0.33151837  0.18541008  1
  O2-  O436  1  0.12823107  0.32830413  0.50682081  1
  O2-  O437  1  0.14364136  0.35238656  0.84276582  1
  O2-  O438  1  0.16388076  0.59906290  0.19526631  1
  O2-  O439  1  0.18695346  0.59973463  0.53577233  1
  O2-  O440  1  0.18044431  0.58612389  0.84604829  1
  O2-  O441  1  0.18035397  0.83301659  0.18714373  1
  O2-  O442  1  0.17224159  0.82505264  0.53424588  1
  O2-  O443  1  0.17307114  0.83072098  0.84274135  1
  O2-  O444  1  0.38204867  0.08173400  0.19715648  1
  O2-  O445  1  0.43207386  0.09213446  0.52491311  1
  O2-  O446  1  0.43171141  0.09068127  0.85698494  1
  O2-  O447  1  0.42596223  0.32658325  0.19633726  1
  O2-  O448  1  0.39281261  0.34061374  0.47119678  1
  O2-  O449  1  0.40728880  0.32844983  0.86854695  1
  O2-  O450  1  0.41222298  0.57304277  0.18159754  1
  O2-  O451  1  0.39649138  0.57018541  0.52069490  1
  O2-  O452  1  0.42941674  0.60683312  0.88657729  1
  O2-  O453  1  0.41656949  0.83341943  0.18554227  1
  O2-  O454  1  0.41608483  0.81949070  0.53922200  1
  O2-  O455  1  0.40438603  0.81427559  0.85738689  1
  O2-  O456  1  0.66725824  0.07830386  0.19716525  1
  O2-  O457  1  0.65362465  0.08052780  0.52732683  1
  O2-  O458  1  0.66487357  0.06039569  0.85900191  1
  O2-  O459  1  0.67699987  0.35482098  0.19691336  1
  O2-  O460  1  0.67139864  0.32557699  0.53620745  1
  O2-  O461  1  0.68898492  0.34353819  0.85395336  1
  O2-  O462  1  0.66403878  0.58832426  0.18700863  1
  O2-  O463  1  0.66439643  0.58388618  0.52731859  1
  O2-  O464  1  0.68409909  0.59413270  0.85511067  1
  O2-  O465  1  0.63780603  0.81203222  0.21258819  1
  O2-  O466  1  0.66284798  0.86079767  0.54112398  1
  O2-  O467  1  0.65758844  0.83062301  0.86033014  1
  O2-  O468  1  0.91864229  0.09494532  0.17863808  1
  O2-  O469  1  0.90299232  0.09311091  0.53780780  1
  O2-  O470  1  0.91340423  0.08697976  0.85534755  1
  O2-  O471  1  0.95985875  0.32349360  0.13741261  1
  O2-  O472  1  0.89721583  0.32294141  0.51924443  1
  O2-  O473  1  0.91716758  0.28058522  0.81941304  1
  O2-  O474  1  0.93450190  0.60156479  0.19301067  1
  O2-  O475  1  0.92194689  0.58203806  0.52667797  1
  O2-  O476  1  0.92969325  0.57932166  0.84373746  1
  O2-  O477  1  0.92102220  0.83307358  0.14349385  1
  O2-  O478  1  0.95546620  0.90391366  0.55063307  1
  O2-  O479  1  0.91705781  0.82677780  0.86674946  1
  O2-  O480  1  0.16439044  0.08412907  0.31439048  1
  O2-  O481  1  0.16323466  0.14136254  0.63424043  1
  O2-  O482  1  0.21457617  0.19725016  0.92818915  1
  O2-  O483  1  0.16037821  0.33172945  0.30801729  1
  O2-  O484  1  0.17227041  0.34150813  0.66792614  1
  O2-  O485  1  0.15930699  0.35570289  0.96629343  1
  O2-  O486  1  0.16166016  0.58159972  0.31424975  1
  O2-  O487  1  0.11710782  0.56034556  0.65319806  1
  O2-  O488  1  0.17495302  0.56900154  0.97110414  1
  O2-  O489  1  0.16763553  0.82568874  0.31563604  1
  O2-  O490  1  0.14919722  0.79674939  0.66464151  1
  O2-  O491  1  0.16982817  0.81168368  0.96410347  1
  O2-  O492  1  0.42086168  0.06431278  0.32288489  1
  O2-  O493  1  0.40498253  0.06969213  0.63685185  1
  O2-  O494  1  0.32770486  0.03775895  0.96048557  1
  O2-  O495  1  0.41542964  0.35840867  0.31684498  1
  O2-  O496  1  0.41562900  0.32147245  0.71472046  1
  O2-  O497  1  0.43140205  0.32455678  0.98575241  1
  O2-  O498  1  0.41447409  0.58820601  0.30583509  1
  O2-  O499  1  0.41352562  0.58042915  0.64471673  1
  O2-  O500  1  0.43136015  0.59708291  0.95296203  1
  O2-  O501  1  0.41333658  0.82036871  0.31010583  1
  O2-  O502  1  0.38860819  0.78072809  0.66344038  1
  O2-  O503  1  0.40538080  0.82921378  0.98754044  1
  O2-  O504  1  0.66973342  0.08808917  0.32030060  1
  O2-  O505  1  0.65596905  0.08833637  0.65518480  1
  O2-  O506  1  0.69563139  0.07033343  0.97975882  1
  O2-  O507  1  0.66961312  0.33925585  0.31443280  1
  O2-  O508  1  0.66198780  0.32853298  0.65951260  1
  O2-  O509  1  0.69073937  0.35714592  0.97810657  1
  O2-  O510  1  0.66625901  0.58922955  0.31118169  1
  O2-  O511  1  0.59710851  0.56801777  0.63890115  1
  O2-  O512  1  0.66530523  0.58409191  0.97908462  1
  O2-  O513  1  0.66209707  0.83309658  0.32907214  1
  O2-  O514  1  0.66190471  0.84349537  0.66071855  1
  O2-  O515  1  0.66147105  0.83122480  0.98008974  1
  O2-  O516  1  0.91134590  0.06640592  0.33427628  1
  O2-  O517  1  0.91823602  0.12643120  0.66357747  1
  O2-  O518  1  0.91740779  0.06125461  0.97459384  1
  O2-  O519  1  0.91437756  0.33328313  0.32229843  1
  O2-  O520  1  0.90765995  0.31058742  0.64151462  1
  O2-  O521  1  0.93714687  0.34344564  1.01951808  1
  O2-  O522  1  0.91743572  0.58615670  0.31351274  1
  O2-  O523  1  0.95473079  0.54655538  0.64424297  1
  O2-  O524  1  0.94190807  0.58390994  0.95381657  1
  O2-  O525  1  0.90916545  0.82917343  0.32031682  1
  O2-  O526  1  0.91090281  0.85027862  0.66157774  1
  O2-  O527  1  0.91470722  0.82522802  0.98898264  1
  O2-  O528  1  0.04872281  0.22920372  0.04786472  1
  O2-  O529  1  0.09331637  0.17147351  0.36072450  1
  O2-  O530  1  0.07516393  0.17901322  0.71393138  1
  O2-  O531  1  0.02429558  0.38603141  -0.00688323  1
  O2-  O532  1  0.07655042  0.41380891  0.34979496  1
  O2-  O533  1  0.09379406  0.41381531  0.71146978  1
  O2-  O534  1  0.09087591  0.65680762  0.01115468  1
  O2-  O535  1  0.07959708  0.66117203  0.35975236  1
  O2-  O536  1  0.08068470  0.65973984  0.72373860  1
  O2-  O537  1  0.06793426  0.84612387  0.02913187  1
  O2-  O538  1  0.08672159  0.91752182  0.34878518  1
  O2-  O539  1  0.03886686  0.83144391  0.70797688  1
  O2-  O540  1  0.31126098  0.16995131  0.01080383  1
  O2-  O541  1  0.33492677  0.13451609  0.35676127  1
  O2-  O542  1  0.32419958  0.14144131  0.68835619  1
  O2-  O543  1  0.32321692  0.42632985  0.00304786  1
  O2-  O544  1  0.32209384  0.42858196  0.34823935  1
  O2-  O545  1  0.34277187  0.41982858  0.70287566  1
  O2-  O546  1  0.33874802  0.65998221  0.01261030  1
  O2-  O547  1  0.33004771  0.66559908  0.35866957  1
  O2-  O548  1  0.34081729  0.68827116  0.67740120  1
  O2-  O549  1  0.32058202  0.91588315  0.02663042  1
  O2-  O550  1  0.32870055  0.89994549  0.36284994  1
  O2-  O551  1  0.31980008  0.89452864  0.67754370  1
  O2-  O552  1  0.63825887  0.18821806  0.00236940  1
  O2-  O553  1  0.58954637  0.17418174  0.35890078  1
  O2-  O554  1  0.55277278  0.16080397  0.69103983  1
  O2-  O555  1  0.58354010  0.41036605  0.02342188  1
  O2-  O556  1  0.58860035  0.42934951  0.35687802  1
  O2-  O557  1  0.58312387  0.41747892  0.69869011  1
  O2-  O558  1  0.58767992  0.67046916  0.01637845  1
  O2-  O559  1  0.57630149  0.66085331  0.35307399  1
  O2-  O560  1  0.55376640  0.67791297  0.70912446  1
  O2-  O561  1  0.58263583  0.91486571  0.02321711  1
  O2-  O562  1  0.56794155  0.93223328  0.37787029  1
  O2-  O563  1  0.57920251  0.92106800  0.69349679  1
  O2-  O564  1  0.85734492  0.17765943  0.01451957  1
  O2-  O565  1  0.83628146  0.16041529  0.35555934  1
  O2-  O566  1  0.87016942  0.16465053  0.68584910  1
  O2-  O567  1  0.85631861  0.43785229  0.01606866  1
  O2-  O568  1  0.83282062  0.42254929  0.35877319  1
  O2-  O569  1  0.82997132  0.39465000  0.69581317  1
  O2-  O570  1  0.82556141  0.65951889  0.03051605  1
  O2-  O571  1  0.82830546  0.65801209  0.35680054  1
  O2-  O572  1  0.82343645  0.68880007  0.70122487  1
  O2-  O573  1  0.82696194  0.90619247  0.01586127  1
  O2-  O574  1  0.82587008  0.90005874  0.37448176  1
  O2-  O575  1  0.83606643  0.94500010  0.68222594  1
