# generated using pymatgen
data_H2O
_symmetry_space_group_name_H-M   'P 1'
_cell_length_a   17.98615305
_cell_length_b   17.98345714
_cell_length_c   21.99041473
_cell_angle_alpha   89.99041437
_cell_angle_beta   90.00347323
_cell_angle_gamma   120.00371865
_symmetry_Int_Tables_number   1
_chemical_formula_structural   H2O
_chemical_formula_sum   'H384 O192'
_cell_volume   6159.69544295
_cell_formula_units_Z   192
loop_
 _symmetry_equiv_pos_site_id
 _symmetry_equiv_pos_as_xyz
  1  'x, y, z'
loop_
 _atom_type_symbol
 _atom_type_oxidation_number
  H+  1.0
  O2-  -2.0
loop_
 _atom_site_type_symbol
 _atom_site_label
 _atom_site_symmetry_multiplicity
 _atom_site_fract_x
 _atom_site_fract_y
 _atom_site_fract_z
 _atom_site_occupancy
  H+  H0  1  0.88042326  0.53320208  0.50050991  1
  H+  H1  1  0.86614906  0.37035487  0.98546901  1
  H+  H2  1  0.24931599  0.13429195  0.36308051  1
  H+  H3  1  0.61373252  -0.01597597  0.16071058  1
  H+  H4  1  0.63977539  0.86928773  0.33132639  1
  H+  H5  1  0.52073746  0.12753213  0.67310829  1
  H+  H6  1  0.32904268  0.96395959  0.35568511  1
  H+  H7  1  0.07361449  0.69232324  0.06045212  1
  H+  H8  1  0.86214325  0.73199280  0.15330075  1
  H+  H9  1  0.88410539  0.51661622  0.98262570  1
  H+  H10  1  0.37441873  0.72782084  0.34923962  1
  H+  H11  1  0.53606143  0.11951694  0.01383052  1
  H+  H12  1  0.46157449  0.10826485  0.82110133  1
  H+  H13  1  0.10558976  0.12769574  0.00528570  1
  H+  H14  1  0.15919902  0.41592183  0.21331079  1
  H+  H15  1  0.14335322  0.61469805  0.51157897  1
  H+  H16  1  0.52194443  0.89684781  0.34098415  1
  H+  H17  1  0.08728200  0.85540172  0.15476713  1
  H+  H18  1  0.10948650  0.88807579  0.00492012  1
  H+  H19  1  0.90477691  0.55354102  0.18215790  1
  H+  H20  1  0.85307743  0.62684146  0.66571606  1
  H+  H21  1  0.34236855  0.88857978  0.33229216  1
  H+  H22  1  0.93961696  0.26291343  0.84210533  1
  H+  H23  1  0.13112508  0.26511687  -0.01010020  1
  H+  H24  1  0.01572312  0.61350049  0.81253668  1
  H+  H25  1  0.40353986  0.62591635  0.31246730  1
  H+  H26  1  0.19961804  0.85727982  0.31428633  1
  H+  H27  1  0.59889269  0.48225338  0.83308977  1
  H+  H28  1  0.09704533  0.47303845  0.00302978  1
  H+  H29  1  0.37663789  1.00726619  0.00047364  1
  H+  H30  1  0.88066727  1.00855685  0.01130567  1
  H+  H31  1  0.36434683  0.11558276  0.36966988  1
  H+  H32  1  0.52768246  0.39928442  0.31972273  1
  H+  H33  1  0.62138773  0.97094784  0.00554971  1
  H+  H34  1  0.85565766  0.22621957  0.16186849  1
  H+  H35  1  0.96544142  0.36207380  0.65789717  1
  H+  H36  1  0.11501792  0.23379704  0.49367612  1
  H+  H37  1  0.24128449  0.38873321  0.49167490  1
  H+  H38  1  0.47362029  0.61422097  0.83871598  1
  H+  H39  1  0.37791761  0.35307875  1.00247894  1
  H+  H40  1  0.90863138  0.57323336  0.89115584  1
  H+  H41  1  0.10495769  0.60945863  0.99273339  1
  H+  H42  1  0.71555217  0.84790762  1.00639610  1
  H+  H43  1  0.88700820  0.25592185  0.99161907  1
  H+  H44  1  0.97045169  0.86219286  0.17261648  1
  H+  H45  1  0.98482469  0.97015779  0.88012247  1
  H+  H46  1  0.85610437  0.88283895  0.01696010  1
  H+  H47  1  0.96813809  0.60878688  0.65095587  1
  H+  H48  1  0.60200569  0.16274693  0.83412796  1
  H+  H49  1  0.83067827  0.22073845  0.80562246  1
  H+  H50  1  0.96524023  0.86438497  0.32828255  1
  H+  H51  1  0.22170522  0.11331344  0.66189631  1
  H+  H52  1  0.86890432  0.51119481  0.83264231  1
  H+  H53  1  1.07368987  0.89964389  0.83997803  1
  H+  H54  1  0.95158016  0.37113423  0.18179777  1
  H+  H55  1  0.85383526  -0.03145641  0.51689287  1
  H+  H56  1  0.08521790  0.65137903  0.40613316  1
  H+  H57  1  0.62229437  0.48216156  0.15836201  1
  H+  H58  1  0.34542876  0.13008296  0.01930911  1
  H+  H59  1  0.12442758  0.22448951  0.82362417  1
  H+  H60  1  0.41166515  0.62289066  0.16761506  1
  H+  H61  1  0.70837396  0.05225497  0.51611520  1
  H+  H62  1  0.47450326  0.38744902  0.50478587  1
  H+  H63  1  0.38348614  0.74863201  0.48664953  1
  H+  H64  1  0.10828274  0.13155683  0.67090949  1
  H+  H65  1  0.76274288  0.39780420  0.18053304  1
  H+  H66  1  0.10390514  0.11555980  0.16140888  1
  H+  H67  1  0.07450540  0.40981697  0.72734294  1
  H+  H68  1  0.57318037  0.71944521  0.49967549  1
  H+  H69  1  0.57641958  0.44505725  0.41671994  1
  H+  H70  1  0.49500152  0.61533596  0.15204643  1
  H+  H71  1  0.60311511  0.65103936  0.49203145  1
  H+  H72  1  0.63211274  0.11291805  0.33369419  1
  H+  H73  1  0.03404794  0.49573104  0.22705815  1
  H+  H74  1  0.61595526  0.87989240  0.67119674  1
  H+  H75  1  0.52366690  0.13809571  0.14900258  1
  H+  H76  1  0.87683363  0.77400861  0.32677676  1
  H+  H77  1  0.39722322  0.08974826  0.31279825  1
  H+  H78  1  0.16861565  0.72060898  0.18347222  1
  H+  H79  1  0.40730907  0.08129641  0.08772875  1
  H+  H80  1  0.17541680  0.33102717  0.58956812  1
  H+  H81  1  0.09940018  0.73345555  -0.00512656  1
  H+  H82  1  0.09600407  0.46838854  0.66915366  1
  H+  H83  1  0.37922592  0.78654300  0.66786979  1
  H+  H84  1  0.60366880  0.39704364  0.67420828  1
  H+  H85  1  -0.02204424  0.11601375  0.66497570  1
  H+  H86  1  0.89375657  0.63490087  0.17426143  1
  H+  H87  1  0.87894146  0.51842305  0.65176742  1
  H+  H88  1  0.61423823  0.74115925  0.34022222  1
  H+  H89  1  0.47249814  0.10836279  0.51801740  1
  H+  H90  1  0.88076402  0.76384039  0.66283196  1
  H+  H91  1  0.27011541  0.61868538  0.48739280  1
  H+  H92  1  0.85838923  0.64335930  0.49625862  1
  H+  H93  1  0.62722459  0.19434917  0.51220877  1
  H+  H94  1  0.71884713  0.61190291  1.00090454  1
  H+  H95  1  0.48342469  0.87838182  0.17043945  1
  H+  H96  1  0.88352383  0.76104028  0.51021061  1
  H+  H97  1  0.71336995  0.60370326  0.84573569  1
  H+  H98  1  0.40847692  0.67119411  0.66021929  1
  H+  H99  1  0.17644919  0.34046781  0.43843487  1
  H+  H100  1  0.13929940  0.81535256  0.25704044  1
  H+  H101  1  0.35490318  0.87794583  -0.00436861  1
  H+  H102  1  0.45924697  0.83807921  0.46543426  1
  H+  H103  1  0.63669737  0.11723970  0.17590083  1
  H+  H104  1  0.71918894  0.61741781  0.65427955  1
  H+  H105  1  0.09384687  0.96983690  0.34617291  1
  H+  H106  1  0.34869369  0.95696806  0.79904952  1
  H+  H107  1  0.35386703  0.22531512  0.16440976  1
  H+  H108  1  0.45208938  0.57693504  0.49735637  1
  H+  H109  1  0.90809541  0.30869043  0.48579775  1
  H+  H110  1  0.47741279  0.59429199  0.99921987  1
  H+  H111  1  0.61991670  0.62464268  0.02275483  1
  H+  H112  1  0.15381030  0.27526879  0.64942780  1
  H+  H113  1  0.72880015  0.09520975  0.82883042  1
  H+  H114  1  0.86018126  0.35927441  0.17905729  1
  H+  H115  1  0.72182831  0.34246943  0.98992574  1
  H+  H116  1  0.84798717  0.87828609  0.51543283  1
  H+  H117  1  0.02745643  -0.12262139  0.68071384  1
  H+  H118  1  0.02924426  0.63222527  0.34600949  1
  H+  H119  1  0.85202748  0.10358619  0.50421716  1
  H+  H120  1  0.21684284  0.10187035  0.18559113  1
  H+  H121  1  0.37108555  0.43361138  0.66877659  1
  H+  H122  1  0.13234916  1.00905499  0.18480188  1
  H+  H123  1  0.36839532  -0.07918048  0.66091132  1
  H+  H124  1  0.12805133  0.47509934  0.82481983  1
  H+  H125  1  0.24628032  0.62937387  0.06614650  1
  H+  H126  1  1.02193383  0.64059559  0.50097179  1
  H+  H127  1  0.98289273  0.86100816  0.51079144  1
  H+  H128  1  0.64482864  0.53551418  0.30433748  1
  H+  H129  1  0.12389817  0.21109548  0.15976451  1
  H+  H130  1  0.58752559  0.24109421  0.83107796  1
  H+  H131  1  0.14222979  0.52526429  0.50681196  1
  H+  H132  1  0.77094462  0.13476211  0.16325543  1
  H+  H133  1  0.63307060  0.36505406  0.18175755  1
  H+  H134  1  0.89077094  0.11869314  0.17388964  1
  H+  H135  1  0.76369565  0.38462264  0.66326298  1
  H+  H136  1  0.62997861  0.06493363  0.83544448  1
  H+  H137  1  0.04239287  0.38397116  0.82594982  1
  H+  H138  1  0.94454192  0.79924105  0.79139070  1
  H+  H139  1  0.84753162  0.61163442  0.82354770  1
  H+  H140  1  0.26420205  0.63170851  0.83730525  1
  H+  H141  1  0.58413551  0.42315854  0.06974367  1
  H+  H142  1  0.12394016  0.39974774  0.48526195  1
  H+  H143  1  0.88526950  0.85625562  0.65994980  1
  H+  H144  1  0.85124253  -0.02004568  0.81486985  1
  H+  H145  1  0.35695297  0.74489208  0.84347982  1
  H+  H146  1  0.86212818  -0.02137888  0.32972519  1
  H+  H147  1  0.84245705  0.69644990  0.81830203  1
  H+  H148  1  0.27540539  0.14795306  0.82302689  1
  H+  H149  1  0.37484799  0.47893085  0.15563243  1
  H+  H150  1  0.88686680  0.11474886  0.66088383  1
  H+  H151  1  0.35754978  0.35310200  0.32506832  1
  H+  H152  1  0.26858267  0.38070285  0.00611356  1
  H+  H153  1  0.86488419  -0.02407370  0.66375454  1
  H+  H154  1  0.37376990  0.10568717  0.14599328  1
  H+  H155  1  0.35564341  0.84612234  0.83825632  1
  H+  H156  1  0.61138621  0.39515348  0.33659996  1
  H+  H157  1  0.19108459  0.43906854  0.23847791  1
  H+  H158  1  0.46866108  0.36590386  0.85320927  1
  H+  H159  1  0.10790296  0.71840434  0.65822110  1
  H+  H160  1  0.87264052  0.40677924  0.49141863  1
  H+  H161  1  0.96683562  0.77944941  0.80869926  1
  H+  H162  1  0.75365835  0.45324368  0.77937929  1
  H+  H163  1  0.60606846  0.72287799  0.83000428  1
  H+  H164  1  0.83341258  0.66472277  0.06126227  1
  H+  H165  1  -0.01981700  0.10518091  0.00935778  1
  H+  H166  1  0.60968512  0.36646661  0.84818384  1
  H+  H167  1  0.87298722  0.09668180  0.32902120  1
  H+  H168  1  0.63400454  0.27556486  0.33965071  1
  H+  H169  1  0.61597948  0.83920706  0.85155854  1
  H+  H170  1  0.85331903  0.63010359  -0.00087748  1
  H+  H171  1  0.38725034  0.86581412  0.16595423  1
  H+  H172  1  0.40331059  0.65513190  0.01269592  1
  H+  H173  1  0.27810599  0.41778024  0.66221137  1
  H+  H174  1  0.27144888  0.84640632  0.66127377  1
  H+  H175  1  0.60930238  0.48871955  0.67255243  1
  H+  H176  1  0.62120934  0.21233662  0.00601151  1
  H+  H177  1  0.33980095  0.95910376  0.13992044  1
  H+  H178  1  0.86853794  0.64822678  0.34178617  1
  H+  H179  1  0.35155141  0.22228494  0.01363044  1
  H+  H180  1  0.15068776  0.59296580  0.17490704  1
  H+  H181  1  0.51835036  0.39240026  0.01367417  1
  H+  H182  1  0.20848490  0.87434783  0.81983123  1
  H+  H183  1  0.27526987  0.15191521  0.51372829  1
  H+  H184  1  0.72025886  0.86412424  0.55124617  1
  H+  H185  1  0.43043664  0.32479265  0.11890471  1
  H+  H186  1  0.24974793  0.34667827  0.17248303  1
  H+  H187  1  0.76485335  0.88432180  0.33324901  1
  H+  H188  1  0.31725056  0.87961221  0.75173456  1
  H+  H189  1  0.27038731  0.39495189  0.81855105  1
  H+  H190  1  0.40843120  0.27904284  0.29042308  1
  H+  H191  1  1.03238654  0.69306436  0.16356387  1
  H+  H192  1  0.46590337  0.96008135  0.29422099  1
  H+  H193  1  0.85875160  0.88007506  0.33084982  1
  H+  H194  1  0.85829976  0.22786623  0.65895536  1
  H+  H195  1  0.47887725  0.87558586  -0.01266149  1
  H+  H196  1  0.77548930  0.63998085  0.14908000  1
  H+  H197  1  0.15191196  0.07551755  0.28130033  1
  H+  H198  1  0.60454155  0.63434101  0.82505650  1
  H+  H199  1  0.13314073  0.35443766  -0.01442018  1
  H+  H200  1  0.36179856  0.49513907  0.82158987  1
  H+  H201  1  0.73289857  0.86568059  0.64390857  1
  H+  H202  1  -0.03402653  0.61146643  -0.01307221  1
  H+  H203  1  0.23880847  0.62373678  0.32517169  1
  H+  H204  1  0.24412578  0.67013338  1.06858744  1
  H+  H205  1  0.36231812  0.24400981  0.50932262  1
  H+  H206  1  0.23928436  0.88558051  0.50638974  1
  H+  H207  1  0.12222038  0.13456679  0.82410004  1
  H+  H208  1  0.00701922  0.12900466  0.34718525  1
  H+  H209  1  0.60150793  -0.04102569  0.68196853  1
  H+  H210  1  0.12952661  0.60107050  0.82972137  1
  H+  H211  1  0.09108271  0.88036229  0.33627766  1
  H+  H212  1  0.51191197  0.64426346  0.32752337  1
  H+  H213  1  0.88095003  0.77038047  -0.00211257  1
  H+  H214  1  0.97908356  0.11508004  0.17310441  1
  H+  H215  1  0.13230791  0.48997902  0.33644585  1
  H+  H216  1  0.77200276  0.39814755  0.34416420  1
  H+  H217  1  0.58687847  0.15561104  0.41546700  1
  H+  H218  1  0.37105228  0.18834929  0.66798290  1
  H+  H219  1  0.42113955  0.36660378  0.56748159  1
  H+  H220  1  0.10629676  0.62894319  0.65941188  1
  H+  H221  1  0.09333759  0.43633917  0.43040841  1
  H+  H222  1  0.14499794  0.61732187  0.33045384  1
  H+  H223  1  0.39393429  0.12670198  0.52260251  1
  H+  H224  1  0.63523507  0.31660288  0.49906228  1
  H+  H225  1  0.88714042  0.53787928  0.32959005  1
  H+  H226  1  0.97705237  0.11438831  0.51369476  1
  H+  H227  1  0.41127589  0.32281502  0.94571312  1
  H+  H228  1  0.66053571  0.32879673  0.27717533  1
  H+  H229  1  0.31224148  0.27913685  0.37113259  1
  H+  H230  1  0.31192330  0.17340724  0.42269755  1
  H+  H231  1  0.12965989  0.01942308  0.99302818  1
  H+  H232  1  0.21736493  0.86187576  0.97919245  1
  H+  H233  1  0.76780256  0.12163737  0.34343330  1
  H+  H234  1  0.35977915  0.14388916  0.80973665  1
  H+  H235  1  0.15551363  0.84443934  0.92188736  1
  H+  H236  1  0.88464875  0.10671785  0.01144177  1
  H+  H237  1  0.38883512  0.69408940  0.07423441  1
  H+  H238  1  0.14257912  0.85473012  0.66173566  1
  H+  H239  1  0.77987162  0.12511491  1.00957496  1
  H+  H240  1  0.64247870  0.61449469  0.14368096  1
  H+  H241  1  0.11300144  0.14417712  0.50265913  1
  H+  H242  1  0.85216668  0.38102148  0.66308636  1
  H+  H243  1  0.86457650  -0.01796539  0.16351903  1
  H+  H244  1  0.13060564  0.26896373  0.35960811  1
  H+  H245  1  0.11710354  0.90522275  0.49629897  1
  H+  H246  1  0.63451366  0.55348220  0.49557356  1
  H+  H247  1  0.61312318  0.71741327  0.02914807  1
  H+  H248  1  0.47422158  0.39271708  0.66402228  1
  H+  H249  1  0.18960688  0.60632592  0.99578323  1
  H+  H250  1  0.35954034  0.63993210  0.84009862  1
  H+  H251  1  0.82006793  0.17212203  0.50339856  1
  H+  H252  1  0.66503260  0.08595211  0.23536881  1
  H+  H253  1  0.59320192  0.95975530  0.44162989  1
  H+  H254  1  0.39002617  0.74232004  0.16962664  1
  H+  H255  1  0.37972983  0.42695396  0.49797596  1
  H+  H256  1  0.37394443  0.04819490  0.67066527  1
  H+  H257  1  0.16524587  0.02712031  0.84112205  1
  H+  H258  1  0.51719885  0.13526180  0.36535212  1
  H+  H259  1  0.53008760  0.39328510  0.16149588  1
  H+  H260  1  0.65110340  0.10449857  -0.00824864  1
  H+  H261  1  -0.01841999  0.10901724  0.82746905  1
  H+  H262  1  0.13896457  0.01716861  0.66514251  1
  H+  H263  1  0.89523277  0.11265349  0.82730703  1
  H+  H264  1  0.47327658  0.81001422  0.68264987  1
  H+  H265  1  0.72607307  0.87380142  0.18118578  1
  H+  H266  1  0.37884537  0.31313115  0.66153948  1
  H+  H267  1  0.98369800  0.38541982  0.32860233  1
  H+  H268  1  0.63716888  0.87364679  0.18033385  1
  H+  H269  1  0.99664179  0.38947267  0.50022613  1
  H+  H270  1  0.81703163  0.64640820  0.72672027  1
  H+  H271  1  0.82733470  0.88205719  0.81207274  1
  H+  H272  1  -0.02610170  0.34723624  -0.01044242  1
  H+  H273  1  0.11576222  0.72390335  0.49744390  1
  H+  H274  1  0.73511553  0.35438666  0.50815498  1
  H+  H275  1  0.73226390  0.62270509  0.30748288  1
  H+  H276  1  0.86048411  0.89011479  0.16371811  1
  H+  H277  1  0.70898983  0.85314409  0.85213949  1
  H+  H278  1  0.40427356  0.78222458  0.99492604  1
  H+  H279  1  0.60244008  0.09571531  0.50814424  1
  H+  H280  1  0.61155558  -0.05478139  0.83068764  1
  H+  H281  1  0.77175948  0.65376346  0.49648862  1
  H+  H282  1  0.21343071  0.29061274  0.23194596  1
  H+  H283  1  0.61678694  0.43140218  0.47592132  1
  H+  H284  1  0.61241872  0.73272782  0.66910333  1
  H+  H285  1  0.23097934  0.33748215  0.35909262  1
  H+  H286  1  0.33169890  0.83989973  0.48189351  1
  H+  H287  1  0.21663856  0.10999816  0.99497393  1
  H+  H288  1  0.92518625  0.84974522  0.95006928  1
  H+  H289  1  0.32970216  0.41488054  0.06622710  1
  H+  H290  1  0.09072895  0.45649382  0.20936626  1
  H+  H291  1  0.30983972  0.16216288  0.10934987  1
  H+  H292  1  0.44696344  0.60320960  0.25383000  1
  H+  H293  1  0.34838548  0.59973392  0.48651616  1
  H+  H294  1  0.76926028  0.13557218  0.66332462  1
  H+  H295  1  0.08222170  0.15742985  0.06859365  1
  H+  H296  1  0.33016881  0.19405455  0.73041056  1
  H+  H297  1  0.31442789  0.89672020  0.05412360  1
  H+  H298  1  0.15093351  0.57779329  0.89577351  1
  H+  H299  1  0.63114168  0.62046796  0.65641546  1
  H+  H300  1  0.91263592  0.07837861  0.26696757  1
  H+  H301  1  0.83480177  0.16102328  0.07245061  1
  H+  H302  1  0.38406497  0.27637567  0.84975869  1
  H+  H303  1  0.17375236  0.08336018  0.89999726  1
  H+  H304  1  0.65625752  0.58637411  0.90638808  1
  H+  H305  1  0.06900361  0.91102441  0.43523819  1
  H+  H306  1  0.63153565  0.10871025  0.66529290  1
  H+  H307  1  0.66737080  0.84280410  0.26752706  1
  H+  H308  1  0.86596617  0.40687751  0.34343810  1
  H+  H309  1  0.63273701  0.02465408  0.33125729  1
  H+  H310  1  0.15849907  0.08024424  0.57122105  1
  H+  H311  1  0.17992396  0.33158398  0.89247228  1
  H+  H312  1  0.64479554  0.31800182  0.94478259  1
  H+  H313  1  0.57765731  0.17314030  0.73151411  1
  H+  H314  1  0.58070659  0.67546184  0.73142068  1
  H+  H315  1  0.17407790  0.57921363  0.59596472  1
  H+  H316  1  0.63587457  0.27693158  0.17891890  1
  H+  H317  1  0.09529837  0.90630533  0.73562649  1
  H+  H318  1  0.60361350  0.87475192  0.01303875  1
  H+  H319  1  0.17771402  0.84851546  0.59747392  1
  H+  H320  1  0.81635170  0.12601060  0.40465340  1
  H+  H321  1  0.33794366  0.65098741  0.39626017  1
  H+  H322  1  0.41822242  0.57748178  0.90048652  1
  H+  H323  1  0.67276553  0.59551079  0.21053427  1
  H+  H324  1  0.90861296  0.83202354  0.23095256  1
  H+  H325  1  0.29029119  0.86574177  0.42711952  1
  H+  H326  1  0.62504999  0.52133546  1.00390877  1
  H+  H327  1  0.91182649  0.34410214  0.27651794  1
  H+  H328  1  0.63342051  -0.03639482  0.54259959  1
  H+  H329  1  0.58321201  0.92174655  0.10155627  1
  H+  H330  1  0.39744649  0.82848768  0.90205750  1
  H+  H331  1  0.82574956  0.91494029  0.07564466  1
  H+  H332  1  0.92208577  0.82477195  0.57700164  1
  H+  H333  1  0.59769834  0.16965178  0.10085558  1
  H+  H334  1  0.38441066  0.51250532  0.99395630  1
  H+  H335  1  0.43105810  0.87443800  0.25700873  1
  H+  H336  1  0.68276426  0.07289057  0.93324206  1
  H+  H337  1  0.82092569  0.91496817  0.72008454  1
  H+  H338  1  0.11573843  0.10438216  0.33838689  1
  H+  H339  1  0.38101380  0.56287418  0.66176881  1
  H+  H340  1  0.07604911  0.64613294  0.75438355  1
  H+  H341  1  0.80215886  0.40968113  0.75449161  1
  H+  H342  1  0.26672950  0.65716424  0.68168180  1
  H+  H343  1  0.42282303  0.09814077  0.96329859  1
  H+  H344  1  0.24454174  0.96579509  0.54214526  1
  H+  H345  1  0.12840568  0.39927575  0.35048304  1
  H+  H346  1  0.30147281  0.65813933  0.16533751  1
  H+  H347  1  0.38254037  0.05404377  0.86485360  1
  H+  H348  1  0.65272939  0.80933656  0.94905048  1
  H+  H349  1  0.92945328  0.31510206  0.89519600  1
  H+  H350  1  0.84300569  0.39925438  0.04529944  1
  H+  H351  1  0.62483475  0.27733431  0.66163595  1
  H+  H352  1  0.25955917  0.86144185  0.14960787  1
  H+  H353  1  0.08838637  0.16924247  0.72969834  1
  H+  H354  1  0.94676797  0.88261314  0.84639249  1
  H+  H355  1  0.43029624  0.33765103  0.23220091  1
  H+  H356  1  0.19258100  0.63023440  0.23804902  1
  H+  H357  1  0.44576099  0.09242740  0.24275015  1
  H+  H358  1  0.08090679  0.91099927  0.10258100  1
  H+  H359  1  0.56938931  0.67875022  0.40018887  1
  H+  H360  1  0.69310204  0.35787748  0.84470703  1
  H+  H361  1  0.06301749  0.15495682  0.40944339  1
  H+  H362  1  0.66197405  0.60189749  0.56019433  1
  H+  H363  1  0.65138451  0.06237326  0.61014905  1
  H+  H364  1  0.57705096  0.88632698  0.77269860  1
  H+  H365  1  0.08154163  0.41240048  0.05976275  1
  H+  H366  1  0.83008192  0.67553131  0.39766754  1
  H+  H367  1  0.57206787  0.42602951  0.77139503  1
  H+  H368  1  0.01991628  0.88547597  0.01478199  1
  H+  H369  1  0.91634544  0.33931285  0.59379986  1
  H+  H370  1  0.32615526  0.44517525  0.75161644  1
  H+  H371  1  0.82383405  0.16472098  0.74786416  1
  H+  H372  1  0.48538177  0.64260765  0.66528184  1
  H+  H373  1  0.14859649  0.36284255  0.83396360  1
  H+  H374  1  0.92544972  0.60446755  0.27322438  1
  H+  H375  1  0.41446166  0.06084114  0.60431755  1
  H+  H376  1  0.65720754  0.33288300  0.60181319  1
  H+  H377  1  0.13207329  0.03217378  0.50692765  1
  H+  H378  1  0.41355376  0.04482243  0.24234670  1
  H+  H379  1  0.90750476  0.58762445  0.56186879  1
  H+  H380  1  0.83078790  0.42762855  0.43389639  1
  H+  H381  1  0.91998140  0.08356642  0.57519899  1
  H+  H382  1  0.37624266  0.38852200  0.15002594  1
  H+  H383  1  0.81500652  0.44830847  0.12353855  1
  O2-  O384  1  0.08170233  0.15197311  0.14358747  1
  O2-  O385  1  0.07924677  0.17080320  0.48721728  1
  O2-  O386  1  0.09134691  0.16394517  0.80891399  1
  O2-  O387  1  0.05313322  0.47618215  0.19197675  1
  O2-  O388  1  0.09230040  0.43172682  0.47624311  1
  O2-  O389  1  0.10230007  0.41459744  0.80964313  1
  O2-  O390  1  0.08205133  0.73908432  0.13952846  1
  O2-  O391  1  0.08322114  0.66232637  0.48934238  1
  O2-  O392  1  0.07592817  0.63926718  0.79909188  1
  O2-  O393  1  0.07582169  0.90268592  0.14780006  1
  O2-  O394  1  0.07072214  0.91610380  0.48114411  1
  O2-  O395  1  0.12785838  0.91975753  0.81683148  1
  O2-  O396  1  0.31828549  0.16170639  0.15414982  1
  O2-  O397  1  0.33570932  0.18191991  0.49880476  1
  O2-  O398  1  0.33362906  0.18051221  0.80349837  1
  O2-  O399  1  0.34161612  0.41911561  0.13996670  1
  O2-  O400  1  0.35501112  0.46118588  0.47968892  1
  O2-  O401  1  0.32854906  0.43764881  0.79826440  1
  O2-  O402  1  0.36254375  0.68195298  0.15445508  1
  O2-  O403  1  0.32739413  0.63691243  0.46852037  1
  O2-  O404  1  0.32733390  0.66869182  0.82631833  1
  O2-  O405  1  0.31758536  0.89686232  0.13169556  1
  O2-  O406  1  0.28207576  0.84772211  0.47048049  1
  O2-  O407  1  0.31255609  0.89381668  0.79555930  1
  O2-  O408  1  0.58714887  0.17067486  0.14552119  1
  O2-  O409  1  0.58597889  0.13775168  0.49460399  1
  O2-  O410  1  0.56608146  0.18084365  0.81296884  1
  O2-  O411  1  0.59235408  0.41845671  0.15014247  1
  O2-  O412  1  0.57879741  0.45228022  0.46276442  1
  O2-  O413  1  0.57070980  0.42229574  0.81669027  1
  O2-  O414  1  0.58697171  0.65345697  0.10973653  1
  O2-  O415  1  0.55984808  0.66693227  0.47749638  1
  O2-  O416  1  0.57589894  0.66550087  0.80861781  1
  O2-  O417  1  0.58158400  0.92267734  0.14708373  1
  O2-  O418  1  0.56545815  0.90150300  0.42396654  1
  O2-  O419  1  0.57452760  0.88516096  0.81791788  1
  O2-  O420  1  0.83127076  0.16583241  0.14716067  1
  O2-  O421  1  0.80537716  0.11572754  0.48783165  1
  O2-  O422  1  0.81912623  0.16314748  0.79413325  1
  O2-  O423  1  0.82391120  0.43353118  0.16446709  1
  O2-  O424  1  0.83142095  0.42637728  0.48004638  1
  O2-  O425  1  0.78151823  0.42188951  0.79392847  1
  O2-  O426  1  0.83881748  0.67217398  0.13749536  1
  O2-  O427  1  0.83418444  0.68161746  0.48382088  1
  O2-  O428  1  0.81002598  0.63556228  0.80783455  1
  O2-  O429  1  0.83069864  0.92126270  0.14877064  1
  O2-  O430  1  0.81301202  0.90583940  0.51321743  1
  O2-  O431  1  0.80689202  0.92063928  0.79956079  1
  O2-  O432  1  0.15590210  0.06855230  0.20010255  1
  O2-  O433  1  0.16339536  0.08975289  0.52599416  1
  O2-  O434  1  0.17865582  0.08527690  0.85432239  1
  O2-  O435  1  0.19605098  0.30003539  0.19217396  1
  O2-  O436  1  0.17878887  0.34833401  0.48477514  1
  O2-  O437  1  0.18232911  0.33380271  0.84701275  1
  O2-  O438  1  0.19602893  0.64622907  0.19336337  1
  O2-  O439  1  0.17559307  0.58545472  0.52397063  1
  O2-  O440  1  0.16296903  0.57694738  0.85196059  1
  O2-  O441  1  0.15746496  0.77073865  0.18004465  1
  O2-  O442  1  0.20344220  0.90650318  0.53112522  1
  O2-  O443  1  0.15360726  0.85921348  0.84163701  1
  O2-  O444  1  0.40277795  0.07333454  0.13198849  1
  O2-  O445  1  0.41450697  0.08706861  0.53519631  1
  O2-  O446  1  0.39745120  0.06918648  0.82227288  1
  O2-  O447  1  0.41872485  0.33356699  0.16071940  1
  O2-  O448  1  0.41594503  0.35890737  0.52229568  1
  O2-  O449  1  0.41169143  0.33104376  0.87254690  1
  O2-  O450  1  0.44176969  0.59066803  0.17833327  1
  O2-  O451  1  0.39402875  0.54105944  0.51581759  1
  O2-  O452  1  0.41337618  0.58247799  0.85521308  1
  O2-  O453  1  0.42330600  0.84707766  0.18838147  1
  O2-  O454  1  0.40921564  0.81147552  0.49248739  1
  O2-  O455  1  0.38523998  0.81681699  0.85699114  1
  O2-  O456  1  0.66698511  0.08640220  0.18993236  1
  O2-  O457  1  0.64749434  0.02218024  0.53187184  1
  O2-  O458  1  0.67548873  0.05812720  0.85376150  1
  O2-  O459  1  0.66306230  0.33434784  0.19880996  1
  O2-  O460  1  0.67646377  0.31192532  0.52520477  1
  O2-  O461  1  0.63483382  0.33024874  0.86291137  1
  O2-  O462  1  0.67459841  0.58871637  0.16497956  1
  O2-  O463  1  0.66790827  0.61136702  0.51502238  1
  O2-  O464  1  0.65410417  0.58339607  0.86112982  1
  O2-  O465  1  0.66810833  0.84720706  0.19993034  1
  O2-  O466  1  0.66021347  0.84166693  0.56815387  1
  O2-  O467  1  0.65198675  0.81464077  0.86989710  1
  O2-  O468  1  0.91885899  0.08643417  0.18918497  1
  O2-  O469  1  0.91687925  0.07921873  0.52933699  1
  O2-  O470  1  0.91966613  0.07674794  0.83935752  1
  O2-  O471  1  0.89101020  0.32815887  0.19004527  1
  O2-  O472  1  0.93317309  0.35928948  0.51179920  1
  O2-  O473  1  0.93940019  0.31615345  0.85028494  1
  O2-  O474  1  0.93251114  0.61498972  0.19275590  1
  O2-  O475  1  0.91035332  0.59378921  0.51618325  1
  O2-  O476  1  0.90541312  0.57187835  0.84557864  1
  O2-  O477  1  0.90892533  0.83365793  0.18552933  1
  O2-  O478  1  0.92155409  0.82540534  0.52984498  1
  O2-  O479  1  0.98147803  0.91420161  0.88148249  1
  O2-  O480  1  0.14842575  0.07467986  0.32663462  1
  O2-  O481  1  0.16182816  0.07569934  0.64753323  1
  O2-  O482  1  0.15800002  0.07925580  0.97597302  1
  O2-  O483  1  0.17215892  0.33118791  0.36644757  1
  O2-  O484  1  0.19657230  0.32997443  0.63016827  1
  O2-  O485  1  0.16332078  0.32397427  0.97225514  1
  O2-  O486  1  0.17966717  0.59463497  0.30790951  1
  O2-  O487  1  0.16154288  0.57500880  0.64176940  1
  O2-  O488  1  0.13180927  0.57516320  0.97828891  1
  O2-  O489  1  0.14246366  0.84055173  0.29714594  1
  O2-  O490  1  0.16930847  0.82547488  0.63992419  1
  O2-  O491  1  0.15593830  0.83672114  0.96666281  1
  O2-  O492  1  0.39500140  0.08410491  0.35715550  1
  O2-  O493  1  0.41923003  0.04524911  0.64836736  1
  O2-  O494  1  0.41217135  0.07316544  1.00383858  1
  O2-  O495  1  0.43276858  0.33893326  0.27821731  1
  O2-  O496  1  0.41561480  0.37281123  0.64666950  1
  O2-  O497  1  0.40849326  0.32106198  0.99193412  1
  O2-  O498  1  0.44280963  0.60451921  0.29973964  1
  O2-  O499  1  0.42380817  0.62441676  0.64957501  1
  O2-  O500  1  0.42199473  0.57288956  0.97826564  1
  O2-  O501  1  0.43963385  0.89825169  0.30049536  1
  O2-  O502  1  0.41461559  0.76018369  0.67683894  1
  O2-  O503  1  0.41761420  0.83883484  0.97479338  1
  O2-  O504  1  0.66132485  0.08396056  0.31464152  1
  O2-  O505  1  0.65925299  0.07431392  0.65442034  1
  O2-  O506  1  0.68350179  0.07518466  0.97848095  1
  O2-  O507  1  0.66283758  0.33445984  0.32258014  1
  O2-  O508  1  0.65402946  0.33783283  0.64663339  1
  O2-  O509  1  0.65880872  0.30755654  0.98622536  1
  O2-  O510  1  0.67719461  0.59293564  0.28544893  1
  O2-  O511  1  0.65889991  0.58950016  0.63855315  1
  O2-  O512  1  0.65644973  0.58585053  0.98971017  1
  O2-  O513  1  0.66981433  0.83975813  0.31505482  1
  O2-  O514  1  0.66901300  0.83316645  0.63453783  1
  O2-  O515  1  0.65414780  0.81070011  0.99470482  1
  O2-  O516  1  0.90784191  0.06994652  0.31223200  1
  O2-  O517  1  0.91717484  0.08282235  0.64948828  1
  O2-  O518  1  0.91497861  0.07292052  0.99810740  1
  O2-  O519  1  0.92280640  0.36485942  0.31881295  1
  O2-  O520  1  0.90580357  0.33123546  0.63814745  1
  O2-  O521  1  0.91508772  0.31396923  0.97178760  1
  O2-  O522  1  0.92253960  0.59997617  0.31842420  1
  O2-  O523  1  0.90634096  0.57959365  0.63763785  1
  O2-  O524  1  0.90719817  0.57704839  0.96924682  1
  O2-  O525  1  0.90513880  0.83501613  0.31066489  1
  O2-  O526  1  0.91566268  0.82461557  0.64756103  1
  O2-  O527  1  0.91221174  0.83471900  0.99344450  1
  O2-  O528  1  0.07537061  0.15731986  0.02272870  1
  O2-  O529  1  0.06651360  0.15745687  0.36405854  1
  O2-  O530  1  0.08352881  0.16749052  0.68439117  1
  O2-  O531  1  0.07734406  0.41210034  0.01550743  1
  O2-  O532  1  0.09678266  0.43134173  0.35447290  1
  O2-  O533  1  0.05916499  0.40912448  0.68416668  1
  O2-  O534  1  0.06902896  0.67690642  0.01671456  1
  O2-  O535  1  0.08703650  0.64780023  0.36145394  1
  O2-  O536  1  0.07320564  0.65728516  0.67166038  1
  O2-  O537  1  0.08244486  0.91876069  0.02486656  1
  O2-  O538  1  0.06214446  0.90772798  0.35888852  1
  O2-  O539  1  0.08949495  0.90858410  0.69096087  1
  O2-  O540  1  0.31445340  0.16071361  0.02899698  1
  O2-  O541  1  0.30966282  0.17277493  0.37717756  1
  O2-  O542  1  0.32690662  0.19892260  0.68453120  1
  O2-  O543  1  0.32916529  0.41204994  0.02009072  1
  O2-  O544  1  0.31807651  0.33512491  0.36018206  1
  O2-  O545  1  0.33488262  0.45915535  0.68198267  1
  O2-  O546  1  0.40606232  0.70656652  0.03100386  1
  O2-  O547  1  0.34498791  0.66527317  0.35096822  1
  O2-  O548  1  0.24365261  0.59666507  0.67090369  1
  O2-  O549  1  0.32071557  0.90581107  0.00891563  1
  O2-  O550  1  0.29998439  0.90056720  0.35220394  1
  O2-  O551  1  0.32967485  0.86306890  0.67769928  1
  O2-  O552  1  0.59791254  0.15130680  0.02299786  1
  O2-  O553  1  0.58007088  0.16206083  0.37106181  1
  O2-  O554  1  0.58055607  0.16892822  0.68668627  1
  O2-  O555  1  0.57937606  0.43069882  0.02533183  1
  O2-  O556  1  0.58244519  0.42955153  0.34324802  1
  O2-  O557  1  0.57704556  0.42983009  0.69081699  1
  O2-  O558  1  0.58371609  0.65391889  0.04224486  1
  O2-  O559  1  0.57691936  0.68002239  0.35493677  1
  O2-  O560  1  0.57668091  0.67324222  0.68562087  1
  O2-  O561  1  0.58064760  0.91341910  0.02306136  1
  O2-  O562  1  0.58120481  0.91787796  0.35832396  1
  O2-  O563  1  0.57948675  0.89817763  0.69334886  1
  O2-  O564  1  0.84009155  0.15689950  0.02675594  1
  O2-  O565  1  0.82478099  0.13720884  0.36051765  1
  O2-  O566  1  0.83124215  0.16734863  0.67535855  1
  O2-  O567  1  0.83910073  0.40403229  0.00142572  1
  O2-  O568  1  0.83216681  0.43406459  0.35901150  1
  O2-  O569  1  0.82408014  0.41367962  0.67863059  1
  O2-  O570  1  0.82655547  0.66292776  0.01561092  1
  O2-  O571  1  0.83405756  0.67650268  0.35291592  1
  O2-  O572  1  0.82278128  0.65713764  0.68208989  1
  O2-  O573  1  0.82607737  0.91491475  0.02926480  1
  O2-  O574  1  0.82917197  0.91455481  0.34515333  1
  O2-  O575  1  0.83160814  0.91352458  0.67568579  1
