# generated using pymatgen
data_H2O
_symmetry_space_group_name_H-M   'P 1'
_cell_length_a   17.98910545
_cell_length_b   17.98816592
_cell_length_c   22.00593129
_cell_angle_alpha   89.98150296
_cell_angle_beta   90.02345209
_cell_angle_gamma   119.97314789
_symmetry_Int_Tables_number   1
_chemical_formula_structural   H2O
_chemical_formula_sum   'H384 O192'
_cell_volume   6168.56640029
_cell_formula_units_Z   192
loop_
 _symmetry_equiv_pos_site_id
 _symmetry_equiv_pos_as_xyz
  1  'x, y, z'
loop_
 _atom_type_symbol
 _atom_type_oxidation_number
  H+  1.0
  O2-  -2.0
loop_
 _atom_site_type_symbol
 _atom_site_label
 _atom_site_symmetry_multiplicity
 _atom_site_fract_x
 _atom_site_fract_y
 _atom_site_fract_z
 _atom_site_occupancy
  H+  H0  1  0.10531937  -0.02190297  0.49542630  1
  H+  H1  1  0.36515278  0.14280168  0.16673397  1
  H+  H2  1  0.38755322  0.52955541  0.32576129  1
  H+  H3  1  0.96258274  0.59058413  0.84233654  1
  H+  H4  1  0.02369029  0.87655310  0.82355517  1
  H+  H5  1  0.72841805  0.12664062  0.51289878  1
  H+  H6  1  0.89162275  0.85824815  0.84086445  1
  H+  H7  1  0.29190047  0.90237958  0.68629524  1
  H+  H8  1  0.12094648  0.88298845  0.82176573  1
  H+  H9  1  0.88767151  0.03063631  0.99632345  1
  H+  H10  1  0.61858668  0.89528204  0.49514171  1
  H+  H11  1  0.27232959  0.89213469  1.00244510  1
  H+  H12  1  0.52008356  0.38507155  0.83076559  1
  H+  H13  1  0.73159634  0.88036947  0.32337844  1
  H+  H14  1  0.13217840  0.26759368  0.16682135  1
  H+  H15  1  0.77327629  0.14004617  0.15104620  1
  H+  H16  1  0.47383475  0.11543315  0.51099917  1
  H+  H17  1  0.57984504  0.45908554  0.00139638  1
  H+  H18  1  0.66189979  0.07927068  0.10319233  1
  H+  H19  1  0.72493973  0.36522075  0.17244010  1
  H+  H20  1  0.38429497  0.28223588  0.17877932  1
  H+  H21  1  0.77167375  0.39994828  1.01510942  1
  H+  H22  1  0.51303985  0.88513365  -0.00904491  1
  H+  H23  1  0.53975798  0.13519769  0.33280965  1
  H+  H24  1  0.33990403  0.20319108  0.49408349  1
  H+  H25  1  0.62179334  0.98562595  0.49773902  1
  H+  H26  1  0.27493828  0.14173241  0.16404049  1
  H+  H27  1  0.88127258  0.35299542  0.84039529  1
  H+  H28  1  0.53325154  0.63409625  0.66964785  1
  H+  H29  1  0.36879752  0.63913367  0.16094529  1
  H+  H30  1  0.40122558  0.77005112  0.18224616  1
  H+  H31  1  0.59910297  0.22191707  0.49953835  1
  H+  H32  1  0.62587579  0.27046261  0.84692455  1
  H+  H33  1  0.10619932  0.46888434  0.83366056  1
  H+  H34  1  0.31637652  0.87932909  0.09000179  1
  H+  H35  1  0.36381469  -0.02136186  1.00859572  1
  H+  H36  1  0.39140273  0.59723136  0.66317257  1
  H+  H37  1  0.23779629  0.62601196  -0.01127039  1
  H+  H38  1  0.46957130  0.37085707  0.17778777  1
  H+  H39  1  0.92438095  0.82664424  0.59404015  1
  H+  H40  1  0.86677881  0.72705761  0.33217148  1
  H+  H41  1  0.13976417  0.61757039  0.67410452  1
  H+  H42  1  0.32343983  0.41231389  0.43504038  1
  H+  H43  1  0.73358366  0.86444632  0.65930488  1
  H+  H44  1  0.87701711  0.88544340  0.65771935  1
  H+  H45  1  0.24762860  0.54246681  0.46349724  1
  H+  H46  1  0.60456287  0.63209828  0.15623717  1
  H+  H47  1  0.36982432  0.22423728  0.35416240  1
  H+  H48  1  0.53016826  0.89529307  0.32703543  1
  H+  H49  1  0.72582275  0.17231146  0.36661974  1
  H+  H50  1  0.71364343  0.10361863  0.98766263  1
  H+  H51  1  0.63301010  0.86477021  0.99356765  1
  H+  H52  1  0.75945138  0.10780017  0.36903547  1
  H+  H53  1  0.86833595  0.98029277  0.15683758  1
  H+  H54  1  0.88071719  0.28975816  0.51511295  1
  H+  H55  1  0.71141494  0.35724377  0.51160315  1
  H+  H56  1  0.21602155  0.86329518  0.18173301  1
  H+  H57  1  0.13698922  0.87512452  -0.00648216  1
  H+  H58  1  0.57662005  0.66981738  0.06705660  1
  H+  H59  1  0.39552007  1.11466539  0.33248039  1
  H+  H60  1  0.84995970  0.45792444  0.83262172  1
  H+  H61  1  0.02567081  0.13938800  0.67829505  1
  H+  H62  1  1.03311354  0.64711577  1.01328456  1
  H+  H63  1  0.89175833  0.86787062  0.16897225  1
  H+  H64  1  0.61136125  0.23317745  0.00677014  1
  H+  H65  1  0.10435423  0.38179691  0.67800399  1
  H+  H66  1  0.62054367  0.14556895  0.15055097  1
  H+  H67  1  0.27489731  0.38023017  0.49905253  1
  H+  H68  1  0.62730876  0.85971939  0.84121295  1
  H+  H69  1  0.85344236  0.63415806  0.48327507  1
  H+  H70  1  0.38988752  0.73583114  0.36096787  1
  H+  H71  1  0.60922407  0.38624474  0.83379528  1
  H+  H72  1  0.61584949  0.63829057  0.82335997  1
  H+  H73  1  0.37573292  -0.01600102  0.49060958  1
  H+  H74  1  0.89960260  0.10431844  0.33078964  1
  H+  H75  1  0.98681149  0.58278070  0.46982868  1
  H+  H76  1  0.37395222  0.26147407  0.99694933  1
  H+  H77  1  0.11501548  0.22569228  0.68049696  1
  H+  H78  1  0.40811014  0.36081515  0.33628173  1
  H+  H79  1  0.84780392  0.38509241  0.50058600  1
  H+  H80  1  0.12749782  0.89524564  0.67809724  1
  H+  H81  1  0.88159466  0.27523031  0.18237813  1
  H+  H82  1  0.60289714  0.97433721  0.14942305  1
  H+  H83  1  0.11301459  0.63027013  0.84449796  1
  H+  H84  1  0.65054044  0.51912890  0.31783309  1
  H+  H85  1  0.64440089  0.88500909  0.31079903  1
  H+  H86  1  0.14707161  0.61563303  0.17558646  1
  H+  H87  1  0.61654754  0.13162407  0.30106841  1
  H+  H88  1  0.77558432  0.63733006  0.32988129  1
  H+  H89  1  0.70104285  0.32786172  0.66657353  1
  H+  H90  1  0.48672776  0.60669742  0.32986540  1
  H+  H91  1  0.13517598  0.35665922  0.84492025  1
  H+  H92  1  0.89377437  0.77049230  0.83822415  1
  H+  H93  1  0.15628576  0.78275281  0.83670350  1
  H+  H94  1  0.97890724  0.85821415  0.50364917  1
  H+  H95  1  0.60325038  0.13560604  0.50160218  1
  H+  H96  1  0.34459077  0.84406234  0.15088143  1
  H+  H97  1  0.58591045  0.59103074  0.98386836  1
  H+  H98  1  0.63378752  0.52222244  0.83421179  1
  H+  H99  1  0.61135363  0.63759012  0.50104961  1
  H+  H100  1  0.62867434  0.36386199  1.00012427  1
  H+  H101  1  0.85974534  0.51052947  0.50225690  1
  H+  H102  1  0.91026431  0.63010321  0.65363314  1
  H+  H103  1  0.62335813  0.72650664  0.16100537  1
  H+  H104  1  0.38951551  0.51167892  0.50936083  1
  H+  H105  1  0.59291760  0.42456379  0.73621285  1
  H+  H106  1  0.88896011  0.12255797  0.66409221  1
  H+  H107  1  0.72576953  0.61415313  0.16723319  1
  H+  H108  1  0.11836900  0.48568705  0.34684395  1
  H+  H109  1  0.61095793  0.39066074  0.15816675  1
  H+  H110  1  0.54476776  0.40642044  0.46510768  1
  H+  H111  1  0.13569740  0.86622593  0.32961001  1
  H+  H112  1  0.48999675  0.65802370  0.18173920  1
  H+  H113  1  0.87389134  0.51120925  0.17774184  1
  H+  H114  1  0.62750120  0.89587867  0.67483154  1
  H+  H115  1  0.21490787  0.10125327  0.51336744  1
  H+  H116  1  0.26979234  0.37946741  0.83162655  1
  H+  H117  1  0.50364180  0.36614451  0.00847476  1
  H+  H118  1  0.49301751  0.88414751  0.49911726  1
  H+  H119  1  0.40112565  0.65383732  0.35654095  1
  H+  H120  1  0.08321522  0.72401696  0.48829261  1
  H+  H121  1  0.89194898  0.87405627  0.99195792  1
  H+  H122  1  0.84945339  0.36781475  0.68059903  1
  H+  H123  1  0.40233329  0.85957196  0.88173541  1
  H+  H124  1  0.47409658  0.86548314  0.17000020  1
  H+  H125  1  0.36181892  0.46590043  0.67654481  1
  H+  H126  1  0.22028197  0.10363100  0.67079319  1
  H+  H127  1  0.17027196  0.08539751  0.26453768  1
  H+  H128  1  0.09876245  0.37453125  0.16892153  1
  H+  H129  1  0.21626419  0.60956733  0.84519809  1
  H+  H130  1  0.13876764  0.61757056  0.32976399  1
  H+  H131  1  0.88199805  0.27275640  0.66826255  1
  H+  H132  1  0.36127270  0.21990985  0.83134670  1
  H+  H133  1  0.62947656  0.38134128  0.33285909  1
  H+  H134  1  0.40330667  0.88941656  0.66559795  1
  H+  H135  1  0.60848798  0.14243382  1.00343288  1
  H+  H136  1  0.85752638  0.21950295  0.00945071  1
  H+  H137  1  0.90246983  0.16174108  0.01342571  1
  H+  H138  1  0.63947495  0.12111834  0.66798050  1
  H+  H139  1  0.57909262  0.17613324  0.10080168  1
  H+  H140  1  0.47726929  0.11606390  0.66761668  1
  H+  H141  1  0.86415540  0.88460744  0.33947781  1
  H+  H142  1  0.47279753  0.61676295  -0.00600888  1
  H+  H143  1  0.88546208  0.11290879  0.17713337  1
  H+  H144  1  0.58690964  0.66916607  0.76400112  1
  H+  H145  1  0.12308891  0.70021377  0.08574750  1
  H+  H146  1  0.72331917  0.54760856  1.00540155  1
  H+  H147  1  0.97944321  0.86606349  0.17042300  1
  H+  H148  1  0.11237598  0.42968483  0.43259161  1
  H+  H149  1  0.15697332  0.07558149  0.57426518  1
  H+  H150  1  0.16059238  0.79433537  0.66728712  1
  H+  H151  1  0.48474740  0.61082726  0.83471143  1
  H+  H152  1  0.14857289  0.62401225  0.99387929  1
  H+  H153  1  0.38632488  0.86273190  0.33039846  1
  H+  H154  1  0.54140332  0.90180268  0.67303887  1
  H+  H155  1  0.33547954  0.91830822  0.39972676  1
  H+  H156  1  0.35026320  0.12028759  0.49799303  1
  H+  H157  1  0.10988125  0.89010992  0.16158935  1
  H+  H158  1  0.07692622  0.58756361  0.47862475  1
  H+  H159  1  0.77469327  0.89096858  1.00455198  1
  H+  H160  1  0.11759395  0.97983374  0.33643408  1
  H+  H161  1  0.88405433  0.28254401  0.33225950  1
  H+  H162  1  0.85904861  0.87678120  0.49026362  1
  H+  H163  1  0.86261313  0.13238094  0.83024988  1
  H+  H164  1  0.32301149  0.63443821  0.43677227  1
  H+  H165  1  0.47713056  0.12127036  0.17655140  1
  H+  H166  1  0.13663173  0.02894737  0.17150399  1
  H+  H167  1  0.88851678  0.76899076  0.50221142  1
  H+  H168  1  0.48194746  0.11546239  0.84315511  1
  H+  H169  1  0.64311891  0.26340334  0.31776127  1
  H+  H170  1  0.12301408  -0.01048822  1.00872074  1
  H+  H171  1  0.08509161  0.92206198  0.39721857  1
  H+  H172  1  -0.01423446  0.14352808  0.50644055  1
  H+  H173  1  -0.06005918  0.56049700  0.64017320  1
  H+  H174  1  0.14503663  0.27565063  0.51291696  1
  H+  H175  1  0.21065503  0.60764758  0.51304915  1
  H+  H176  1  0.92527321  0.84187546  0.93470488  1
  H+  H177  1  0.38276212  0.35388644  0.84205245  1
  H+  H178  1  0.63742460  0.02750281  0.83710101  1
  H+  H179  1  0.13324321  0.77517008  0.32986589  1
  H+  H180  1  0.38476401  0.78421935  -0.02526620  1
  H+  H181  1  0.87366863  0.51523227  0.32681803  1
  H+  H182  1  0.60920447  0.98068938  0.30124163  1
  H+  H183  1  0.96893974  0.36415597  0.67029195  1
  H+  H184  1  0.13672149  0.11819900  0.17048186  1
  H+  H185  1  0.64681869  0.53426697  0.50917102  1
  H+  H186  1  0.12020135  0.47493052  0.49794045  1
  H+  H187  1  0.90913707  0.62877866  0.99857709  1
  H+  H188  1  0.66253434  0.83280273  0.93626690  1
  H+  H189  1  0.51995045  0.63252417  0.49734815  1
  H+  H190  1  0.21966725  0.11482009  0.85143280  1
  H+  H191  1  0.26206312  0.38006248  0.33555368  1
  H+  H192  1  0.87098762  0.73074957  0.16791845  1
  H+  H193  1  0.86163915  0.40299950  0.01087690  1
  H+  H194  1  0.61834558  0.39176425  0.49552661  1
  H+  H195  1  0.97320005  0.36318345  0.18158253  1
  H+  H196  1  0.11616863  -0.01924783  0.68007581  1
  H+  H197  1  0.37397510  0.64882129  0.99500939  1
  H+  H198  1  0.89075297  0.03619117  0.64879622  1
  H+  H199  1  0.13193659  0.10751876  0.67021022  1
  H+  H200  1  0.61292337  0.38738183  0.67691830  1
  H+  H201  1  0.71982095  0.10828485  0.27195400  1
  H+  H202  1  0.35511312  0.33760691  0.66589971  1
  H+  H203  1  0.40068039  0.02132042  0.84617938  1
  H+  H204  1  0.87239283  0.16200625  0.50015208  1
  H+  H205  1  0.07220225  0.67980877  0.87755039  1
  H+  H206  1  0.10207110  0.46449267  0.17161400  1
  H+  H207  1  0.32704556  0.41000181  0.73822116  1
  H+  H208  1  0.37805708  0.35364273  -0.00534000  1
  H+  H209  1  1.03912630  0.13770230  1.01116122  1
  H+  H210  1  0.23259540  0.11273539  0.32351789  1
  H+  H211  1  0.37871205  0.99273878  0.68339122  1
  H+  H212  1  0.32294337  0.15277036  0.73968129  1
  H+  H213  1  0.86353556  0.39206811  0.34238519  1
  H+  H214  1  0.60072679  -0.02761939  0.99692447  1
  H+  H215  1  0.77047464  0.38306853  0.33676113  1
  H+  H216  1  0.76131717  0.87525992  0.84272149  1
  H+  H217  1  0.73066394  0.62513199  0.50616257  1
  H+  H218  1  0.63228205  0.77170854  0.50627710  1
  H+  H219  1  0.35258764  0.39090867  0.16506434  1
  H+  H220  1  0.82846094  0.67096150  0.42567178  1
  H+  H221  1  0.44542437  0.33246739  0.52599859  1
  H+  H222  1  0.62739123  0.76987150  0.83982750  1
  H+  H223  1  0.38088288  0.87093900  -0.02049451  1
  H+  H224  1  0.89271811  0.75243211  0.01056352  1
  H+  H225  1  0.35919434  0.13024415  0.83292502  1
  H+  H226  1  0.73036389  0.77586593  0.21592318  1
  H+  H227  1  0.86165242  0.63090313  0.82739731  1
  H+  H228  1  0.03111677  0.12692357  0.34439709  1
  H+  H229  1  0.80960473  0.66061296  0.01554910  1
  H+  H230  1  0.39965247  0.80529154  0.63797959  1
  H+  H231  1  0.78663484  0.63374742  0.67107824  1
  H+  H232  1  0.13320763  0.74750294  0.15690332  1
  H+  H233  1  0.47429880  0.11455284  0.99789914  1
  H+  H234  1  0.34649188  0.68256569  0.88023921  1
  H+  H235  1  0.14644614  0.26027768  1.00308545  1
  H+  H236  1  0.97604695  0.10893172  0.84282835  1
  H+  H237  1  0.86371017  0.22228353  0.83199493  1
  H+  H238  1  0.13312157  0.11611218  1.00699921  1
  H+  H239  1  0.08511387  0.90980135  0.75399844  1
  H+  H240  1  0.72884193  0.11517371  0.83964121  1
  H+  H241  1  0.10578873  0.77159926  0.49413151  1
  H+  H242  1  0.88529836  0.01999041  0.84568640  1
  H+  H243  1  0.03321901  0.89853158  0.00635299  1
  H+  H244  1  0.34319451  0.20954435  0.67815612  1
  H+  H245  1  0.51944545  0.90056463  0.81826583  1
  H+  H246  1  0.21749715  0.36017162  0.16895853  1
  H+  H247  1  0.35951417  0.46939137  0.00506206  1
  H+  H248  1  0.65335910  0.53002140  0.66571097  1
  H+  H249  1  0.22362902  0.11048302  1.00353628  1
  H+  H250  1  0.87745069  0.60819485  0.17853190  1
  H+  H251  1  0.11836550  0.74212635  1.00387895  1
  H+  H252  1  0.22668762  0.60249726  0.17478333  1
  H+  H253  1  0.11051827  0.13337504  0.83918236  1
  H+  H254  1  0.61689381  0.62297392  0.34342346  1
  H+  H255  1  0.64406115  0.77622403  0.66250363  1
  H+  H256  1  0.36018715  0.13309848  1.01431900  1
  H+  H257  1  0.60829298  0.73040874  0.00759630  1
  H+  H258  1  0.15858582  0.25450248  0.31912769  1
  H+  H259  1  0.36129105  0.46730815  0.83008692  1
  H+  H260  1  0.32365485  0.14945232  0.40152269  1
  H+  H261  1  0.26113204  0.90337665  0.51551775  1
  H+  H262  1  0.38391330  0.11204894  0.66767838  1
  H+  H263  1  0.02785571  0.13515156  0.15371166  1
  H+  H264  1  0.03145710  0.39590679  0.35007186  1
  H+  H265  1  0.39709398  0.61155975  0.83515834  1
  H+  H266  1  0.26104400  0.45698108  0.36953429  1
  H+  H267  1  0.70895972  0.56592435  0.03072909  1
  H+  H268  1  0.97941121  0.86429661  0.32511087  1
  H+  H269  1  0.89156223  0.01172356  0.33119395  1
  H+  H270  1  0.27481472  0.88914964  0.34086493  1
  H+  H271  1  0.39355952  1.02520027  0.32994016  1
  H+  H272  1  0.87632351  0.60889643  0.32389416  1
  H+  H273  1  0.61427790  0.14383721  0.82949318  1
  H+  H274  1  0.60977062  0.24554716  0.66343783  1
  H+  H275  1  0.98285221  0.85888182  0.65529878  1
  H+  H276  1  0.13471524  0.26778511  0.84390424  1
  H+  H277  1  0.63632440  0.52403834  0.16572488  1
  H+  H278  1  0.71674222  0.35520264  0.84861302  1
  H+  H279  1  0.77460935  0.14290865  0.67686973  1
  H+  H280  1  0.62543692  0.64020560  0.67293521  1
  H+  H281  1  0.35909161  0.69878434  0.70399378  1
  H+  H282  1  0.16322558  0.33149068  0.60851362  1
  H+  H283  1  0.86528107  0.38806639  0.16845052  1
  H+  H284  1  0.36818567  0.34601643  0.50223228  1
  H+  H285  1  0.11239835  0.13871433  0.50076261  1
  H+  H286  1  0.21833052  0.60072190  0.67097904  1
  H+  H287  1  0.21901787  0.36219371  0.66902338  1
  H+  H288  1  0.85411217  0.67798988  0.10705643  1
  H+  H289  1  0.04789953  0.66684341  0.67660204  1
  H+  H290  1  0.78662123  0.88406960  0.16016988  1
  H+  H291  1  0.91278590  0.58834545  0.55036974  1
  H+  H292  1  0.89927846  0.57134973  0.24755935  1
  H+  H293  1  0.41090086  0.32367644  0.90196812  1
  H+  H294  1  0.15735159  0.83302795  0.24165707  1
  H+  H295  1  0.18370307  0.31119309  0.25767120  1
  H+  H296  1  0.66998358  0.58114938  0.25980176  1
  H+  H297  1  0.66067648  0.08362423  0.92627375  1
  H+  H298  1  0.33373673  0.16640392  0.07443096  1
  H+  H299  1  0.88514051  0.94786609  0.71010018  1
  H+  H300  1  0.16850460  0.84505330  0.93351666  1
  H+  H301  1  0.83679102  0.42119224  0.10807419  1
  H+  H302  1  0.35283828  0.74531937  0.82970332  1
  H+  H303  1  0.41506957  0.08194084  0.93892287  1
  H+  H304  1  0.19667359  0.86527543  0.61181864  1
  H+  H305  1  0.68065414  0.58987011  0.60550433  1
  H+  H306  1  0.41359189  0.08326416  0.57082451  1
  H+  H307  1  0.97444418  0.35815084  0.84106763  1
  H+  H308  1  0.08603365  0.92030555  0.09898520  1
  H+  H309  1  0.37237318  0.58918585  0.50821118  1
  H+  H310  1  0.87410687  0.72388377  0.66988105  1
  H+  H311  1  0.77038175  0.87701116  0.48940226  1
  H+  H312  1  0.37878449  0.89556823  0.49108089  1
  H+  H313  1  0.81505595  0.39413785  0.77493225  1
  H+  H314  1  0.58866247  0.92339944  0.76582310  1
  H+  H315  1  0.17143704  0.58434575  0.27583327  1
  H+  H316  1  0.91656848  0.33893912  0.27231283  1
  H+  H317  1  0.16336538  0.08907520  0.91211137  1
  H+  H318  1  0.36913972  0.29908776  0.60472378  1
  H+  H319  1  0.56435375  0.90926393  0.09495082  1
  H+  H320  1  0.41905164  0.58316454  0.93248270  1
  H+  H321  1  0.41849025  0.57148493  0.60076179  1
  H+  H322  1  0.24516077  0.86981043  0.83906773  1
  H+  H323  1  0.90455358  0.34696301  0.57423109  1
  H+  H324  1  0.12294897  0.90142360  0.49413073  1
  H+  H325  1  0.36075936  0.91361422  0.77415196  1
  H+  H326  1  0.29880569  0.57113912  0.11608903  1
  H+  H327  1  0.81635950  0.40889892  0.43772367  1
  H+  H328  1  0.64908563  0.03695294  0.66378404  1
  H+  H329  1  0.16264339  0.57970645  0.90690682  1
  H+  H330  1  0.58457427  0.65271394  0.40207254  1
  H+  H331  1  0.72386771  0.61114983  0.83593507  1
  H+  H332  1  0.41170422  0.82949372  0.27151137  1
  H+  H333  1  0.91084553  0.57163297  0.90385918  1
  H+  H334  1  0.85923582  0.18432375  0.11048460  1
  H+  H335  1  0.92078392  0.83631755  0.26504527  1
  H+  H336  1  0.84231862  0.66484320  0.76560528  1
  H+  H337  1  0.22145479  0.76959565  0.12413900  1
  H+  H338  1  0.09233516  0.17016466  0.43803831  1
  H+  H339  1  0.91984083  0.34914405  0.92954452  1
  H+  H340  1  0.61845092  0.56351329  0.92504221  1
  H+  H341  1  0.32614112  0.41404905  0.10256531  1
  H+  H342  1  0.66871764  0.09329101  0.57114629  1
  H+  H343  1  0.15627042  0.37050216  0.51165794  1
  H+  H344  1  0.11981265  0.12754965  0.34466958  1
  H+  H345  1  0.15544061  0.58681368  0.57415418  1
  H+  H346  1  0.91863151  0.08943977  0.93714173  1
  H+  H347  1  0.82378061  0.44206194  0.68179149  1
  H+  H348  1  0.66906218  0.32969714  0.26146821  1
  H+  H349  1  0.66358744  0.33701988  0.94206570  1
  H+  H350  1  0.08175124  0.16074993  0.77668008  1
  H+  H351  1  0.83691454  0.92056037  0.06269588  1
  H+  H352  1  0.42015115  0.08996675  0.23577451  1
  H+  H353  1  0.92877136  0.11786925  0.56624570  1
  H+  H354  1  0.65926125  0.07896584  0.21436698  1
  H+  H355  1  0.62077068  0.42887075  0.39197959  1
  H+  H356  1  0.64899573  0.32399244  0.57053120  1
  H+  H357  1  0.83369664  0.16749586  0.73718337  1
  H+  H358  1  0.31810021  0.62424909  0.74950030  1
  H+  H359  1  0.27116308  0.37713554  0.00756789  1
  H+  H360  1  0.10323368  0.47080503  0.67986104  1
  H+  H361  1  0.02156860  0.64012629  0.32814743  1
  H+  H362  1  0.91939887  0.07837574  0.23164436  1
  H+  H363  1  0.89615231  0.53412374  1.00334300  1
  H+  H364  1  0.43233918  0.62941386  0.24192747  1
  H+  H365  1  0.06551328  0.64333635  0.39047481  1
  H+  H366  1  0.68903165  0.83068678  0.24065895  1
  H+  H367  1  0.53793261  0.07800654  0.71250654  1
  H+  H368  1  0.34566416  0.68078238  0.05314265  1
  H+  H369  1  0.57916129  0.16649339  0.76887673  1
  H+  H370  1  0.09412059  0.68644294  0.74133689  1
  H+  H371  1  0.24204495  0.96810065  0.54985860  1
  H+  H372  1  0.97640581  0.31886479  0.02029110  1
  H+  H373  1  0.44061877  0.87317118  0.55921083  1
  H+  H374  1  0.63553485  0.27585163  0.16978350  1
  H+  H375  1  0.17012254  0.32066120  0.94396379  1
  H+  H376  1  0.57544179  0.41546374  0.09914844  1
  H+  H377  1  0.49433337  0.36302958  0.35210706  1
  H+  H378  1  0.07795507  0.41110073  0.77326881  1
  H+  H379  1  0.09032807  0.16276325  0.09147836  1
  H+  H380  1  0.83067508  0.18967458  0.44512949  1
  H+  H381  1  0.66725622  0.83270740  0.56445246  1
  H+  H382  1  0.81088427  0.89564570  0.78201021  1
  H+  H383  1  0.83441378  0.91204852  0.40112577  1
  O2-  O384  1  0.08852258  0.16448930  0.14093336  1
  O2-  O385  1  0.09129770  0.17589529  0.48338031  1
  O2-  O386  1  0.07704477  0.16106028  0.82167999  1
  O2-  O387  1  0.06628474  0.40459761  0.15801923  1
  O2-  O388  1  0.13825146  0.43946570  0.47523542  1
  O2-  O389  1  0.07666368  0.40864735  0.81876129  1
  O2-  O390  1  0.15423175  0.71619571  0.12914884  1
  O2-  O391  1  0.03420963  0.58189247  0.44779684  1
  O2-  O392  1  0.08372104  0.66637684  0.83678293  1
  O2-  O393  1  0.08026468  0.91952594  0.14446308  1
  O2-  O394  1  0.08335379  0.91936442  0.47721637  1
  O2-  O395  1  0.08335058  0.90462867  0.80452455  1
  O2-  O396  1  0.33551248  0.17313667  0.14932843  1
  O2-  O397  1  0.31212251  0.14181276  0.48129614  1
  O2-  O398  1  0.32810412  0.15877190  0.81712502  1
  O2-  O399  1  0.32010105  0.41730876  0.14719253  1
  O2-  O400  1  0.33349118  0.40711815  0.47937560  1
  O2-  O401  1  0.33009700  0.40744527  0.81486280  1
  O2-  O402  1  0.31876247  0.62900403  0.13143595  1
  O2-  O403  1  0.29368832  0.60035631  0.47539645  1
  O2-  O404  1  0.33391404  0.68338798  0.83704572  1
  O2-  O405  1  0.29557502  0.84662458  0.12939380  1
  O2-  O406  1  0.34265112  0.92297650  0.47677364  1
  O2-  O407  1  0.35580189  0.90581083  0.82028556  1
  O2-  O408  1  0.58630605  0.17655319  0.14563376  1
  O2-  O409  1  0.56770499  0.16063110  0.48764289  1
  O2-  O410  1  0.58138452  0.17183892  0.81606427  1
  O2-  O411  1  0.58309498  0.42361865  0.14428898  1
  O2-  O412  1  0.60616935  0.43403664  0.47291278  1
  O2-  O413  1  0.58106083  0.41733853  0.81636637  1
  O2-  O414  1  0.58093701  0.66935042  0.14324678  1
  O2-  O415  1  0.58061835  0.66557995  0.48310359  1
  O2-  O416  1  0.58449789  0.66884942  0.80959383  1
  O2-  O417  1  0.56533976  0.91242324  0.13983923  1
  O2-  O418  1  0.58983999  0.92676597  0.48084673  1
  O2-  O419  1  0.58098124  0.92139466  0.81143196  1
  O2-  O420  1  0.83949558  0.17240931  0.15346398  1
  O2-  O421  1  0.83391980  0.18753208  0.48951628  1
  O2-  O422  1  0.83167603  0.16239745  0.81540769  1
  O2-  O423  1  0.83572396  0.42051701  0.15358580  1
  O2-  O424  1  0.81171264  0.40970732  0.48278064  1
  O2-  O425  1  0.82017967  0.39650932  0.82024204  1
  O2-  O426  1  0.84337407  0.67013786  0.15166081  1
  O2-  O427  1  0.82842349  0.67096428  0.47115835  1
  O2-  O428  1  0.83925993  0.66737571  0.81092337  1
  O2-  O429  1  0.84329400  0.92077621  0.13935957  1
  O2-  O430  1  0.82925977  0.90473511  0.47184874  1
  O2-  O431  1  0.82157268  0.90132270  0.82567362  1
  O2-  O432  1  0.16731773  0.08812673  0.18814773  1
  O2-  O433  1  0.15430107  0.07496899  0.52899634  1
  O2-  O434  1  0.16020009  0.08990809  0.86653666  1
  O2-  O435  1  0.15736886  0.32595542  0.18588217  1
  O2-  O436  1  0.17811800  0.33446024  0.53143600  1
  O2-  O437  1  0.16879394  0.32908296  0.85725574  1
  O2-  O438  1  0.16883763  0.58042333  0.19341367  1
  O2-  O439  1  0.15239045  0.58943048  0.52948480  1
  O2-  O440  1  0.15653271  0.57671080  0.86000876  1
  O2-  O441  1  0.15562531  0.83375069  0.19503067  1
  O2-  O442  1  0.21512458  0.90677928  0.54143186  1
  O2-  O443  1  0.18289965  0.84404176  0.84827193  1
  O2-  O444  1  0.41681887  0.09229936  0.19074725  1
  O2-  O445  1  0.41102573  0.08278450  0.52555439  1
  O2-  O446  1  0.42141088  0.08077220  0.85941002  1
  O2-  O447  1  0.41070030  0.34201678  0.19420436  1
  O2-  O448  1  0.38335349  0.30441351  0.52274485  1
  O2-  O449  1  0.41479210  0.32511658  0.85627784  1
  O2-  O450  1  0.44238702  0.66102730  0.20247686  1
  O2-  O451  1  0.41342115  0.57138830  0.52526170  1
  O2-  O452  1  0.42381312  0.57957627  0.85070125  1
  O2-  O453  1  0.41303454  0.82897268  0.18702771  1
  O2-  O454  1  0.43191305  0.85891771  0.51587354  1
  O2-  O455  1  0.40071546  0.85802875  0.83528706  1
  O2-  O456  1  0.67217659  0.09233252  0.14627314  1
  O2-  O457  1  0.66713348  0.09253390  0.52584785  1
  O2-  O458  1  0.66748661  0.08707721  0.85394328  1
  O2-  O459  1  0.66408121  0.33681008  0.18589372  1
  O2-  O460  1  0.65009678  0.33057403  0.52536001  1
  O2-  O461  1  0.65682491  0.33037694  0.86399753  1
  O2-  O462  1  0.66556444  0.58515264  0.18160446  1
  O2-  O463  1  0.67340633  0.59291898  0.52683442  1
  O2-  O464  1  0.66254845  0.58422603  0.84718359  1
  O2-  O465  1  0.70437182  0.80817665  0.19992908  1
  O2-  O466  1  0.66681247  0.83299389  0.51949446  1
  O2-  O467  1  0.65674584  0.82941788  0.85739400  1
  O2-  O468  1  0.91516221  0.07970854  0.18675974  1
  O2-  O469  1  0.92652321  0.12253299  0.52155280  1
  O2-  O470  1  0.91428448  0.08111944  0.85733372  1
  O2-  O471  1  0.91060439  0.33630378  0.19681553  1
  O2-  O472  1  0.90381594  0.35012473  0.52940237  1
  O2-  O473  1  0.91402433  0.32611178  0.85737723  1
  O2-  O474  1  0.90151332  0.57238313  0.19653048  1
  O2-  O475  1  0.89520914  0.57516523  0.50764304  1
  O2-  O476  1  0.90379400  0.56534952  0.85871741  1
  O2-  O477  1  0.91884732  0.83527910  0.18646849  1
  O2-  O478  1  0.92009152  0.82730600  0.52167600  1
  O2-  O479  1  0.92702261  0.83196686  0.85226907  1
  O2-  O480  1  0.17119068  0.08084319  0.31020203  1
  O2-  O481  1  0.15860052  0.07316715  0.65537503  1
  O2-  O482  1  0.16320291  0.08011915  0.98869460  1
  O2-  O483  1  0.20650332  0.30234852  0.29700653  1
  O2-  O484  1  0.15815706  0.33116143  0.65400278  1
  O2-  O485  1  0.17591385  0.32243352  0.98845466  1
  O2-  O486  1  0.16883685  0.58544241  0.32061056  1
  O2-  O487  1  0.15867412  0.57850292  0.65710197  1
  O2-  O488  1  0.17658649  0.59417913  0.97580119  1
  O2-  O489  1  0.16516501  0.83538546  0.31334457  1
  O2-  O490  1  0.18928701  0.85665606  0.65723642  1
  O2-  O491  1  0.16551913  0.84118591  0.97832689  1
  O2-  O492  1  0.42745657  0.08650256  0.31686916  1
  O2-  O493  1  0.41597576  0.08398889  0.65105810  1
  O2-  O494  1  0.41303325  0.07976509  0.98428698  1
  O2-  O495  1  0.43221865  0.33493014  0.36296549  1
  O2-  O496  1  0.37611704  0.30002940  0.64919225  1
  O2-  O497  1  0.40568941  0.32058202  0.97872842  1
  O2-  O498  1  0.42771937  0.58888194  0.31244858  1
  O2-  O499  1  0.42439048  0.57171074  0.64658966  1
  O2-  O500  1  0.41275169  0.58738858  0.97694630  1
  O2-  O501  1  0.41658128  0.83209053  0.31627605  1
  O2-  O502  1  0.43832616  0.86569480  0.64638251  1
  O2-  O503  1  0.40907899  0.84297104  0.95672661  1
  O2-  O504  1  0.65927884  0.07885875  0.26071954  1
  O2-  O505  1  0.67636346  0.09775120  0.65012083  1
  O2-  O506  1  0.65525654  0.08029278  0.97252411  1
  O2-  O507  1  0.67216486  0.32693763  0.30704459  1
  O2-  O508  1  0.64298586  0.30530025  0.64877104  1
  O2-  O509  1  0.66573331  0.33890902  0.98762680  1
  O2-  O510  1  0.67713654  0.58060687  0.30489541  1
  O2-  O511  1  0.68467312  0.59195351  0.65090460  1
  O2-  O512  1  0.58291113  0.54147510  0.96190017  1
  O2-  O513  1  0.67776463  0.85496296  0.29971553  1
  O2-  O514  1  0.67234222  0.83719264  0.64816000  1
  O2-  O515  1  0.66653335  0.83648657  0.98145333  1
  O2-  O516  1  0.92617426  0.07326585  0.31392425  1
  O2-  O517  1  0.92463751  0.09918908  0.64623751  1
  O2-  O518  1  0.91957929  0.09140089  0.98234253  1
  O2-  O519  1  0.91739577  0.34199671  0.31828949  1
  O2-  O520  1  0.90777234  0.33485767  0.65609180  1
  O2-  O521  1  0.91150009  0.35631736  0.97438939  1
  O2-  O522  1  0.90270331  0.57448463  0.30700089  1
  O2-  O523  1  0.95539731  0.62000931  0.63342470  1
  O2-  O524  1  0.93330654  0.59234649  0.98446330  1
  O2-  O525  1  0.91864296  0.83185340  0.31041117  1
  O2-  O526  1  0.92285210  0.82789699  0.64048650  1
  O2-  O527  1  0.92586218  0.84557407  0.97972806  1
  O2-  O528  1  0.09715800  0.16265282  0.02808353  1
  O2-  O529  1  0.09028117  0.15797316  0.36134684  1
  O2-  O530  1  0.08526702  0.16454219  0.69469343  1
  O2-  O531  1  -0.00664629  0.37589947  0.00216856  1
  O2-  O532  1  0.09186332  0.42530755  0.36310452  1
  O2-  O533  1  0.07301746  0.41050258  0.69495592  1
  O2-  O534  1  0.09584008  0.68405890  0.02392235  1
  O2-  O535  1  0.07806652  0.67048641  0.34817908  1
  O2-  O536  1  0.10491629  0.69041446  0.69743130  1
  O2-  O537  1  0.09311658  0.92431378  0.02155159  1
  O2-  O538  1  0.08443354  0.91894495  0.35194390  1
  O2-  O539  1  0.08898968  0.91725937  0.69380426  1
  O2-  O540  1  0.33003923  0.16346714  0.02853829  1
  O2-  O541  1  0.33376361  0.16031322  0.35701227  1
  O2-  O542  1  0.31919855  0.14826142  0.69416004  1
  O2-  O543  1  0.33456011  0.41058208  0.02109074  1
  O2-  O544  1  0.29857583  0.43297741  0.36335659  1
  O2-  O545  1  0.32201875  0.40751634  0.69271181  1
  O2-  O546  1  0.34766052  0.68497177  0.00815712  1
  O2-  O547  1  0.38634935  0.68760897  0.38478774  1
  O2-  O548  1  0.32460673  0.63634744  0.70582260  1
  O2-  O549  1  0.33196358  0.91506121  0.01814966  1
  O2-  O550  1  0.33573216  0.91860074  0.35410837  1
  O2-  O551  1  0.35297753  0.93161821  0.70028405  1
  O2-  O552  1  0.57850613  0.17144652  0.02014255  1
  O2-  O553  1  0.60372190  0.16308017  0.33274460  1
  O2-  O554  1  0.56785688  0.13847714  0.70085628  1
  O2-  O555  1  0.56524427  0.40334567  0.02184434  1
  O2-  O556  1  0.60654631  0.41916817  0.34813914  1
  O2-  O557  1  0.60236322  0.43300291  0.69166294  1
  O2-  O558  1  0.57284925  0.66977613  0.02147944  1
  O2-  O559  1  0.58086548  0.64677257  0.35727849  1
  O2-  O560  1  0.59272739  0.66924758  0.68606585  1
  O2-  O561  1  0.57057029  0.91148870  0.01051391  1
  O2-  O562  1  0.59363513  0.93192212  0.32893708  1
  O2-  O563  1  0.60011167  0.92869744  0.69085044  1
  O2-  O564  1  0.89492266  0.20771096  0.03476156  1
  O2-  O565  1  0.77848512  0.16865788  0.36382184  1
  O2-  O566  1  0.83603675  0.17085888  0.69173167  1
  O2-  O567  1  0.83247903  0.43202141  0.03014964  1
  O2-  O568  1  0.82901154  0.41922385  0.35554694  1
  O2-  O569  1  0.80680350  0.38529353  0.69759675  1
  O2-  O570  1  0.86987312  0.69247694  0.02798622  1
  O2-  O571  1  0.83576267  0.66611640  0.34723074  1
  O2-  O572  1  0.84876536  0.66357693  0.68509119  1
  O2-  O573  1  0.83640954  0.92116246  0.01697757  1
  O2-  O574  1  0.83835621  0.91872711  0.35469841  1
  O2-  O575  1  0.85112442  0.92031164  0.67398622  1
