# generated using pymatgen
data_H2O
_symmetry_space_group_name_H-M   'P 1'
_cell_length_a   17.99640739
_cell_length_b   17.98554861
_cell_length_c   21.99901868
_cell_angle_alpha   90.01734596
_cell_angle_beta   89.97397716
_cell_angle_gamma   119.99685435
_symmetry_Int_Tables_number   1
_chemical_formula_structural   H2O
_chemical_formula_sum   'H384 O192'
_cell_volume   6166.76167049
_cell_formula_units_Z   192
loop_
 _symmetry_equiv_pos_site_id
 _symmetry_equiv_pos_as_xyz
  1  'x, y, z'
loop_
 _atom_type_symbol
 _atom_type_oxidation_number
  H+  1.0
  O2-  -2.0
loop_
 _atom_site_type_symbol
 _atom_site_label
 _atom_site_symmetry_multiplicity
 _atom_site_fract_x
 _atom_site_fract_y
 _atom_site_fract_z
 _atom_site_occupancy
  H+  H0  1  0.60343162  0.13201983  0.47660161  1
  H+  H1  1  0.36485940  0.14207695  0.81803776  1
  H+  H2  1  0.51417629  0.46251036  1.00068851  1
  H+  H3  1  0.86959206  0.37739729  0.19585559  1
  H+  H4  1  0.10575845  -0.03170650  0.67535408  1
  H+  H5  1  0.89243156  0.87530268  0.99726310  1
  H+  H6  1  0.76000835  0.12741997  0.15041715  1
  H+  H7  1  0.63472621  0.35618788  0.17549461  1
  H+  H8  1  0.61568339  0.22822875  0.81920861  1
  H+  H9  1  0.69889391  0.26344955  0.96206099  1
  H+  H10  1  0.11013518  0.64975392  0.34398475  1
  H+  H11  1  0.34900235  0.88176014  0.66519665  1
  H+  H12  1  0.77398402  0.88704878  0.82529852  1
  H+  H13  1  0.72431209  0.36286557  0.65436426  1
  H+  H14  1  0.53262132  0.63237992  0.50787330  1
  H+  H15  1  0.37301816  0.13373227  0.17379099  1
  H+  H16  1  0.63996079  1.02734235  0.84349190  1
  H+  H17  1  0.53592896  0.39168578  0.34081699  1
  H+  H18  1  0.86321650  0.39599278  0.66607659  1
  H+  H19  1  0.78353988  0.64045209  0.16498627  1
  H+  H20  1  0.71677355  0.10832681  0.49891861  1
  H+  H21  1  0.64072068  0.77288909  -0.00741883  1
  H+  H22  1  0.64954867  0.53143984  0.17706326  1
  H+  H23  1  0.15717494  0.54761855  0.49987931  1
  H+  H24  1  0.28226964  0.62478871  0.99517968  1
  H+  H25  1  0.40153672  0.88992830  0.49577177  1
  H+  H26  1  0.25235930  0.39131948  0.83559347  1
  H+  H27  1  0.13900055  0.03057845  0.32974863  1
  H+  H28  1  0.39182714  0.31893098  0.89244977  1
  H+  H29  1  0.21243783  0.67574378  0.95732436  1
  H+  H30  1  0.88321317  0.77722903  0.50581323  1
  H+  H31  1  0.57966884  0.65992173  0.76393814  1
  H+  H32  1  0.38649843  0.60550543  0.17298416  1
  H+  H33  1  0.87123129  0.13383349  0.33943071  1
  H+  H34  1  0.38826730  0.02455238  0.65554070  1
  H+  H35  1  0.64341448  0.52988848  0.32968060  1
  H+  H36  1  0.63558276  0.27299962  0.65356814  1
  H+  H37  1  0.98546118  0.37394729  0.83854038  1
  H+  H38  1  0.73241357  0.10693071  0.31515251  1
  H+  H39  1  0.08462368  0.65828634  0.10627718  1
  H+  H40  1  0.49279864  0.83316640  0.17274704  1
  H+  H41  1  0.66354651  0.38586914  0.01025849  1
  H+  H42  1  0.60834177  0.22260952  0.47751574  1
  H+  H43  1  0.61539665  0.13675158  0.16476260  1
  H+  H44  1  0.25266703  0.37761795  -0.00168023  1
  H+  H45  1  0.06369087  0.41870447  0.51639732  1
  H+  H46  1  0.15064557  0.13019959  0.17582741  1
  H+  H47  1  0.13169468  0.78440799  0.32983899  1
  H+  H48  1  0.94259152  0.62271886  0.66989087  1
  H+  H49  1  0.91548660  0.34162405  0.59222804  1
  H+  H50  1  0.10288129  0.46534446  0.15754080  1
  H+  H51  1  0.85057880  0.21934192  0.48867143  1
  H+  H52  1  0.85551444  0.87324907  0.67143587  1
  H+  H53  1  0.78748450  0.38702643  -0.00113993  1
  H+  H54  1  0.61745798  0.60935070  0.66342902  1
  H+  H55  1  0.85634372  0.23380740  0.66876997  1
  H+  H56  1  0.65370445  0.82417662  0.60853832  1
  H+  H57  1  0.78003627  0.14182215  0.82559778  1
  H+  H58  1  0.27036921  0.88484156  0.82588960  1
  H+  H59  1  0.23018382  0.64965916  0.49754116  1
  H+  H60  1  0.88709807  0.86063580  0.32915250  1
  H+  H61  1  0.84924858  0.87462499  0.49793275  1
  H+  H62  1  0.28946704  0.63013326  0.66976290  1
  H+  H63  1  0.10800402  0.22304766  0.15100277  1
  H+  H64  1  0.11697768  0.89093866  0.00727883  1
  H+  H65  1  0.84284802  0.72080783  0.66299423  1
  H+  H66  1  0.88913451  0.53165668  0.99853906  1
  H+  H67  1  0.58628412  0.39897230  -0.00103319  1
  H+  H68  1  0.37286795  0.98733689  0.48643458  1
  H+  H69  1  0.12882620  0.51038788  0.83418830  1
  H+  H70  1  0.02447860  0.89445562  0.33703201  1
  H+  H71  1  0.07472984  0.67539835  0.40184520  1
  H+  H72  1  0.63631771  0.77501155  0.83746038  1
  H+  H73  1  0.85159630  0.49963022  0.15591381  1
  H+  H74  1  0.75217904  0.39828387  0.15299743  1
  H+  H75  1  0.39416080  0.51141773  0.00373203  1
  H+  H76  1  0.87899837  -0.00523463  0.64502742  1
  H+  H77  1  0.57935471  0.16497854  0.10838912  1
  H+  H78  1  0.88654012  0.77876028  0.17579679  1
  H+  H79  1  0.63051160  0.01959990  0.16566388  1
  H+  H80  1  0.11506275  0.62978914  0.16525743  1
  H+  H81  1  0.52897795  0.39284923  0.15260835  1
  H+  H82  1  0.65953930  0.58630144  0.56347431  1
  H+  H83  1  0.14232787  0.12130277  0.51596367  1
  H+  H84  1  0.61554653  -0.01964785  0.68091857  1
  H+  H85  1  0.77667211  0.64141900  0.34208117  1
  H+  H86  1  0.61390723  0.38250484  0.67011152  1
  H+  H87  1  0.87083380  0.36214169  0.49688020  1
  H+  H88  1  0.33322274  0.91732592  0.72801139  1
  H+  H89  1  0.84975910  0.68498678  0.07086063  1
  H+  H90  1  0.32987993  0.35817177  -0.00355445  1
  H+  H91  1  0.43531516  0.34271160  0.98224493  1
  H+  H92  1  0.35036620  0.16858930  0.07559056  1
  H+  H93  1  -0.02215630  0.37128500  0.65019398  1
  H+  H94  1  0.95692624  0.60146492  0.51563609  1
  H+  H95  1  0.60542973  0.87969570  0.00518681  1
  H+  H96  1  0.11960720  0.24200357  0.51147159  1
  H+  H97  1  0.36318946  0.22434264  0.49138142  1
  H+  H98  1  0.53265341  0.13285246  0.82273706  1
  H+  H99  1  -0.01422507  0.11011491  0.33569438  1
  H+  H100  1  0.53188408  0.15147512  0.37494549  1
  H+  H101  1  0.59314108  0.42271500  0.42851580  1
  H+  H102  1  0.10710993  0.63099135  0.50191703  1
  H+  H103  1  0.67452970  0.59067673  0.27101828  1
  H+  H104  1  0.31868184  0.91474172  0.07965958  1
  H+  H105  1  0.28568449  0.13937216  0.16835014  1
  H+  H106  1  0.11755793  -0.02122623  0.82927864  1
  H+  H107  1  0.66131703  0.32758683  0.55784934  1
  H+  H108  1  0.89373732  0.62413060  0.99994497  1
  H+  H109  1  0.52352362  0.13857953  0.66545061  1
  H+  H110  1  0.87381050  0.10662755  0.16200956  1
  H+  H111  1  0.85159621  0.47320048  0.49716667  1
  H+  H112  1  0.36234533  0.64372933  0.82596253  1
  H+  H113  1  0.62275845  0.89281507  0.15672117  1
  H+  H114  1  0.25172388  0.37951661  0.49968656  1
  H+  H115  1  0.01837679  0.39572673  0.33818847  1
  H+  H116  1  0.02263801  0.13242557  0.15091159  1
  H+  H117  1  0.88599395  0.02232693  0.83466323  1
  H+  H118  1  0.48587579  0.36285625  0.49584079  1
  H+  H119  1  0.87963647  0.74577692  1.01045330  1
  H+  H120  1  0.36267048  0.75739024  0.64816703  1
  H+  H121  1  0.37409615  0.27517693  0.82831838  1
  H+  H122  1  0.61194772  0.46590373  0.83045742  1
  H+  H123  1  0.61175453  0.88992019  0.83434406  1
  H+  H124  1  0.51528235  0.38447948  0.82661665  1
  H+  H125  1  0.63473235  0.36155869  0.49922371  1
  H+  H126  1  0.61467570  0.63940872  0.34032153  1
  H+  H127  1  0.97762836  0.86427301  0.17488051  1
  H+  H128  1  0.09948252  -0.02148209  0.49346051  1
  H+  H129  1  0.38621432  0.61783231  0.33111202  1
  H+  H130  1  0.48889302  0.36595226  0.65717673  1
  H+  H131  1  0.46333027  0.09469675  1.00129133  1
  H+  H132  1  0.36279814  0.22842265  0.66540831  1
  H+  H133  1  0.34033930  0.35593935  0.70736514  1
  H+  H134  1  0.10242083  0.22536529  0.33697895  1
  H+  H135  1  0.47892737  0.12084871  0.49796505  1
  H+  H136  1  0.85656936  0.51291613  0.84376011  1
  H+  H137  1  0.67499601  0.53787309  1.00404705  1
  H+  H138  1  0.36974111  0.14130367  0.34367958  1
  H+  H139  1  0.73872426  0.87711045  0.17545841  1
  H+  H140  1  0.41474013  0.38498863  0.63731911  1
  H+  H141  1  0.85991567  0.98263908  0.00558798  1
  H+  H142  1  0.72031875  0.85838473  0.66294970  1
  H+  H143  1  0.86689047  -0.02857358  0.34860776  1
  H+  H144  1  0.83146293  0.16082736  0.39430388  1
  H+  H145  1  0.27234705  0.13933202  0.66776139  1
  H+  H146  1  0.37651293  0.02041608  0.18021772  1
  H+  H147  1  0.36923471  0.25748416  0.18438687  1
  H+  H148  1  0.37259174  0.84846875  1.00404479  1
  H+  H149  1  0.62627899  0.85855864  0.49988508  1
  H+  H150  1  0.61102440  0.14890671  1.00686793  1
  H+  H151  1  0.09972674  0.22755772  0.99907169  1
  H+  H152  1  0.74639331  0.16862570  0.98243004  1
  H+  H153  1  0.61206084  0.89097970  0.68498103  1
  H+  H154  1  0.13825202  0.86364351  0.84240666  1
  H+  H155  1  0.87223518  0.48353228  0.33880958  1
  H+  H156  1  0.97830841  0.60485770  0.17549927  1
  H+  H157  1  0.36403817  0.24530776  0.99171435  1
  H+  H158  1  0.35448053  0.87467137  0.82383169  1
  H+  H159  1  0.21397992  0.35382626  0.16263479  1
  H+  H160  1  0.02235966  0.40188354  -0.00155623  1
  H+  H161  1  0.13454388  1.02810355  -0.00716375  1
  H+  H162  1  0.86535954  0.38816892  0.82404807  1
  H+  H163  1  0.06006948  0.63079807  0.66704819  1
  H+  H164  1  0.37768571  0.61135781  0.50662550  1
  H+  H165  1  0.50050225  0.44854772  0.03308951  1
  H+  H166  1  0.67602084  0.84502786  0.23356665  1
  H+  H167  1  0.12334994  0.36313757  0.31893384  1
  H+  H168  1  0.11046192  0.38019587  0.66669810  1
  H+  H169  1  0.39778090  0.27674709  0.33828312  1
  H+  H170  1  0.12381361  0.35247393  0.16173250  1
  H+  H171  1  0.64073183  0.77691533  0.32695207  1
  H+  H172  1  0.47477762  0.10494926  0.18430304  1
  H+  H173  1  0.11428515  0.89689836  0.33983709  1
  H+  H174  1  0.71802482  0.85559542  0.50330055  1
  H+  H175  1  0.98421022  0.87853048  0.84533314  1
  H+  H176  1  0.85123623  0.12974102  0.48808380  1
  H+  H177  1  0.64139876  1.02124090  0.31728381  1
  H+  H178  1  0.35093402  0.76479958  0.47966016  1
  H+  H179  1  0.22149283  0.87232999  0.66041922  1
  H+  H180  1  0.12615139  0.72926950  0.81858291  1
  H+  H181  1  0.93155438  0.29902709  0.24102706  1
  H+  H182  1  0.36909258  0.38074108  0.49298518  1
  H+  H183  1  0.87127574  0.89263106  0.16266721  1
  H+  H184  1  0.35563549  0.71409632  0.15319480  1
  H+  H185  1  0.14114929  0.77953034  0.65772420  1
  H+  H186  1  0.76394799  0.38283761  0.48935206  1
  H+  H187  1  0.78991712  0.66705151  0.81854049  1
  H+  H188  1  0.12299537  0.63840409  0.81805954  1
  H+  H189  1  0.72598332  0.86455467  -0.00684941  1
  H+  H190  1  0.37799799  0.53450867  0.84088966  1
  H+  H191  1  0.88536753  0.61674795  0.32614511  1
  H+  H192  1  0.87486497  0.64600242  0.16339094  1
  H+  H193  1  0.12000529  0.37585534  0.83743455  1
  H+  H194  1  0.87402878  0.98265280  0.16411437  1
  H+  H195  1  0.33909993  0.37224865  0.15428386  1
  H+  H196  1  0.95169215  0.35331604  0.48065238  1
  H+  H197  1  0.27282878  0.64502733  0.33805332  1
  H+  H198  1  0.85189215  0.47936562  0.67227187  1
  H+  H199  1  0.16341127  0.61405341  0.65892976  1
  H+  H200  1  0.34223932  0.38851028  0.83553958  1
  H+  H201  1  0.26977351  0.88407670  0.34002750  1
  H+  H202  1  0.87268104  0.36272594  0.16447156  1
  H+  H203  1  0.86591092  0.89179190  0.82741607  1
  H+  H204  1  0.07708739  0.90528493  0.10375177  1
  H+  H205  1  0.53589121  0.63207197  1.01446001  1
  H+  H206  1  0.64454270  0.27152561  0.17128225  1
  H+  H207  1  0.10449441  0.87324687  0.16338991  1
  H+  H208  1  0.86717828  0.72944981  0.34122029  1
  H+  H209  1  0.35256023  0.63404795  0.50128646  1
  H+  H210  1  0.51529732  0.87555414  1.00902174  1
  H+  H211  1  0.62930930  0.64223350  0.00703205  1
  H+  H212  1  0.35500800  0.87790516  0.33530487  1
  H+  H213  1  0.39738282  -0.00198870  0.83889231  1
  H+  H214  1  0.97197697  0.07625409  0.64099580  1
  H+  H215  1  0.36444463  0.12765144  0.01425497  1
  H+  H216  1  1.02915839  0.89331225  1.00753207  1
  H+  H217  1  0.58436111  0.21741295  0.01413249  1
  H+  H218  1  -0.02313836  0.11053021  0.84148536  1
  H+  H219  1  0.62141358  0.75060686  0.50076914  1
  H+  H220  1  0.72748766  0.36398796  0.82936230  1
  H+  H221  1  0.86789330  0.14105524  0.82316436  1
  H+  H222  1  0.73838180  0.37507015  0.32757143  1
  H+  H223  1  0.89557145  0.28573019  0.98943930  1
  H+  H224  1  0.38752749  0.11315019  0.65532680  1
  H+  H225  1  0.23011666  0.87871285  0.17371480  1
  H+  H226  1  0.85812926  0.20558389  0.15828843  1
  H+  H227  1  0.96695081  0.11588355  0.98864528  1
  H+  H228  1  0.42375733  0.09061745  0.56066071  1
  H+  H229  1  0.39483886  0.52423930  0.67831137  1
  H+  H230  1  0.61639847  0.47998881  0.48938357  1
  H+  H231  1  0.66314709  0.62790292  0.17411786  1
  H+  H232  1  0.16421379  0.08242532  0.90336914  1
  H+  H233  1  0.73048386  0.86498419  0.32954040  1
  H+  H234  1  0.91714180  0.83447151  0.26797011  1
  H+  H235  1  0.72489212  0.11577777  0.65322700  1
  H+  H236  1  0.64736214  0.74208688  0.16054267  1
  H+  H237  1  0.47657732  0.85966751  0.32344340  1
  H+  H238  1  0.88851277  0.27132922  0.33112771  1
  H+  H239  1  0.06047448  0.17156120  0.55816571  1
  H+  H240  1  0.74829938  0.63420693  0.66061693  1
  H+  H241  1  0.23039754  0.60159575  0.17144594  1
  H+  H242  1  0.18584599  0.58756321  0.59561060  1
  H+  H243  1  0.12615833  0.36880386  0.99070167  1
  H+  H244  1  0.62820503  0.39642897  0.33844748  1
  H+  H245  1  0.09656286  0.21995554  0.68284367  1
  H+  H246  1  0.23024709  0.11804749  0.33226835  1
  H+  H247  1  0.88638787  0.36062620  0.32669056  1
  H+  H248  1  0.38005775  0.48730957  0.34738519  1
  H+  H249  1  0.61463666  0.88680941  0.33687112  1
  H+  H250  1  0.38268385  0.64113107  0.67577237  1
  H+  H251  1  0.17919446  0.10776280  0.24027608  1
  H+  H252  1  0.22570194  0.85796774  1.00221193  1
  H+  H253  1  0.28028849  0.98028880  0.12796053  1
  H+  H254  1  0.87855029  0.39738532  0.00896174  1
  H+  H255  1  0.42572007  0.60656633  0.23770589  1
  H+  H256  1  0.22444552  0.11243637  0.84219934  1
  H+  H257  1  0.38385255  0.77348702  0.84124967  1
  H+  H258  1  0.11772112  0.13897236  0.83879776  1
  H+  H259  1  0.38548407  0.40038626  0.34999493  1
  H+  H260  1  0.10642685  0.63387771  0.00706940  1
  H+  H261  1  0.13437287  0.77275615  -0.00100310  1
  H+  H262  1  0.13154543  0.10443773  0.66167627  1
  H+  H263  1  0.52661785  0.88857942  0.48975544  1
  H+  H264  1  0.86055419  0.14521583  -0.00264518  1
  H+  H265  1  0.16924920  0.59375631  0.91444321  1
  H+  H266  1  0.60297160  0.63483516  0.82992385  1
  H+  H267  1  0.85815236  0.63830510  0.49738965  1
  H+  H268  1  0.13022465  0.53719552  0.33073115  1
  H+  H269  1  0.95891728  0.10136449  0.49185823  1
  H+  H270  1  0.84548062  -0.03749411  0.49047329  1
  H+  H271  1  0.98648955  0.32411685  0.17992270  1
  H+  H272  1  0.75396692  0.63197761  -0.00070180  1
  H+  H273  1  0.62433462  0.52177865  0.65596894  1
  H+  H274  1  0.72790973  0.61961860  0.50718318  1
  H+  H275  1  0.97055318  0.85656442  0.65947340  1
  H+  H276  1  0.22593486  0.34620103  0.67414762  1
  H+  H277  1  0.47751614  0.62211286  0.33008800  1
  H+  H278  1  0.97613534  0.62115285  0.32686180  1
  H+  H279  1  0.35288072  0.95853747  0.01495186  1
  H+  H280  1  0.11232346  0.49031769  0.00164107  1
  H+  H281  1  0.41567956  0.51121760  0.52212155  1
  H+  H282  1  0.12182300  0.47376068  0.66299996  1
  H+  H283  1  0.45456254  0.73648564  0.19915897  1
  H+  H284  1  0.36465797  0.71637464  0.00283319  1
  H+  H285  1  0.01919166  0.63585192  0.01235214  1
  H+  H286  1  0.96913928  0.87112447  0.50247785  1
  H+  H287  1  0.83033692  0.17439372  0.72706447  1
  H+  H288  1  0.88656869  0.57359701  0.90349669  1
  H+  H289  1  0.12538190  0.11190026  -0.01274074  1
  H+  H290  1  0.89464975  0.28275526  0.83870844  1
  H+  H291  1  0.90697642  0.08208810  0.92967435  1
  H+  H292  1  0.11389414  0.14277639  0.34167173  1
  H+  H293  1  0.58521770  0.67031968  0.39907836  1
  H+  H294  1  0.92320680  0.84744193  0.93722338  1
  H+  H295  1  0.43105327  0.33084698  0.55706979  1
  H+  H296  1  0.58395865  0.91659460  0.39509901  1
  H+  H297  1  0.41585316  0.33106464  0.27838712  1
  H+  H298  1  0.30190176  0.77150969  0.60432051  1
  H+  H299  1  0.08714071  0.16592657  0.77944187  1
  H+  H300  1  0.60490134  0.71144959  0.68307747  1
  H+  H301  1  0.40149942  0.60250377  1.00236669  1
  H+  H302  1  0.46919208  0.61988672  0.83634565  1
  H+  H303  1  0.83373700  0.41610804  0.76370885  1
  H+  H304  1  0.65876992  0.07958694  0.55881055  1
  H+  H305  1  0.31599305  0.69821550  0.42287925  1
  H+  H306  1  0.36196218  0.13505698  0.49399708  1
  H+  H307  1  0.82636638  0.90303918  0.40337731  1
  H+  H308  1  0.36513530  0.73148323  0.33411531  1
  H+  H309  1  0.62714383  0.64827263  0.49582635  1
  H+  H310  1  0.91434444  0.83426080  0.59771307  1
  H+  H311  1  0.07080211  0.92334790  0.43249917  1
  H+  H312  1  0.41181351  0.06251674  0.93964165  1
  H+  H313  1  0.07810214  0.41726251  0.77308280  1
  H+  H314  1  0.12724643  0.28463847  0.84229195  1
  H+  H315  1  0.49341268  0.61139086  0.67776903  1
  H+  H316  1  0.82986776  0.90997667  0.73001251  1
  H+  H317  1  0.63494109  0.11242306  0.65189580  1
  H+  H318  1  0.64393866  0.11708599  0.82967318  1
  H+  H319  1  0.11067100  0.67193692  0.72993066  1
  H+  H320  1  0.22244226  0.60482104  0.83136587  1
  H+  H321  1  0.00444227  0.15947807  0.71026243  1
  H+  H322  1  0.10516889  0.87968301  0.67623806  1
  H+  H323  1  0.91961688  0.06679310  0.27914236  1
  H+  H324  1  0.58059527  0.40932051  0.73069102  1
  H+  H325  1  0.34068938  0.92100077  0.43001515  1
  H+  H326  1  0.91606829  0.57998512  0.23462886  1
  H+  H327  1  0.83164750  0.17350313  0.05804779  1
  H+  H328  1  0.86847950  0.65675642  0.82944299  1
  H+  H329  1  0.31889429  0.65762922  0.09103839  1
  H+  H330  1  0.42918950  0.08719166  0.27754346  1
  H+  H331  1  0.35059150  0.42584876  0.43536530  1
  H+  H332  1  0.15080019  0.33919688  0.92875556  1
  H+  H333  1  0.58145646  0.91084753  0.09685042  1
  H+  H334  1  0.31131506  0.39618996  0.09124041  1
  H+  H335  1  0.47310897  0.86343646  0.84554833  1
  H+  H336  1  0.83959616  0.42348144  0.39818897  1
  H+  H337  1  0.89500055  0.57764076  0.57282765  1
  H+  H338  1  0.63521216  0.36069201  0.83414496  1
  H+  H339  1  0.62257606  0.68323494  0.10021163  1
  H+  H340  1  0.19858013  0.38908187  0.55441450  1
  H+  H341  1  0.47755321  0.02228633  0.87914708  1
  H+  H342  1  0.67614723  0.33967378  0.27074956  1
  H+  H343  1  0.30327461  0.27003794  0.21945181  1
  H+  H344  1  0.42515953  0.81667677  0.26267508  1
  H+  H345  1  0.74756490  0.54736507  0.86568187  1
  H+  H346  1  0.68425311  0.13455053  0.92382269  1
  H+  H347  1  0.13263375  0.40195085  0.48592504  1
  H+  H348  1  0.90368161  0.06344254  0.55141640  1
  H+  H349  1  0.66729249  0.07859852  0.22606386  1
  H+  H350  1  0.16889351  0.83265400  0.90094774  1
  H+  H351  1  0.92191175  0.34486371  0.92873775  1
  H+  H352  1  0.33713537  0.67547123  0.76561741  1
  H+  H353  1  0.14960292  0.77773944  0.17848736  1
  H+  H354  1  0.61808778  0.97404653  0.49054788  1
  H+  H355  1  0.14687735  0.32630326  0.26074011  1
  H+  H356  1  0.44583973  0.56813217  0.58505674  1
  H+  H357  1  0.07515813  0.16626863  0.05762833  1
  H+  H358  1  0.85031690  0.61286658  0.65970318  1
  H+  H359  1  0.58470760  0.16871888  0.72401233  1
  H+  H360  1  0.66821368  0.83282259  0.89773905  1
  H+  H361  1  0.33333155  0.16464902  0.40252974  1
  H+  H362  1  0.41933186  0.84393171  0.55352169  1
  H+  H363  1  0.07302909  0.41675892  0.09356540  1
  H+  H364  1  0.94287212  0.15977386  0.20743925  1
  H+  H365  1  0.58318809  0.92249303  0.77614738  1
  H+  H366  1  0.40307270  0.82767202  0.93986040  1
  H+  H367  1  0.33132497  0.16585568  0.75832138  1
  H+  H368  1  0.16558294  0.08148403  0.60104493  1
  H+  H369  1  0.31348921  0.40762108  0.75199245  1
  H+  H370  1  0.83431126  0.66968194  0.43594436  1
  H+  H371  1  0.08302178  0.91594493  0.77084262  1
  H+  H372  1  0.20043011  0.52745300  0.22028621  1
  H+  H373  1  0.68319856  0.32641160  0.92051502  1
  H+  H374  1  0.08193182  0.43036539  0.39509134  1
  H+  H375  1  0.89583213  0.79030826  0.84506733  1
  H+  H376  1  0.83685006  0.92559742  0.06624498  1
  H+  H377  1  0.16568236  0.84120768  0.26933013  1
  H+  H378  1  0.17944080  0.30182824  0.61175014  1
  H+  H379  1  0.82292680  0.43659365  0.09022058  1
  H+  H380  1  0.16429535  0.59731021  0.27299171  1
  H+  H381  1  0.60036522  0.41610071  0.10199733  1
  H+  H382  1  0.22782548  0.11441560  0.50926296  1
  H+  H383  1  0.69199505  0.57185414  0.90704596  1
  O2-  O384  1  0.08192906  0.16230272  0.13500666  1
  O2-  O385  1  0.08354913  0.17894922  0.51708740  1
  O2-  O386  1  0.08674552  0.16953536  0.82412259  1
  O2-  O387  1  0.07041098  0.40780363  0.13853341  1
  O2-  O388  1  0.09701232  0.42997632  0.47906204  1
  O2-  O389  1  0.07899466  0.41929181  0.81761435  1
  O2-  O390  1  0.08294586  0.65731913  0.15197386  1
  O2-  O391  1  0.06247121  0.64540392  0.48496387  1
  O2-  O392  1  0.10024464  0.67277855  0.79790281  1
  O2-  O393  1  0.06951059  0.89838914  0.14849763  1
  O2-  O394  1  0.06227532  0.92012183  0.47744146  1
  O2-  O395  1  0.08682786  0.91709371  0.81632012  1
  O2-  O396  1  0.34662871  0.16500754  0.15321117  1
  O2-  O397  1  0.32776071  0.16257347  0.47984191  1
  O2-  O398  1  0.33116895  0.16761818  0.80415236  1
  O2-  O399  1  0.30909163  0.40025657  0.13647702  1
  O2-  O400  1  0.34299636  0.41691954  0.48243967  1
  O2-  O401  1  0.31426356  0.42037050  0.81977596  1
  O2-  O402  1  0.30763574  0.66017381  0.13531107  1
  O2-  O403  1  0.29899767  0.71472359  0.46160886  1
  O2-  O404  1  0.33026143  0.67380592  0.81065673  1
  O2-  O405  1  0.30725415  0.94798282  0.14232124  1
  O2-  O406  1  0.34857703  0.92610342  0.47547913  1
  O2-  O407  1  0.32963405  0.90999091  0.80773792  1
  O2-  O408  1  0.58724982  0.17149286  0.15311053  1
  O2-  O409  1  0.57441966  0.16310192  0.46136876  1
  O2-  O410  1  0.58897203  0.16849711  0.80246778  1
  O2-  O411  1  0.59040879  0.41668934  0.14642154  1
  O2-  O412  1  0.58857799  0.41962647  0.47459480  1
  O2-  O413  1  0.57493941  0.40843376  0.81103119  1
  O2-  O414  1  0.64133151  0.68836253  0.14329374  1
  O2-  O415  1  0.58995826  0.67498415  0.48479580  1
  O2-  O416  1  0.57887560  0.66756870  0.81198123  1
  O2-  O417  1  0.58388732  0.91431515  0.14298796  1
  O2-  O418  1  0.58887473  0.91258044  0.47609413  1
  O2-  O419  1  0.58100490  0.92116598  0.82245517  1
  O2-  O420  1  0.81997053  0.15418145  0.13287221  1
  O2-  O421  1  0.82090151  0.15973024  0.47260333  1
  O2-  O422  1  0.83990733  0.17422744  0.80976862  1
  O2-  O423  1  0.80307126  0.45116395  0.12971362  1
  O2-  O424  1  0.82643742  0.41536880  0.47717159  1
  O2-  O425  1  0.83083163  0.41452778  0.80912244  1
  O2-  O426  1  0.84354775  0.67455014  0.14808699  1
  O2-  O427  1  0.83094942  0.67103831  0.48138759  1
  O2-  O428  1  0.85244065  0.69871563  0.81424294  1
  O2-  O429  1  0.84230722  0.92482948  0.14686350  1
  O2-  O430  1  0.81331088  0.89961770  0.48101301  1
  O2-  O431  1  0.83392912  0.91859990  0.80868783  1
  O2-  O432  1  0.19748175  0.12812539  0.19774277  1
  O2-  O433  1  0.16841741  0.08615211  0.52738876  1
  O2-  O434  1  0.16432885  0.08215331  0.85624675  1
  O2-  O435  1  0.15242181  0.32191942  0.17859714  1
  O2-  O436  1  0.18896233  0.35752767  0.51637066  1
  O2-  O437  1  0.15531480  0.34530915  0.85547563  1
  O2-  O438  1  0.17827490  0.55928846  0.19807820  1
  O2-  O439  1  0.17512903  0.60260965  0.52066542  1
  O2-  O440  1  0.16250222  0.57613706  0.84757445  1
  O2-  O441  1  0.17016512  0.83614158  0.19375469  1
  O2-  O442  1  0.08081926  0.72299834  0.51023706  1
  O2-  O443  1  0.17079696  0.83460567  0.85556547  1
  O2-  O444  1  0.41723342  0.07814910  0.20309995  1
  O2-  O445  1  0.41952677  0.09290980  0.51564285  1
  O2-  O446  1  0.44490087  0.04792368  0.86305081  1
  O2-  O447  1  0.36333248  0.30393390  0.20620058  1
  O2-  O448  1  0.42538049  0.33040693  0.51223904  1
  O2-  O449  1  0.40096262  0.33273270  0.84788313  1
  O2-  O450  1  0.43967021  0.63301059  0.19639082  1
  O2-  O451  1  0.46214341  0.56311558  0.54222585  1
  O2-  O452  1  0.40907460  0.59643798  0.85035308  1
  O2-  O453  1  0.44217504  0.78477428  0.19403594  1
  O2-  O454  1  0.43175591  0.85540168  0.50971304  1
  O2-  O455  1  0.41128336  0.83355935  0.85837346  1
  O2-  O456  1  0.66275329  0.08091114  0.17981911  1
  O2-  O457  1  0.65592636  0.07660995  0.51314189  1
  O2-  O458  1  0.67261270  0.09072291  0.85274038  1
  O2-  O459  1  0.67528161  0.33489463  0.18368401  1
  O2-  O460  1  0.66240293  0.32768567  0.51239906  1
  O2-  O461  1  0.66753914  0.33145240  0.84687080  1
  O2-  O462  1  0.68459515  0.58962662  0.19387753  1
  O2-  O463  1  0.66519754  0.58972986  0.51775030  1
  O2-  O464  1  0.69624106  0.55461780  0.86452443  1
  O2-  O465  1  0.67728499  0.84623684  0.18818520  1
  O2-  O466  1  0.65465005  0.82418926  0.51646019  1
  O2-  O467  1  0.66875347  0.83575983  0.85220156  1
  O2-  O468  1  0.91789892  0.10265488  0.18811285  1
  O2-  O469  1  0.89904875  0.07018187  0.50589949  1
  O2-  O470  1  0.91442072  0.08234898  0.85134755  1
  O2-  O471  1  0.94219727  0.27479629  0.20358884  1
  O2-  O472  1  0.90288396  0.33045834  0.50844073  1
  O2-  O473  1  0.92186451  0.34293004  0.85402639  1
  O2-  O474  1  0.91673987  0.57835888  0.18859295  1
  O2-  O475  1  0.89563103  0.57310798  0.52742679  1
  O2-  O476  1  0.85628214  0.56236287  0.86397029  1
  O2-  O477  1  0.91600925  0.83918892  0.19083298  1
  O2-  O478  1  0.90828145  0.83760999  0.52054038  1
  O2-  O479  1  0.92404220  0.85154139  0.86106192  1
  O2-  O480  1  0.17029278  0.09238208  0.31675964  1
  O2-  O481  1  0.16676176  0.08069950  0.64732847  1
  O2-  O482  1  0.15844997  0.08487573  0.97246703  1
  O2-  O483  1  0.14423743  0.32451560  0.30576391  1
  O2-  O484  1  0.16789838  0.31562976  0.65236529  1
  O2-  O485  1  0.15076082  0.33403230  0.97474160  1
  O2-  O486  1  0.16232928  0.59929337  0.31785264  1
  O2-  O487  1  0.18679997  0.57877273  0.64058964  1
  O2-  O488  1  0.17909014  0.61322436  0.96021506  1
  O2-  O489  1  0.16360716  0.84454507  0.31494944  1
  O2-  O490  1  0.16009133  0.84010834  0.64857759  1
  O2-  O491  1  0.16744670  0.83151575  0.98189422  1
  O2-  O492  1  0.43171125  0.09726971  0.32323472  1
  O2-  O493  1  0.41988189  0.08543844  0.64045451  1
  O2-  O494  1  0.40418361  0.06285663  0.98413961  1
  O2-  O495  1  0.43020051  0.33721337  0.32243082  1
  O2-  O496  1  0.42829473  0.33882212  0.63854570  1
  O2-  O497  1  0.37827534  0.30098832  0.96778944  1
  O2-  O498  1  0.41705637  0.58809614  0.31579315  1
  O2-  O499  1  0.42780183  0.58066826  0.65908604  1
  O2-  O500  1  0.43512975  0.57321056  0.99766665  1
  O2-  O501  1  0.41726732  0.82675017  0.30645707  1
  O2-  O502  1  0.35745450  0.80285133  0.62458717  1
  O2-  O503  1  0.40216030  0.81958873  0.98473409  1
  O2-  O504  1  0.67391002  0.07854775  0.29775934  1
  O2-  O505  1  0.66444845  0.08142761  0.63734001  1
  O2-  O506  1  0.69506310  0.16710686  0.96290217  1
  O2-  O507  1  0.67734569  0.34879667  0.31484101  1
  O2-  O508  1  0.66418518  0.33385347  0.63824413  1
  O2-  O509  1  0.69298976  0.31637364  0.96433070  1
  O2-  O510  1  0.67162997  0.59163564  0.31655431  1
  O2-  O511  1  0.64708105  0.58022562  0.63935510  1
  O2-  O512  1  0.69322986  0.59332394  0.98426708  1
  O2-  O513  1  0.67077032  0.83777705  0.31270841  1
  O2-  O514  1  0.65767127  0.82916576  0.65296717  1
  O2-  O515  1  0.66683735  0.83272558  0.97605423  1
  O2-  O516  1  0.92078225  0.07290289  0.32341959  1
  O2-  O517  1  0.91618172  0.04838554  0.62082879  1
  O2-  O518  1  0.90517787  0.08498807  0.97511488  1
  O2-  O519  1  0.91918360  0.33149838  0.31468268  1
  O2-  O520  1  0.91668476  0.34583892  0.63706006  1
  O2-  O521  1  0.92393821  0.34697012  0.97501082  1
  O2-  O522  1  0.91641630  0.58738971  0.30989769  1
  O2-  O523  1  0.88856022  0.58368220  0.64979631  1
  O2-  O524  1  0.92053953  0.59137240  0.98256683  1
  O2-  O525  1  0.91859339  0.83180593  0.31359608  1
  O2-  O526  1  0.91071065  0.82877717  0.64312344  1
  O2-  O527  1  0.92349614  0.84524291  0.98301745  1
  O2-  O528  1  0.06980555  0.16610715  0.01222015  1
  O2-  O529  1  0.07682338  0.16637290  0.35500258  1
  O2-  O530  1  0.05729513  0.16040094  0.69844103  1
  O2-  O531  1  0.08211397  0.43124113  0.01667532  1
  O2-  O532  1  0.08040373  0.43318716  0.35053323  1
  O2-  O533  1  0.08209994  0.41333324  0.67650091  1
  O2-  O534  1  0.07922680  0.66207560  0.02913276  1
  O2-  O535  1  0.07606420  0.67721515  0.35700460  1
  O2-  O536  1  0.11690575  0.67020238  0.68273879  1
  O2-  O537  1  0.08913532  0.92271575  0.02352075  1
  O2-  O538  1  0.08376785  0.92788921  0.35389314  1
  O2-  O539  1  0.07326129  0.90935830  0.69192289  1
  O2-  O540  1  0.35347098  0.17262932  0.03035842  1
  O2-  O541  1  0.33721257  0.17015894  0.35715530  1
  O2-  O542  1  0.33334533  0.16949038  0.68240823  1
  O2-  O543  1  0.31235279  0.39805075  0.01379808  1
  O2-  O544  1  0.35722652  0.43061966  0.36787735  1
  O2-  O545  1  0.31714953  0.39473242  0.70616574  1
  O2-  O546  1  0.33804069  0.65472438  0.01620480  1
  O2-  O547  1  0.33320530  0.67138168  0.35230308  1
  O2-  O548  1  0.34833555  0.67002126  0.68555289  1
  O2-  O549  1  0.32240403  0.90057221  0.03394618  1
  O2-  O550  1  0.32928190  0.90850282  0.35551789  1
  O2-  O551  1  0.33265892  0.92263228  0.68293027  1
  O2-  O552  1  0.56720895  0.15920898  0.02783762  1
  O2-  O553  1  0.52223897  0.16110417  0.33193739  1
  O2-  O554  1  0.58503259  0.17046937  0.67865537  1
  O2-  O555  1  0.63610302  0.41824386  0.02536862  1
  O2-  O556  1  0.59700853  0.42655294  0.35469724  1
  O2-  O557  1  0.58046559  0.40999287  0.68533310  1
  O2-  O558  1  0.59915932  0.67149364  0.02299847  1
  O2-  O559  1  0.58540374  0.67164675  0.35417310  1
  O2-  O560  1  0.57762556  0.65166453  0.69767676  1
  O2-  O561  1  0.57546552  0.90819057  0.02319813  1
  O2-  O562  1  0.58217812  0.91587014  0.34986039  1
  O2-  O563  1  0.58676710  0.92429434  0.70231880  1
  O2-  O564  1  0.83757704  0.18240742  0.01277784  1
  O2-  O565  1  0.83999255  0.16522665  0.34932046  1
  O2-  O566  1  0.82556867  0.17328009  0.68209001  1
  O2-  O567  1  0.84202211  0.42291974  0.02191912  1
  O2-  O568  1  0.84389244  0.42256887  0.35299078  1
  O2-  O569  1  0.82726426  0.41802899  0.68479069  1
  O2-  O570  1  0.85148684  0.68446413  0.02530296  1
  O2-  O571  1  0.83730127  0.66891593  0.35716204  1
  O2-  O572  1  0.80898349  0.65958876  0.67543187  1
  O2-  O573  1  0.83387908  0.92230059  0.02102367  1
  O2-  O574  1  0.83214736  0.90834308  0.35815011  1
  O2-  O575  1  0.82567193  0.90527985  0.68464403  1
