# generated using pymatgen
data_H2O
_symmetry_space_group_name_H-M   'P 1'
_cell_length_a   17.99059500
_cell_length_b   17.98678254
_cell_length_c   21.98885460
_cell_angle_alpha   89.97730330
_cell_angle_beta   90.01421643
_cell_angle_gamma   120.00043080
_symmetry_Int_Tables_number   1
_chemical_formula_structural   H2O
_chemical_formula_sum   'H384 O192'
_cell_volume   6162.12253650
_cell_formula_units_Z   192
loop_
 _symmetry_equiv_pos_site_id
 _symmetry_equiv_pos_as_xyz
  1  'x, y, z'
loop_
 _atom_type_symbol
 _atom_type_oxidation_number
  H+  1.0
  O2-  -2.0
loop_
 _atom_site_type_symbol
 _atom_site_label
 _atom_site_symmetry_multiplicity
 _atom_site_fract_x
 _atom_site_fract_y
 _atom_site_fract_z
 _atom_site_occupancy
  H+  H0  1  0.14632563  0.12194837  0.98456982  1
  H+  H1  1  0.13465829  0.87111985  0.65391707  1
  H+  H2  1  0.40706897  0.33506784  0.56679836  1
  H+  H3  1  0.37717790  0.75140993  0.35875892  1
  H+  H4  1  0.28983874  0.14747404  0.80359771  1
  H+  H5  1  0.35933327  0.38350552  0.49446475  1
  H+  H6  1  0.38373127  0.78454301  0.66359371  1
  H+  H7  1  0.39261250  0.60377800  0.67347035  1
  H+  H8  1  0.02615611  0.40922669  0.71344606  1
  H+  H9  1  0.15938888  0.58139734  0.89006520  1
  H+  H10  1  0.84561123  0.47195601  0.68422702  1
  H+  H11  1  0.36260935  0.13800545  0.34687427  1
  H+  H12  1  0.18060015  0.83421457  0.88872701  1
  H+  H13  1  0.84730268  0.17274711  0.34900753  1
  H+  H14  1  0.12912269  0.89568427  0.49604722  1
  H+  H15  1  0.52713608  0.15234020  0.14239383  1
  H+  H16  1  0.61198673  0.97516864  0.01461158  1
  H+  H17  1  0.36752162  0.53045385  0.83133518  1
  H+  H18  1  0.60199858  0.72477194  0.83118583  1
  H+  H19  1  0.85722766  0.14375510  0.15403286  1
  H+  H20  1  0.02577834  0.38564673  0.00060545  1
  H+  H21  1  0.11509577  0.47479887  -0.00070469  1
  H+  H22  1  0.38547718  0.11651595  0.97747279  1
  H+  H23  1  0.35617085  0.90281475  0.79355772  1
  H+  H24  1  0.88680268  0.11508746  0.67628483  1
  H+  H25  1  0.38769336  0.28479511  -0.02050129  1
  H+  H26  1  0.27414368  0.38752731  1.01234562  1
  H+  H27  1  0.44836141  0.65110497  0.18837881  1
  H+  H28  1  0.59556601  0.39064169  0.33637477  1
  H+  H29  1  0.64536232  0.75650759  0.65435362  1
  H+  H30  1  0.62862261  0.13757106  0.84255871  1
  H+  H31  1  0.42504306  0.09736472  0.27258884  1
  H+  H32  1  0.34451966  0.42076693  0.08496348  1
  H+  H33  1  0.51376297  0.13250248  0.98465839  1
  H+  H34  1  0.15264152  0.27491137  0.67590204  1
  H+  H35  1  0.25979672  0.10739557  0.15118617  1
  H+  H36  1  0.96719054  0.85646549  0.84605077  1
  H+  H37  1  0.10833538  0.13480875  0.66876977  1
  H+  H38  1  0.52006939  0.62931864  0.82750075  1
  H+  H39  1  0.63104057  0.27504952  0.65028929  1
  H+  H40  1  0.03281190  0.13533649  0.15220062  1
  H+  H41  1  0.61803409  0.63449443  0.67931765  1
  H+  H42  1  1.00883753  0.14970558  0.84743597  1
  H+  H43  1  0.22645732  0.87432524  0.82394926  1
  H+  H44  1  0.51913609  0.89396277  0.80969332  1
  H+  H45  1  0.48638581  0.86716390  1.03304492  1
  H+  H46  1  0.86310357  0.63971742  0.00627820  1
  H+  H47  1  0.52173860  0.40110959  0.00148115  1
  H+  H48  1  0.11152652  0.88977871  0.83999624  1
  H+  H49  1  0.14592163  0.78620284  0.65944392  1
  H+  H50  1  0.13481571  0.61998067  0.83261169  1
  H+  H51  1  0.87301831  0.88127447  0.34727454  1
  H+  H52  1  0.38998304  0.35926894  0.66760910  1
  H+  H53  1  1.01180042  0.12474615  0.50918106  1
  H+  H54  1  0.63726130  0.38777796  0.00459665  1
  H+  H55  1  1.02143275  0.89787705  1.01598721  1
  H+  H56  1  0.61103543  0.39015964  0.67041507  1
  H+  H57  1  0.86117749  0.71786568  0.82848644  1
  H+  H58  1  0.88499307  0.76869020  0.50700220  1
  H+  H59  1  0.35615862  0.13433246  0.63068939  1
  H+  H60  1  0.14781623  0.60882812  0.51516269  1
  H+  H61  1  0.54974232  0.62904558  0.15145188  1
  H+  H62  1  0.47768789  0.86627324  0.33492536  1
  H+  H63  1  0.65431664  0.60996291  0.18189074  1
  H+  H64  1  0.11098301  0.98459781  0.01186388  1
  H+  H65  1  0.12333462  0.13850705  0.16591055  1
  H+  H66  1  0.05324367  0.15175803  0.34926910  1
  H+  H67  1  0.85746634  0.48837749  0.16554369  1
  H+  H68  1  0.14919775  0.27746490  -0.00107370  1
  H+  H69  1  0.78862790  0.13472435  0.50801976  1
  H+  H70  1  0.38019941  0.90389732  0.50194785  1
  H+  H71  1  0.02602916  0.88607541  0.66255013  1
  H+  H72  1  0.02544419  0.63698281  0.00786065  1
  H+  H73  1  0.13150512  0.60773518  0.99112645  1
  H+  H74  1  0.74608558  0.85966532  0.82228001  1
  H+  H75  1  0.64242197  0.02043178  0.83748214  1
  H+  H76  1  0.87941739  0.15130667  0.83609835  1
  H+  H77  1  0.88878220  0.85906244  0.65784102  1
  H+  H78  1  0.23062809  0.35951289  0.51439846  1
  H+  H79  1  0.60707796  0.20718370  -0.03261599  1
  H+  H80  1  0.52122334  0.64173343  0.00209872  1
  H+  H81  1  0.41954850  0.04876182  0.17688184  1
  H+  H82  1  0.60535088  0.38456938  0.15456147  1
  H+  H83  1  0.26249499  0.64024698  0.82478239  1
  H+  H84  1  0.88790116  0.02706733  0.66949428  1
  H+  H85  1  0.90553310  0.02262769  0.50714361  1
  H+  H86  1  0.16973789  0.83347935  0.56438928  1
  H+  H87  1  0.88577707  0.86679911  0.17893146  1
  H+  H88  1  0.72404286  0.86522814  -0.00919067  1
  H+  H89  1  0.11693119  0.73606237  0.81917296  1
  H+  H90  1  0.11070013  0.97526489  0.65390520  1
  H+  H91  1  0.28510338  0.37680584  0.69368466  1
  H+  H92  1  0.11699679  0.98288487  0.34627396  1
  H+  H93  1  0.38683919  0.77272546  1.02697852  1
  H+  H94  1  0.12222124  0.36813670  0.15780967  1
  H+  H95  1  0.88577347  0.36068127  0.51542407  1
  H+  H96  1  0.36731743  0.39126898  0.00634597  1
  H+  H97  1  0.63547506  0.28125168  0.34181457  1
  H+  H98  1  0.11723581  0.13583778  0.51863097  1
  H+  H99  1  0.86080968  0.47569304  0.50373267  1
  H+  H100  1  0.13340346  0.26853210  0.17282460  1
  H+  H101  1  0.97554057  0.60970375  0.51800933  1
  H+  H102  1  0.34623458  0.93443611  0.44359181  1
  H+  H103  1  0.36947209  0.77241849  0.18108479  1
  H+  H104  1  0.63546838  0.86510189  -0.00216296  1
  H+  H105  1  0.77389284  0.39593086  0.34989909  1
  H+  H106  1  0.63681025  0.04172934  0.66043525  1
  H+  H107  1  0.65637148  0.84849732  0.65056457  1
  H+  H108  1  0.85945748  0.39103171  0.68310088  1
  H+  H109  1  0.23250647  0.86175685  0.50758069  1
  H+  H110  1  0.63769467  0.62113794  0.98781247  1
  H+  H111  1  0.88756135  0.36953026  0.99727028  1
  H+  H112  1  1.05545540  0.43582442  0.29979355  1
  H+  H113  1  0.11482459  0.72016656  0.50435474  1
  H+  H114  1  0.16330464  0.56192018  0.31744990  1
  H+  H115  1  0.92937663  0.05865906  0.85773945  1
  H+  H116  1  0.65034310  0.02937133  0.50741649  1
  H+  H117  1  0.94851374  0.59975830  0.68278107  1
  H+  H118  1  0.87296984  0.84578852  0.83944330  1
  H+  H119  1  0.49151384  0.34819293  0.48648811  1
  H+  H120  1  0.77913292  0.40116921  1.01088627  1
  H+  H121  1  0.82896048  0.66640566  0.73472138  1
  H+  H122  1  0.24176567  0.85602435  0.98544492  1
  H+  H123  1  0.73461939  0.86781690  0.34411999  1
  H+  H124  1  0.39429241  0.87385428  1.02547501  1
  H+  H125  1  0.37486188  0.78291909  0.81541216  1
  H+  H126  1  0.65618265  0.65812804  0.51314383  1
  H+  H127  1  0.10686923  0.64851782  0.35400598  1
  H+  H128  1  0.27937521  0.65953388  0.35950131  1
  H+  H129  1  0.87069446  0.41181863  0.34545461  1
  H+  H130  1  0.14021686  0.87339631  0.34224453  1
  H+  H131  1  0.23304393  0.11324874  0.33319638  1
  H+  H132  1  0.74509502  0.66154423  0.51900592  1
  H+  H133  1  0.77920890  0.15502152  0.68154861  1
  H+  H134  1  0.05870579  0.65203827  0.64298679  1
  H+  H135  1  0.64525131  0.26582067  0.51132647  1
  H+  H136  1  0.90947500  0.33504666  0.90682256  1
  H+  H137  1  0.58150725  0.17302703  0.41064268  1
  H+  H138  1  0.11047451  0.46121147  0.14857605  1
  H+  H139  1  0.53571529  0.53616515  0.21629320  1
  H+  H140  1  0.08607488  0.93353970  0.88993660  1
  H+  H141  1  0.63326269  0.52302439  0.65659165  1
  H+  H142  1  0.22188446  0.61280362  -0.01338591  1
  H+  H143  1  0.03583805  0.14582924  0.01245658  1
  H+  H144  1  0.15332420  0.76804630  0.98634434  1
  H+  H145  1  0.37549128  0.87209665  0.65490937  1
  H+  H146  1  0.44221331  0.41070127  0.21360270  1
  H+  H147  1  0.27442964  0.05106558  0.10395824  1
  H+  H148  1  0.83219624  0.94525874  0.81454285  1
  H+  H149  1  0.30832219  0.93221848  0.16229095  1
  H+  H150  1  0.39220975  1.02045961  0.51421926  1
  H+  H151  1  0.33193978  0.16593712  0.44389987  1
  H+  H152  1  0.65443895  0.75291215  0.17822510  1
  H+  H153  1  0.14250774  0.43025356  0.30004849  1
  H+  H154  1  0.38365379  0.52608921  0.48862480  1
  H+  H155  1  0.59147214  0.91113670  0.64848716  1
  H+  H156  1  0.87850569  0.37272629  0.18022402  1
  H+  H157  1  0.60934947  0.27246365  0.85964585  1
  H+  H158  1  0.50755247  0.88919859  0.17216834  1
  H+  H159  1  0.62365913  0.81306057  0.20220868  1
  H+  H160  1  0.88786891  0.60852889  0.83710046  1
  H+  H161  1  0.15586802  0.29517831  0.33315809  1
  H+  H162  1  0.63909995  0.61735328  0.83784150  1
  H+  H163  1  0.76633581  0.63543350  0.67561532  1
  H+  H164  1  0.88295907  0.27767915  -0.00387810  1
  H+  H165  1  0.37445525  0.46700024  0.69693210  1
  H+  H166  1  0.70120471  0.12107920  0.31844525  1
  H+  H167  1  0.43189711  0.61996798  0.16184296  1
  H+  H168  1  0.40583070  0.85599787  0.86375739  1
  H+  H169  1  0.62275801  1.03651741  0.17155013  1
  H+  H170  1  0.12076382  0.22891964  0.51217132  1
  H+  H171  1  0.35432256  0.22327846  0.34819832  1
  H+  H172  1  0.41553572  0.35884989  0.92773279  1
  H+  H173  1  0.48145894  0.11904836  0.83251404  1
  H+  H174  1  0.88430113  0.86415943  0.50875745  1
  H+  H175  1  0.36317676  0.37594963  0.15288151  1
  H+  H176  1  0.78295466  0.89111702  0.49322668  1
  H+  H177  1  0.25276955  0.62709529  0.16160114  1
  H+  H178  1  0.01350727  0.39182129  0.81466026  1
  H+  H179  1  0.63836775  0.30348613  1.02084637  1
  H+  H180  1  0.77077734  0.39821196  0.16134098  1
  H+  H181  1  0.63330424  0.12931001  0.16384888  1
  H+  H182  1  0.11334965  0.58564567  0.17512382  1
  H+  H183  1  0.27740064  0.89340584  0.34954951  1
  H+  H184  1  0.36960784  0.14478087  0.50210241  1
  H+  H185  1  0.51943884  0.38468958  0.66899030  1
  H+  H186  1  0.64442665  0.77924238  0.48446370  1
  H+  H187  1  0.37641503  0.90097152  0.16630180  1
  H+  H188  1  0.89146776  0.53091231  0.99429899  1
  H+  H189  1  0.86758751  0.64252003  0.49957771  1
  H+  H190  1  -0.02374658  0.87062177  0.18004198  1
  H+  H191  1  1.09157708  0.18151108  0.76799491  1
  H+  H192  1  0.61719616  0.88901934  0.34320608  1
  H+  H193  1  0.58170599  0.38311669  0.82989536  1
  H+  H194  1  0.53558420  0.13973372  0.50914030  1
  H+  H195  1  0.88006673  0.27324500  0.84572514  1
  H+  H196  1  0.86733583  0.60915412  0.66937151  1
  H+  H197  1  0.14809998  0.04394265  0.83072571  1
  H+  H198  1  0.37738920  0.98521102  -0.00219304  1
  H+  H199  1  0.44990692  0.35878979  0.33253049  1
  H+  H200  1  0.15374094  0.53291358  0.66488819  1
  H+  H201  1  0.89050961  0.12329013  0.00169624  1
  H+  H202  1  0.02814004  0.38282537  0.53642858  1
  H+  H203  1  0.77204985  0.62968518  0.82620633  1
  H+  H204  1  0.14479547  0.52010259  0.53036162  1
  H+  H205  1  0.38312958  0.52824451  0.99788607  1
  H+  H206  1  0.85777537  0.88320617  0.00495202  1
  H+  H207  1  0.35541257  0.37831344  0.77671288  1
  H+  H208  1  0.48514348  0.87885676  0.51035209  1
  H+  H209  1  0.87870270  0.61835268  0.17452914  1
  H+  H210  1  0.90494720  0.11342038  0.51836003  1
  H+  H211  1  0.36142113  -0.00749003  0.80504558  1
  H+  H212  1  0.77319776  0.63838723  1.00584859  1
  H+  H213  1  0.52244557  0.63988073  0.45482025  1
  H+  H214  1  0.13780206  0.02580846  0.18281539  1
  H+  H215  1  0.38699479  0.27027602  0.65199537  1
  H+  H216  1  0.86173284  0.73044869  0.34699353  1
  H+  H217  1  0.40815789  0.57766942  0.93534011  1
  H+  H218  1  0.47350261  0.36149921  0.17406682  1
  H+  H219  1  0.61173180  0.50240123  0.51769807  1
  H+  H220  1  0.88419887  0.76680804  0.65780742  1
  H+  H221  1  0.72410447  0.36058547  0.66182371  1
  H+  H222  1  0.36644930  -0.01774062  0.34463588  1
  H+  H223  1  0.59880204  0.64357176  0.41457280  1
  H+  H224  1  0.34787186  0.64269626  0.16270514  1
  H+  H225  1  0.86008166  0.97374846  0.00725833  1
  H+  H226  1  0.88350073  0.62348875  0.33203453  1
  H+  H227  1  0.58489696  0.51211091  0.49641789  1
  H+  H228  1  0.25637742  0.34582627  0.84749184  1
  H+  H229  1  0.38625237  0.02622287  0.61263681  1
  H+  H230  1  0.13443271  0.78168604  0.34710854  1
  H+  H231  1  0.09679044  0.48123262  0.80439397  1
  H+  H232  1  0.07730121  0.40741533  0.59682362  1
  H+  H233  1  0.14329183  0.35635456  0.53658231  1
  H+  H234  1  0.14602371  0.36535566  -0.00639359  1
  H+  H235  1  0.92131324  0.10588877  0.32315854  1
  H+  H236  1  0.80029869  0.07698985  0.37043575  1
  H+  H237  1  0.77098974  0.88265157  0.16377173  1
  H+  H238  1  0.51420650  0.13979968  0.63059626  1
  H+  H239  1  0.60348128  0.91248538  0.18414477  1
  H+  H240  1  -0.01919686  0.61617774  0.83614802  1
  H+  H241  1  0.93676588  0.33772309  0.33512652  1
  H+  H242  1  0.65714894  0.59288718  0.29628905  1
  H+  H243  1  0.42133648  0.84669071  0.56726934  1
  H+  H244  1  0.87694626  0.48135716  0.83285743  1
  H+  H245  1  0.62321888  0.26812076  0.16968480  1
  H+  H246  1  0.86543925  0.73044951  0.16348885  1
  H+  H247  1  0.47658193  0.40789039  0.83201277  1
  H+  H248  1  0.37008048  0.26743241  0.51080565  1
  H+  H249  1  0.62878465  0.10079559  0.98882683  1
  H+  H250  1  0.39145398  0.47283698  0.15741104  1
  H+  H251  1  0.01544594  0.64415615  0.34951578  1
  H+  H252  1  0.29088539  0.64608412  0.67162366  1
  H+  H253  1  0.88911333  0.27252639  0.52173690  1
  H+  H254  1  0.38867256  0.86957877  0.33925637  1
  H+  H255  1  0.34462996  0.67854607  0.73168182  1
  H+  H256  1  0.13339883  0.64245804  0.67022634  1
  H+  H257  1  0.39415120  0.31748930  0.27432486  1
  H+  H258  1  0.92286382  0.09144196  0.09597379  1
  H+  H259  1  0.60839965  -0.02557617  0.33687548  1
  H+  H260  1  0.88353429  0.53543613  0.33415293  1
  H+  H261  1  0.98377577  0.86554365  0.33438381  1
  H+  H262  1  0.27726074  0.14545549  -0.01241700  1
  H+  H263  1  0.62417960  0.86214723  0.83545063  1
  H+  H264  1  0.78152386  0.87542862  0.66128996  1
  H+  H265  1  0.39236025  0.11742790  0.16750704  1
  H+  H266  1  0.19256163  0.82549553  0.19327360  1
  H+  H267  1  0.09253387  0.70114057  0.17410418  1
  H+  H268  1  0.10406482  0.88512117  0.17052611  1
  H+  H269  1  0.88329256  0.77355362  0.99912297  1
  H+  H270  1  0.62679410  0.51222761  0.18691355  1
  H+  H271  1  0.35705744  0.65302141  0.83279335  1
  H+  H272  1  0.59946846  0.14146769  0.34692828  1
  H+  H273  1  0.10227578  0.17208068  0.06745807  1
  H+  H274  1  0.13420711  0.24746807  0.82634478  1
  H+  H275  1  0.47504505  0.12217544  0.33613079  1
  H+  H276  1  0.57153131  0.41835156  0.76375323  1
  H+  H277  1  0.58904580  0.37099831  0.48775786  1
  H+  H278  1  0.16718003  0.33723453  0.22921893  1
  H+  H279  1  0.88409011  -0.02609807  0.34445922  1
  H+  H280  1  0.18521592  0.58993540  0.60410605  1
  H+  H281  1  0.09039932  0.40253719  0.08711645  1
  H+  H282  1  0.27164940  0.90422705  0.64992250  1
  H+  H283  1  0.10753777  0.18455738  0.41037692  1
  H+  H284  1  1.02196853  0.13780091  0.67824476  1
  H+  H285  1  0.00445430  0.61693457  0.16621972  1
  H+  H286  1  0.61122153  0.49185730  0.00315965  1
  H+  H287  1  0.77038093  0.13821807  1.00693406  1
  H+  H288  1  0.47591949  0.88102076  0.93015644  1
  H+  H289  1  0.12936158  0.43919762  0.40973627  1
  H+  H290  1  0.76915045  0.64279890  0.35389237  1
  H+  H291  1  0.20434352  0.65425227  0.28756462  1
  H+  H292  1  0.57978974  0.42439649  0.09747339  1
  H+  H293  1  0.67139275  0.60301887  0.60640133  1
  H+  H294  1  0.66772702  0.58765422  0.93010743  1
  H+  H295  1  0.67334174  0.81885701  0.28993608  1
  H+  H296  1  0.32008519  0.66073413  0.06691730  1
  H+  H297  1  0.93560402  0.10357684  0.94732699  1
  H+  H298  1  0.83623242  0.67220332  0.10370863  1
  H+  H299  1  0.82561096  0.89591829  0.72626173  1
  H+  H300  1  0.85731215  0.16373749  0.45467219  1
  H+  H301  1  0.55294479  0.39513930  0.39670192  1
  H+  H302  1  0.90936519  0.58004230  0.57410597  1
  H+  H303  1  0.47977077  0.60342921  0.67394466  1
  H+  H304  1  0.07531224  0.65838324  0.44846916  1
  H+  H305  1  0.82255898  0.90620664  0.10000466  1
  H+  H306  1  0.42430103  0.49689088  0.85892522  1
  H+  H307  1  0.62772097  0.52983803  0.35039057  1
  H+  H308  1  0.64208606  0.08934529  0.26134271  1
  H+  H309  1  0.26847100  0.13354626  0.64018725  1
  H+  H310  1  0.83949449  0.67376064  0.43837187  1
  H+  H311  1  0.92189642  0.58896231  0.93439548  1
  H+  H312  1  0.41228278  0.08348799  0.91795014  1
  H+  H313  1  0.39129020  0.55807839  0.33296687  1
  H+  H314  1  0.08093140  0.65805528  0.06843195  1
  H+  H315  1  0.83533948  0.41335387  0.77462062  1
  H+  H316  1  0.67572726  0.33578673  0.57200605  1
  H+  H317  1  0.90986531  0.82903415  0.93839908  1
  H+  H318  1  0.14581605  0.82225297  0.25433070  1
  H+  H319  1  0.92263347  0.83657537  0.27440108  1
  H+  H320  1  0.53991644  0.15613040  0.69922884  1
  H+  H321  1  0.30594791  0.60167155  0.50020326  1
  H+  H322  1  0.56920755  0.28445730  0.21680313  1
  H+  H323  1  0.91152414  0.82813905  0.57334692  1
  H+  H324  1  0.17777085  0.09110738  0.23907630  1
  H+  H325  1  0.66970431  0.81810585  0.55170378  1
  H+  H326  1  0.62683901  0.19572185  0.78998303  1
  H+  H327  1  0.62273756  0.89316639  0.49188040  1
  H+  H328  1  0.58676349  0.92610238  0.75689495  1
  H+  H329  1  0.52915803  0.69177282  0.35309089  1
  H+  H330  1  0.33504429  0.16897127  0.04652594  1
  H+  H331  1  0.65411437  0.83629757  0.89818412  1
  H+  H332  1  0.13673283  0.53010821  0.22294772  1
  H+  H333  1  0.59256694  0.92435094  0.07881829  1
  H+  H334  1  0.31943155  0.40458925  0.43567635  1
  H+  H335  1  0.84026548  0.17282673  0.77662678  1
  H+  H336  1  0.66859240  0.33459237  0.28079351  1
  H+  H337  1  0.66569891  0.06800815  0.93611568  1
  H+  H338  1  0.59896040  0.66960029  0.08958642  1
  H+  H339  1  0.15158835  0.13432450  0.83031715  1
  H+  H340  1  0.46127996  0.54128654  0.25336458  1
  H+  H341  1  0.08282077  0.92368864  0.11012024  1
  H+  H342  1  0.87173639  0.23947412  0.68571196  1
  H+  H343  1  0.35232103  0.94196633  0.06454777  1
  H+  H344  1  0.91922436  0.34513615  0.61360132  1
  H+  H345  1  0.92605545  0.36505366  0.26690249  1
  H+  H346  1  0.33812248  0.15720300  0.74133707  1
  H+  H347  1  0.08593986  0.67328527  0.76152715  1
  H+  H348  1  0.73487909  0.10740818  0.84524757  1
  H+  H349  1  0.33603256  0.94889287  0.70425898  1
  H+  H350  1  0.73951704  0.36520819  0.50742282  1
  H+  H351  1  0.15105674  0.12339709  0.33366238  1
  H+  H352  1  0.82670245  0.17544450  0.06728571  1
  H+  H353  1  0.59085937  0.67313301  0.73601753  1
  H+  H354  1  0.88402052  0.02275997  0.14725865  1
  H+  H355  1  0.19333761  0.33820244  0.90089847  1
  H+  H356  1  0.19507717  0.33363863  0.61930961  1
  H+  H357  1  0.67891751  0.08980413  0.56766590  1
  H+  H358  1  0.36191115  0.64301951  0.00729041  1
  H+  H359  1  0.46455259  0.83454180  0.92841186  1
  H+  H360  1  0.29987284  0.36066836  0.32234967  1
  H+  H361  1  0.90557516  0.58682377  0.23632415  1
  H+  H362  1  0.39396637  0.12244873  0.82035908  1
  H+  H363  1  0.40405425  0.82887024  0.24271684  1
  H+  H364  1  0.09195140  0.92804804  0.40840565  1
  H+  H365  1  0.63926675  0.12955785  0.65077902  1
  H+  H366  1  0.50471131  0.90217394  0.66946855  1
  H+  H367  1  0.83962573  0.42916787  0.06861897  1
  H+  H368  1  0.95971343  0.07864738  0.26791714  1
  H+  H369  1  0.76857259  0.14425912  0.16236539  1
  H+  H370  1  0.61050550  0.73157919  0.99933511  1
  H+  H371  1  0.87991753  0.28480896  0.18376097  1
  H+  H372  1  0.58377682  0.17546378  0.08069371  1
  H+  H373  1  0.35193937  0.66494184  0.41288431  1
  H+  H374  1  0.83345667  0.42066817  0.44152496  1
  H+  H375  1  0.63296866  0.52597901  0.83582008  1
  H+  H376  1  0.87425938  0.37914743  0.83835005  1
  H+  H377  1  0.58944064  0.92440275  0.43585237  1
  H+  H378  1  0.62558832  0.13911233  0.50115681  1
  H+  H379  1  0.84882122  0.92036915  0.43714410  1
  H+  H380  1  0.12472297  0.98095116  0.50790152  1
  H+  H381  1  0.63395020  0.33911999  0.91356325  1
  H+  H382  1  0.17502731  0.09584849  0.92237781  1
  H+  H383  1  0.17557041  0.45195929  0.41444140  1
  O2-  O384  1  0.09613196  0.17019430  0.14679266  1
  O2-  O385  1  0.09013844  0.16673619  0.49606042  1
  O2-  O386  1  0.09526133  0.18515130  0.81358131  1
  O2-  O387  1  0.08956981  0.40103356  0.13343972  1
  O2-  O388  1  0.08770264  0.41051361  0.55253466  1
  O2-  O389  1  0.05831899  0.42555211  0.78465170  1
  O2-  O390  1  0.06721767  0.64380381  0.15501678  1
  O2-  O391  1  0.08071573  0.65742147  0.49366841  1
  O2-  O392  1  0.08480880  0.67374796  0.80644894  1
  O2-  O393  1  0.08266006  0.92321154  0.15613065  1
  O2-  O394  1  0.10350004  0.93007656  0.48147890  1
  O2-  O395  1  0.07875692  0.92104827  0.84644755  1
  O2-  O396  1  0.30478816  0.10735415  0.12351181  1
  O2-  O397  1  0.33492533  0.17016533  0.48896277  1
  O2-  O398  1  0.34660873  0.16441543  0.78578282  1
  O2-  O399  1  0.34688993  0.41922671  0.13681615  1
  O2-  O400  1  0.32964177  0.41605736  0.47928469  1
  O2-  O401  1  0.34890298  0.34922422  0.81861241  1
  O2-  O402  1  0.31321727  0.66716620  0.14757851  1
  O2-  O403  1  0.33732110  0.59850476  0.46419472  1
  O2-  O404  1  0.32513688  0.67536589  0.81106329  1
  O2-  O405  1  0.36412399  0.94444030  0.14678253  1
  O2-  O406  1  0.34799845  0.93548035  0.48894012  1
  O2-  O407  1  0.32674412  0.93574773  0.78408640  1
  O2-  O408  1  0.58714182  0.17917930  0.12570931  1
  O2-  O409  1  0.59528771  0.17215610  0.49156015  1
  O2-  O410  1  0.60206132  0.17297666  0.82973094  1
  O2-  O411  1  0.57722393  0.41768819  0.14283441  1
  O2-  O412  1  0.53877599  0.34901862  0.46170648  1
  O2-  O413  1  0.56637750  0.42321968  0.80880118  1
  O2-  O414  1  0.60707187  0.66657005  0.13461932  1
  O2-  O415  1  0.58329785  0.67625848  0.44251174  1
  O2-  O416  1  0.58046050  0.66592971  0.81419281  1
  O2-  O417  1  0.56852426  0.92612049  0.15758869  1
  O2-  O418  1  0.59511846  0.92771966  0.48102188  1
  O2-  O419  1  0.58210744  0.92090807  0.80201495  1
  O2-  O420  1  0.82805001  0.17719102  0.14614421  1
  O2-  O421  1  0.85228274  0.16587092  0.49918289  1
  O2-  O422  1  0.84048943  0.17267439  0.82246772  1
  O2-  O423  1  0.83035534  0.42765084  0.14776021  1
  O2-  O424  1  0.83070473  0.41515042  0.48742535  1
  O2-  O425  1  0.84540162  0.41797669  0.82019786  1
  O2-  O426  1  0.83646492  0.67026332  0.14884758  1
  O2-  O427  1  0.84310317  0.67802952  0.48443940  1
  O2-  O428  1  0.83281937  0.65839139  0.81103527  1
  O2-  O429  1  0.82896311  0.91542111  0.14502467  1
  O2-  O430  1  0.84594408  0.92078409  0.48322923  1
  O2-  O431  1  0.80635480  0.88433894  0.80547000  1
  O2-  O432  1  0.17427016  0.08832348  0.19323204  1
  O2-  O433  1  0.14490874  0.07727925  0.55499801  1
  O2-  O434  1  0.18325241  0.10429801  0.84378024  1
  O2-  O435  1  0.15777730  0.33075788  0.18445099  1
  O2-  O436  1  0.17446260  0.32355044  0.53556092  1
  O2-  O437  1  0.19909884  0.33923237  0.85622724  1
  O2-  O438  1  0.14859971  0.55665258  0.18176287  1
  O2-  O439  1  0.18206291  0.58378538  0.53174706  1
  O2-  O440  1  0.16336756  0.58654721  0.84487606  1
  O2-  O441  1  0.13669331  0.81253042  0.20862938  1
  O2-  O442  1  0.17104124  0.82796114  0.51894963  1
  O2-  O443  1  0.16974849  0.83836431  0.84415072  1
  O2-  O444  1  0.43840867  0.10963168  0.18681758  1
  O2-  O445  1  0.42857282  0.08660990  0.53002081  1
  O2-  O446  1  0.41945848  0.08958321  0.84189917  1
  O2-  O447  1  0.42104015  0.35167892  0.19659469  1
  O2-  O448  1  0.40096898  0.33112358  0.52144642  1
  O2-  O449  1  0.42551551  0.40674518  0.85462417  1
  O2-  O450  1  0.47281350  0.51935415  0.21461470  1
  O2-  O451  1  0.40961214  0.59063826  0.48931005  1
  O2-  O452  1  0.41695169  0.54923255  0.85823743  1
  O2-  O453  1  0.40449379  0.83209766  0.19722275  1
  O2-  O454  1  0.42413160  0.85323488  0.52233808  1
  O2-  O455  1  0.40742097  0.84717167  0.81999181  1
  O2-  O456  1  0.65654330  0.09679466  0.18622266  1
  O2-  O457  1  0.68249335  0.09074609  0.52206776  1
  O2-  O458  1  0.67359536  0.07679847  0.85928190  1
  O2-  O459  1  0.62662460  0.31275503  0.19875922  1
  O2-  O460  1  0.67658112  0.33014399  0.52441614  1
  O2-  O461  1  0.60202551  0.31971388  0.87503967  1
  O2-  O462  1  0.63655548  0.56293988  0.21145774  1
  O2-  O463  1  0.70006480  0.66508031  0.54259538  1
  O2-  O464  1  0.66829367  0.58568619  0.85218154  1
  O2-  O465  1  0.67476830  0.80752968  0.20236865  1
  O2-  O466  1  0.67429351  0.83365847  0.50779034  1
  O2-  O467  1  0.65148142  0.83007500  0.85278693  1
  O2-  O468  1  0.91956958  0.08685987  0.14040804  1
  O2-  O469  1  0.93908148  0.08341483  0.52261510  1
  O2-  O470  1  0.94906595  0.11823407  0.86823681  1
  O2-  O471  1  0.90644100  0.34357793  0.20053399  1
  O2-  O472  1  0.91406553  0.33270292  0.53668506  1
  O2-  O473  1  0.90779481  0.33485576  0.86038563  1
  O2-  O474  1  0.90489440  0.58288199  0.19097718  1
  O2-  O475  1  0.91272381  0.58000276  0.52908995  1
  O2-  O476  1  0.92098090  0.58082549  0.85232864  1
  O2-  O477  1  0.91633534  0.83839583  0.19620620  1
  O2-  O478  1  0.91132832  0.83000790  0.52553247  1
  O2-  O479  1  0.90530417  0.81982708  0.85741926  1
  O2-  O480  1  0.17299687  0.08742512  0.31576116  1
  O2-  O481  1  0.15648643  0.08324111  0.61543418  1
  O2-  O482  1  0.17502082  0.09116175  0.96793404  1
  O2-  O483  1  0.18502306  0.35012931  0.30888339  1
  O2-  O484  1  0.19256755  0.33552256  0.66408119  1
  O2-  O485  1  0.18241259  0.33896334  0.98512657  1
  O2-  O486  1  0.19019262  0.62581040  0.32716862  1
  O2-  O487  1  0.18499974  0.59234593  0.65069323  1
  O2-  O488  1  0.16177624  0.57890219  0.97237699  1
  O2-  O489  1  0.16812867  0.83958085  0.32777160  1
  O2-  O490  1  0.16914077  0.84265220  0.63957127  1
  O2-  O491  1  0.18736467  0.82219076  0.96357268  1
  O2-  O492  1  0.41695487  0.08814484  0.31702984  1
  O2-  O493  1  0.42075929  0.08796391  0.59713315  1
  O2-  O494  1  0.41429759  0.08379330  0.96396921  1
  O2-  O495  1  0.38890842  0.32244430  0.31877613  1
  O2-  O496  1  0.42003835  0.33347081  0.64429820  1
  O2-  O497  1  0.41588209  0.34820982  0.97224225  1
  O2-  O498  1  0.45144692  0.57913692  0.32204747  1
  O2-  O499  1  0.41704263  0.56576270  0.66896676  1
  O2-  O500  1  0.40990835  0.58692531  0.98011497  1
  O2-  O501  1  0.41464565  0.83431674  0.32428588  1
  O2-  O502  1  0.41191880  0.84507750  0.64782945  1
  O2-  O503  1  0.42048546  0.83672144  1.03967745  1
  O2-  O504  1  0.64114648  0.08471687  0.30724865  1
  O2-  O505  1  0.67417606  0.10133508  0.64489063  1
  O2-  O506  1  0.66160953  0.07050830  0.98164573  1
  O2-  O507  1  0.66901322  0.34107407  0.32524847  1
  O2-  O508  1  0.66855725  0.33682482  0.63875154  1
  O2-  O509  1  0.66843063  0.35479691  0.99560480  1
  O2-  O510  1  0.66126290  0.59251006  0.34101373  1
  O2-  O511  1  0.66741731  0.58661998  0.65043435  1
  O2-  O512  1  0.66751548  0.58916486  0.97577397  1
  O2-  O513  1  0.67356369  0.83953033  0.33136456  1
  O2-  O514  1  0.67889303  0.81456281  0.63231375  1
  O2-  O515  1  0.66292335  0.83655112  0.97617654  1
  O2-  O516  1  0.95624586  0.07942388  0.31218703  1
  O2-  O517  1  0.91953939  0.08895081  0.66008880  1
  O2-  O518  1  0.92458817  0.09462279  0.99203202  1
  O2-  O519  1  0.94655092  0.38723637  0.31099680  1
  O2-  O520  1  0.92320637  0.35103431  0.65953122  1
  O2-  O521  1  0.91565956  0.33787708  0.98014626  1
  O2-  O522  1  0.91486839  0.59420855  0.31631166  1
  O2-  O523  1  0.89637075  0.57421531  0.65809556  1
  O2-  O524  1  0.92187190  0.59168875  0.97957557  1
  O2-  O525  1  0.92253142  0.83393538  0.32000033  1
  O2-  O526  1  0.91543596  0.82604168  0.63986677  1
  O2-  O527  1  0.91115242  0.83426646  0.98353801  1
  O2-  O528  1  0.09820566  0.17401217  0.02214239  1
  O2-  O529  1  0.11152962  0.19094686  0.36554053  1
  O2-  O530  1  0.08412920  0.16545843  0.69116074  1
  O2-  O531  1  0.08700410  0.41376717  0.01414844  1
  O2-  O532  1  0.11843709  0.46774383  0.28991514  1
  O2-  O533  1  0.01622884  0.41037543  0.66781663  1
  O2-  O534  1  0.08542866  0.66042095  0.02348748  1
  O2-  O535  1  0.07322490  0.67394523  0.36993281  1
  O2-  O536  1  0.09667596  0.66959339  0.67825417  1
  O2-  O537  1  0.07925925  0.93021702  0.03450838  1
  O2-  O538  1  0.08702546  0.92290559  0.36231240  1
  O2-  O539  1  0.08729489  0.91889081  0.67425253  1
  O2-  O540  1  0.33925204  0.17701351  0.00198125  1
  O2-  O541  1  0.32838478  0.16283264  0.36372238  1
  O2-  O542  1  0.32817723  0.15850318  0.65599172  1
  O2-  O543  1  0.33743414  0.42044600  0.02665704  1
  O2-  O544  1  0.27369751  0.39589411  0.33439445  1
  O2-  O545  1  0.34691510  0.40489125  0.70954786  1
  O2-  O546  1  0.33151718  0.67342904  0.02259542  1
  O2-  O547  1  0.34220361  0.68718916  0.37234314  1
  O2-  O548  1  0.35083127  0.68189357  0.68682448  1
  O2-  O549  1  0.35343815  0.92942523  0.02072409  1
  O2-  O550  1  0.33919090  0.92310672  0.36220380  1
  O2-  O551  1  0.33521476  0.93963635  0.65935041  1
  O2-  O552  1  0.57671921  0.16219057  -0.00217488  1
  O2-  O553  1  0.57647420  0.17619279  0.36569781  1
  O2-  O554  1  0.56581062  0.16794370  0.65884481  1
  O2-  O555  1  0.58008731  0.43133806  0.02012997  1
  O2-  O556  1  0.56073917  0.41457549  0.35266616  1
  O2-  O557  1  0.58019586  0.41911916  0.68533082  1
  O2-  O558  1  0.58264755  0.67094374  0.01458821  1
  O2-  O559  1  0.48724427  0.67318316  0.31946749  1
  O2-  O560  1  0.59193235  0.67080811  0.69064569  1
  O2-  O561  1  0.58420045  0.91613260  0.03413843  1
  O2-  O562  1  0.58191695  0.91643805  0.35506289  1
  O2-  O563  1  0.56983375  0.93487234  0.67891982  1
  O2-  O564  1  0.83057641  0.17263401  0.02194374  1
  O2-  O565  1  0.85526213  0.13070494  0.37188725  1
  O2-  O566  1  0.83692467  0.17958209  0.70049313  1
  O2-  O567  1  0.84041874  0.42684763  0.02318686  1
  O2-  O568  1  0.83386945  0.43091043  0.36613448  1
  O2-  O569  1  0.82039988  0.41124373  0.69930326  1
  O2-  O570  1  0.83283599  0.66940497  0.02228753  1
  O2-  O571  1  0.83215994  0.67091747  0.36418078  1
  O2-  O572  1  0.82855886  0.66659178  0.68887856  1
  O2-  O573  1  0.82583872  0.91283350  0.01988585  1
  O2-  O574  1  0.84724336  0.91673336  0.36283790  1
  O2-  O575  1  0.83827597  0.90767540  0.68219515  1
