# generated using pymatgen
data_H2O
_symmetry_space_group_name_H-M   'P 1'
_cell_length_a   17.98356988
_cell_length_b   17.98196477
_cell_length_c   21.98392078
_cell_angle_alpha   90.03103489
_cell_angle_beta   89.94837247
_cell_angle_gamma   120.03142737
_symmetry_Int_Tables_number   1
_chemical_formula_structural   H2O
_chemical_formula_sum   'H384 O192'
_cell_volume   6154.75871308
_cell_formula_units_Z   192
loop_
 _symmetry_equiv_pos_site_id
 _symmetry_equiv_pos_as_xyz
  1  'x, y, z'
loop_
 _atom_type_symbol
 _atom_type_oxidation_number
  H+  1.0
  O2-  -2.0
loop_
 _atom_site_type_symbol
 _atom_site_label
 _atom_site_symmetry_multiplicity
 _atom_site_fract_x
 _atom_site_fract_y
 _atom_site_fract_z
 _atom_site_occupancy
  H+  H0  1  0.11699910  0.38212162  0.34175439  1
  H+  H1  1  0.90033690  0.07478257  0.93960981  1
  H+  H2  1  0.88589004  0.86700987  -0.00292367  1
  H+  H3  1  0.35004895  0.96254125  0.33432637  1
  H+  H4  1  0.24989770  0.87823518  0.83502179  1
  H+  H5  1  0.63168606  0.51683882  0.50698514  1
  H+  H6  1  0.89351737  0.62326176  0.98698858  1
  H+  H7  1  0.22753901  0.61167253  0.15334782  1
  H+  H8  1  0.86701083  0.78001423  0.83664263  1
  H+  H9  1  0.15982569  0.32613066  0.27592555  1
  H+  H10  1  0.63335470  0.99069959  0.14494980  1
  H+  H11  1  0.89445010  0.56409860  0.82874680  1
  H+  H12  1  0.52514010  0.63426834  1.00370304  1
  H+  H13  1  0.86134349  0.47687231  0.49420428  1
  H+  H14  1  0.67125627  0.30390032  0.97864267  1
  H+  H15  1  0.84549924  0.89147311  0.49679770  1
  H+  H16  1  0.89327772  0.35858244  0.65946345  1
  H+  H17  1  -0.07555757  0.82850103  0.45379076  1
  H+  H18  1  0.52696839  0.15943626  0.67768050  1
  H+  H19  1  0.22733224  0.12242628  0.66423673  1
  H+  H20  1  0.12563789  0.86250875  0.17324742  1
  H+  H21  1  0.89855120  0.86579244  0.33002544  1
  H+  H22  1  0.35248837  0.71967257  -0.00217002  1
  H+  H23  1  0.64491638  0.22850731  0.44087204  1
  H+  H24  1  0.28684172  0.39501364  0.67932256  1
  H+  H25  1  0.56777645  0.24426090  0.43477759  1
  H+  H26  1  0.14213347  0.90800412  0.82131537  1
  H+  H27  1  0.11086026  0.71215603  0.65117653  1
  H+  H28  1  0.13573571  0.11826051  0.66394979  1
  H+  H29  1  0.37098984  0.64262619  0.15127112  1
  H+  H30  1  0.94128797  0.32512763  0.89721219  1
  H+  H31  1  0.84939267  0.93044307  0.39523958  1
  H+  H32  1  0.39442665  0.27257472  0.84882168  1
  H+  H33  1  0.74882222  0.64793310  0.18181924  1
  H+  H34  1  0.77287637  0.38760341  0.49998245  1
  H+  H35  1  0.68416157  0.86587824  0.27227677  1
  H+  H36  1  0.74876846  0.88697900  0.17366885  1
  H+  H37  1  0.02492014  0.89107599  0.67880624  1
  H+  H38  1  0.78356761  0.64521457  0.00669222  1
  H+  H39  1  0.37524082  0.38196751  0.68418891  1
  H+  H40  1  0.01771785  0.37062097  0.16066982  1
  H+  H41  1  0.47744510  0.86631846  0.83878654  1
  H+  H42  1  0.35224946  0.35105389  1.00171919  1
  H+  H43  1  0.23033268  0.96481201  0.94982196  1
  H+  H44  1  0.61517210  0.38966666  0.49663484  1
  H+  H45  1  0.07293989  0.44289705  0.99587362  1
  H+  H46  1  0.38739371  0.77738552  0.83691871  1
  H+  H47  1  0.41549106  0.79430217  0.50870778  1
  H+  H48  1  0.63743363  0.28567642  0.52579824  1
  H+  H49  1  0.90585142  0.53364411  0.16717098  1
  H+  H50  1  0.11242613  0.13316947  0.49283228  1
  H+  H51  1  0.63227476  0.90303368  0.15533161  1
  H+  H52  1  0.86914660  0.64175611  0.16359631  1
  H+  H53  1  0.86420473  0.21381959  0.82349794  1
  H+  H54  1  0.85911695  0.22527719  0.48765220  1
  H+  H55  1  0.23555526  0.12124697  0.50291387  1
  H+  H56  1  0.88674806  0.11561623  0.50205598  1
  H+  H57  1  0.94776690  0.09792292  0.25950919  1
  H+  H58  1  0.02956504  0.88235486  0.34258246  1
  H+  H59  1  0.76800977  0.78146315  0.57401085  1
  H+  H60  1  0.52892960  0.35356332  0.32392620  1
  H+  H61  1  0.65344562  0.14119744  0.29431405  1
  H+  H62  1  0.27039032  0.14142589  0.33498280  1
  H+  H63  1  0.88676348  0.48448600  0.98253387  1
  H+  H64  1  0.73198689  0.37351743  0.67020599  1
  H+  H65  1  0.88853574  0.77121791  0.32925868  1
  H+  H66  1  0.61452340  0.36556734  0.17146255  1
  H+  H67  1  0.34517006  0.51501749  0.29567372  1
  H+  H68  1  0.05810074  0.15179086  0.07669318  1
  H+  H69  1  0.29487719  0.14067911  0.82963420  1
  H+  H70  1  0.87464658  0.10291225  0.84336249  1
  H+  H71  1  0.21035679  0.34541551  0.18161538  1
  H+  H72  1  0.38971785  0.02353368  0.50167663  1
  H+  H73  1  0.28413143  0.88529364  0.49433732  1
  H+  H74  1  0.35399771  0.38205670  0.15387159  1
  H+  H75  1  0.77070359  0.88246752  0.01532191  1
  H+  H76  1  0.67758711  0.93839469  0.35577206  1
  H+  H77  1  0.85456477  0.97457104  0.01175952  1
  H+  H78  1  0.90099119  0.34712543  0.84127066  1
  H+  H79  1  0.94013902  0.86835608  0.47304188  1
  H+  H80  1  0.39015457  0.26155621  0.31194153  1
  H+  H81  1  0.09539849  0.12995606  0.01698967  1
  H+  H82  1  0.97253141  0.60651615  0.65309626  1
  H+  H83  1  0.11307623  0.97114656  0.16352844  1
  H+  H84  1  0.08213533  0.20120528  0.17639795  1
  H+  H85  1  0.60861872  0.88523587  0.66634683  1
  H+  H86  1  0.33975244  0.82808501  0.31214058  1
  H+  H87  1  0.15496260  0.73803739  -0.01179593  1
  H+  H88  1  0.84705438  0.71752127  0.49655156  1
  H+  H89  1  0.52295767  0.88023699  0.00249954  1
  H+  H90  1  0.25171442  0.53460221  0.87853160  1
  H+  H91  1  0.26000970  0.12365294  0.00370858  1
  H+  H92  1  0.34552564  0.21405028  0.00784558  1
  H+  H93  1  0.11670904  0.13892785  0.34318985  1
  H+  H94  1  0.39172963  0.87322869  0.66194735  1
  H+  H95  1  0.28419566  0.90384932  0.00669723  1
  H+  H96  1  0.65772330  0.79933887  0.16986804  1
  H+  H97  1  0.60966083  0.73647656  0.67644103  1
  H+  H98  1  0.72287943  0.11200449  0.99664525  1
  H+  H99  1  0.28724252  0.64857324  0.50319757  1
  H+  H100  1  0.47503547  0.11422411  0.50173893  1
  H+  H101  1  0.89854050  0.87321202  0.17629228  1
  H+  H102  1  0.63896137  0.52987159  0.84337569  1
  H+  H103  1  0.74487702  0.14642170  0.30104376  1
  H+  H104  1  0.26571762  0.62639913  1.00465858  1
  H+  H105  1  0.80082258  0.39581736  0.98683697  1
  H+  H106  1  0.61187345  0.39608584  0.68055261  1
  H+  H107  1  0.48341049  0.62085103  0.16332970  1
  H+  H108  1  0.86866813  1.01082594  0.84483890  1
  H+  H109  1  0.35329000  0.21342139  0.15186973  1
  H+  H110  1  0.85314290  -0.01817034  0.49118913  1
  H+  H111  1  0.52034860  0.89261139  0.66895577  1
  H+  H112  1  0.37721102  0.98331529  0.00955115  1
  H+  H113  1  0.35796217  0.47309605  0.15654751  1
  H+  H114  1  0.52395797  0.38939407  0.83666776  1
  H+  H115  1  0.59762852  0.14231837  0.18880009  1
  H+  H116  1  0.12998264  0.76785289  0.17234513  1
  H+  H117  1  0.60748981  0.27554792  0.18453728  1
  H+  H118  1  0.26232083  0.36237197  0.35080023  1
  H+  H119  1  0.38998405  0.11334156  0.99808816  1
  H+  H120  1  0.35287647  0.71241354  0.34307047  1
  H+  H121  1  -0.02054101  0.35344823  0.65560937  1
  H+  H122  1  0.48036131  0.11424386  1.00540074  1
  H+  H123  1  0.15420103  1.03167838  0.82516178  1
  H+  H124  1  0.02162931  0.68551004  0.79916353  1
  H+  H125  1  0.87581117  0.14094843  0.32839851  1
  H+  H126  1  0.58389436  0.58477096  0.34700889  1
  H+  H127  1  0.84401235  0.67337609  0.06564266  1
  H+  H128  1  0.88992785  0.27358029  0.32662069  1
  H+  H129  1  0.09570798  0.71455060  0.34458293  1
  H+  H130  1  0.76501224  0.62019479  0.34085625  1
  H+  H131  1  0.89021742  0.36665807  0.50512162  1
  H+  H132  1  0.66306057  0.39694972  -0.01060339  1
  H+  H133  1  0.14105998  0.87346164  0.67168993  1
  H+  H134  1  0.64577572  0.61548276  -0.00452406  1
  H+  H135  1  0.38687447  0.85892622  -0.00760973  1
  H+  H136  1  0.15357198  0.86841587  0.51319557  1
  H+  H137  1  0.35335637  0.36921872  0.83837204  1
  H+  H138  1  0.03702156  0.37844347  0.81906097  1
  H+  H139  1  0.62092726  0.07644463  0.49919738  1
  H+  H140  1  0.95902830  0.10490697  1.00036464  1
  H+  H141  1  0.27472799  0.62477705  0.35620262  1
  H+  H142  1  0.10266894  0.25551641  1.00146915  1
  H+  H143  1  0.48544415  0.61860501  0.51760783  1
  H+  H144  1  0.11161101  0.98457708  0.66790405  1
  H+  H145  1  0.62689808  0.99630132  0.65758642  1
  H+  H146  1  0.85811477  0.65860691  0.82330202  1
  H+  H147  1  0.37759504  0.60632702  0.32419974  1
  H+  H148  1  0.72073747  0.69588248  0.22786235  1
  H+  H149  1  0.62941477  0.14918709  0.82902852  1
  H+  H150  1  0.21849374  0.84930227  0.32344587  1
  H+  H151  1  0.27625675  0.63879387  0.66713888  1
  H+  H152  1  0.05281504  0.90004314  0.49362764  1
  H+  H153  1  0.14508747  0.80501608  0.71159582  1
  H+  H154  1  0.41840080  0.32380771  0.21251754  1
  H+  H155  1  0.77627474  0.40986505  0.82752350  1
  H+  H156  1  0.63738761  0.86533736  0.98158893  1
  H+  H157  1  0.87808889  0.11106403  0.65818958  1
  H+  H158  1  0.85521054  0.13390540  1.00972190  1
  H+  H159  1  0.87621784  0.59234980  0.66341619  1
  H+  H160  1  0.74851399  0.88252192  0.32579858  1
  H+  H161  1  0.44007113  0.35546056  1.01565758  1
  H+  H162  1  0.45631047  0.10027802  0.17792666  1
  H+  H163  1  0.63795461  0.28905678  0.66996534  1
  H+  H164  1  0.38502823  0.60938806  0.99629916  1
  H+  H165  1  0.88693782  0.98825373  0.33447327  1
  H+  H166  1  0.61467840  0.39213192  0.83005791  1
  H+  H167  1  0.36692988  0.97375356  0.15830190  1
  H+  H168  1  0.67522372  0.59165398  0.90117684  1
  H+  H169  1  0.71522423  0.85095496  0.50523846  1
  H+  H170  1  0.96401626  0.10506803  0.66257410  1
  H+  H171  1  0.63662425  0.01872561  0.99432016  1
  H+  H172  1  0.02266831  0.13127954  0.49230415  1
  H+  H173  1  0.92360846  0.83673913  0.23572575  1
  H+  H174  1  0.48539204  0.62818894  0.66953642  1
  H+  H175  1  0.61343284  0.72286359  -0.00361001  1
  H+  H176  1  0.49038730  0.86988897  0.16609055  1
  H+  H177  1  0.41793226  0.35958948  0.60991124  1
  H+  H178  1  0.69776888  0.86082270  0.92931633  1
  H+  H179  1  -0.00057254  0.53594359  0.06663682  1
  H+  H180  1  0.70775168  0.60200639  0.66354924  1
  H+  H181  1  0.12067604  0.47316281  0.33433792  1
  H+  H182  1  0.45487664  0.09925828  0.31366927  1
  H+  H183  1  0.46104675  0.38736917  0.51335767  1
  H+  H184  1  0.76025125  0.64277421  0.82577505  1
  H+  H185  1  0.90172398  0.99673205  0.16172743  1
  H+  H186  1  0.08519333  0.42565532  0.42681550  1
  H+  H187  1  0.63827715  0.02220031  0.84122730  1
  H+  H188  1  0.11091168  0.62294202  0.85731916  1
  H+  H189  1  0.97417106  0.60885395  0.98921764  1
  H+  H190  1  0.46744238  0.35508256  0.14908450  1
  H+  H191  1  0.59084014  0.86966512  0.82003885  1
  H+  H192  1  0.08174367  0.21339204  0.69759956  1
  H+  H193  1  0.18739576  0.12531006  0.79664552  1
  H+  H194  1  0.35691158  0.64003227  0.82385235  1
  H+  H195  1  0.02020933  0.39273366  0.48960378  1
  H+  H196  1  0.87147903  0.59454045  0.33355129  1
  H+  H197  1  0.13167541  0.85322536  0.32451900  1
  H+  H198  1  0.21418203  0.10599227  0.17145044  1
  H+  H199  1  0.87740480  0.43718803  0.08062428  1
  H+  H200  1  0.87146055  0.44417332  0.85067392  1
  H+  H201  1  0.58505500  0.22392449  0.32021324  1
  H+  H202  1  0.13932695  0.98924051  0.49534270  1
  H+  H203  1  0.72594554  0.10053678  0.65296991  1
  H+  H204  1  -0.00411562  0.11420461  0.83931934  1
  H+  H205  1  0.08799449  0.11599922  0.83731144  1
  H+  H206  1  0.86620283  0.22730605  0.00988574  1
  H+  H207  1  0.65372814  0.28981650  0.83779182  1
  H+  H208  1  0.06540445  0.34271473  -0.00456530  1
  H+  H209  1  0.86939323  0.38022136  0.34513005  1
  H+  H210  1  0.40587781  0.35534406  0.31176607  1
  H+  H211  1  0.37986705  0.39968224  0.52369200  1
  H+  H212  1  0.58256238  0.92150378  0.76484024  1
  H+  H213  1  0.22755521  0.59601651  0.84968345  1
  H+  H214  1  0.14177924  0.51487821  0.65449077  1
  H+  H215  1  1.01576635  0.88733547  1.00695040  1
  H+  H216  1  0.38417169  0.88549207  0.15446283  1
  H+  H217  1  0.90251084  0.75603306  0.70575456  1
  H+  H218  1  0.36426099  0.09397610  0.16671967  1
  H+  H219  1  0.61079984  0.64777601  0.68050613  1
  H+  H220  1  0.24315892  0.37907840  1.01002325  1
  H+  H221  1  0.37689075  0.89394665  0.49036240  1
  H+  H222  1  0.49157716  0.88037753  0.38690102  1
  H+  H223  1  0.84181622  0.16599631  0.38930639  1
  H+  H224  1  0.02284055  0.88244340  0.16468043  1
  H+  H225  1  0.50091261  0.84569421  0.37761807  1
  H+  H226  1  0.96234659  0.59703765  0.33581954  1
  H+  H227  1  0.13121028  0.26836293  0.33674244  1
  H+  H228  1  0.88116314  0.60928971  0.50533411  1
  H+  H229  1  0.36361582  0.14412226  0.67225031  1
  H+  H230  1  0.85061931  0.97718129  0.66528901  1
  H+  H231  1  0.59010195  0.40732225  0.43104529  1
  H+  H232  1  0.13932193  0.02256482  0.32789615  1
  H+  H233  1  0.54258527  0.15114186  0.83382379  1
  H+  H234  1  0.60259481  0.62158341  0.49721309  1
  H+  H235  1  0.65813554  0.53174510  -0.00755106  1
  H+  H236  1  0.12589219  0.38599985  0.66351955  1
  H+  H237  1  0.47739148  0.37309182  0.66960678  1
  H+  H238  1  0.23826111  0.67854014  0.28684615  1
  H+  H239  1  0.10582209  0.45837755  0.15405876  1
  H+  H240  1  0.87230686  0.47121321  0.67215029  1
  H+  H241  1  0.12047283  0.01966458  0.99602498  1
  H+  H242  1  0.11368310  0.73867571  0.98478100  1
  H+  H243  1  0.97758103  0.36462592  0.32670431  1
  H+  H244  1  0.57052457  0.40162642  -0.01993447  1
  H+  H245  1  0.28378656  0.89780171  0.68204575  1
  H+  H246  1  0.90607229  0.40953062  0.14130046  1
  H+  H247  1  -0.00974381  0.12324958  0.32576947  1
  H+  H248  1  0.11987643  0.09706103  0.17738950  1
  H+  H249  1  0.30516180  0.40716197  0.06845079  1
  H+  H250  1  0.39164986  1.03526758  0.66119110  1
  H+  H251  1  0.75813968  0.53536914  0.71397751  1
  H+  H252  1  0.61880738  0.20575523  0.04020566  1
  H+  H253  1  0.13682177  0.60164521  0.65135001  1
  H+  H254  1  0.85499995  0.21958973  0.66869476  1
  H+  H255  1  0.35359679  0.13196104  0.33463912  1
  H+  H256  1  0.83331994  0.88675330  0.64300912  1
  H+  H257  1  0.13280325  0.65128945  0.88425579  1
  H+  H258  1  0.88932780  0.77962034  0.99438717  1
  H+  H259  1  0.84640934  0.88717663  0.82978060  1
  H+  H260  1  0.71369730  0.86890860  0.65939165  1
  H+  H261  1  0.11382658  0.72175929  0.50412500  1
  H+  H262  1  0.17113476  0.37306277  0.49381968  1
  H+  H263  1  0.13020655  0.34259241  0.83974377  1
  H+  H264  1  0.37763901  0.89587610  0.82786803  1
  H+  H265  1  0.50078664  0.88837306  0.51035285  1
  H+  H266  1  0.13236447  0.45970089  0.82642685  1
  H+  H267  1  0.40009745  0.63076949  0.52190343  1
  H+  H268  1  0.70628004  0.11565723  0.20283011  1
  H+  H269  1  0.62505477  0.66138613  0.15889147  1
  H+  H270  1  0.12336898  0.34766146  0.18145714  1
  H+  H271  1  0.77288575  0.13313224  0.48397472  1
  H+  H272  1  0.17966207  0.29229753  0.63442655  1
  H+  H273  1  0.63322251  0.75449143  0.50830948  1
  H+  H274  1  0.88572145  0.83093297  0.71779849  1
  H+  H275  1  0.15094754  0.90221851  -0.01124936  1
  H+  H276  1  0.64222780  0.97354959  0.44731340  1
  H+  H277  1  0.87599983  0.73450650  0.16157679  1
  H+  H278  1  0.76166604  0.62721436  0.49793253  1
  H+  H279  1  0.34957126  0.49744160  0.84971866  1
  H+  H280  1  0.77002878  0.12995559  0.82578742  1
  H+  H281  1  0.10622247  0.56175275  0.00093832  1
  H+  H282  1  0.72014619  1.03925414  0.36483549  1
  H+  H283  1  0.60999588  0.11718362  0.02169763  1
  H+  H284  1  0.11863687  0.64224357  0.16027130  1
  H+  H285  1  0.14415664  0.62891722  0.31389931  1
  H+  H286  1  0.49818288  0.59048468  0.34049445  1
  H+  H287  1  0.60963469  0.71962527  0.77411219  1
  H+  H288  1  0.42448425  0.84630753  0.60171792  1
  H+  H289  1  0.35802446  0.43786403  0.36334450  1
  H+  H290  1  0.80413763  0.15452198  0.10072143  1
  H+  H291  1  0.65552540  0.57490784  0.56848423  1
  H+  H292  1  0.57954458  0.75931273  0.88173004  1
  H+  H293  1  0.11740220  0.49327519  0.49227727  1
  H+  H294  1  0.91154381  0.57309464  0.23419208  1
  H+  H295  1  0.85157249  0.92935479  0.10683331  1
  H+  H296  1  0.34698608  0.67304990  0.44558169  1
  H+  H297  1  0.06722999  0.63157140  0.07302667  1
  H+  H298  1  0.09494498  0.40933495  0.72514791  1
  H+  H299  1  0.56076349  0.63613627  0.43766409  1
  H+  H300  1  0.67379837  0.35055810  0.58173741  1
  H+  H301  1  0.66690225  0.06045072  0.59013181  1
  H+  H302  1  0.33368143  0.67356300  0.76366780  1
  H+  H303  1  0.43042076  0.60114554  0.59288737  1
  H+  H304  1  0.40701595  0.12161120  0.84363407  1
  H+  H305  1  0.14916297  0.08191322  0.93788429  1
  H+  H306  1  0.31666022  0.14808405  0.09636552  1
  H+  H307  1  0.38445348  0.98908493  0.83005517  1
  H+  H308  1  0.11902443  0.75856610  0.80593453  1
  H+  H309  1  0.08483702  0.16477412  0.40506703  1
  H+  H310  1  0.17547754  0.08989824  0.56348326  1
  H+  H311  1  0.39309337  0.62539530  0.66458862  1
  H+  H312  1  0.38388789  0.06181294  0.26276721  1
  H+  H313  1  0.05786758  0.14372136  0.74749631  1
  H+  H314  1  0.33267007  0.17267522  0.43016625  1
  H+  H315  1  0.35215889  0.93219663  0.73537113  1
  H+  H316  1  0.41519151  0.82976333  0.93200429  1
  H+  H317  1  0.38420502  0.56183090  0.90709881  1
  H+  H318  1  0.32802514  0.90511693  0.39435141  1
  H+  H319  1  0.11699712  0.24821150  0.84819459  1
  H+  H320  1  0.80259061  0.62877498  0.74274170  1
  H+  H321  1  0.83325875  0.41009151  0.40838044  1
  H+  H322  1  0.86654126  0.26580253  0.17222655  1
  H+  H323  1  0.66588604  0.57180056  0.27037658  1
  H+  H324  1  0.90765459  0.57615000  0.56468552  1
  H+  H325  1  0.08125563  0.66814533  0.71355790  1
  H+  H326  1  0.86293441  0.47346806  0.34444671  1
  H+  H327  1  0.93052776  0.61937340  0.88870290  1
  H+  H328  1  0.81670189  0.91948328  0.77206408  1
  H+  H329  1  0.91173553  0.08398175  0.56302705  1
  H+  H330  1  0.42063468  0.58975994  0.22093643  1
  H+  H331  1  0.90552068  0.32958801  0.22845940  1
  H+  H332  1  0.36354736  0.23314064  0.67600409  1
  H+  H333  1  0.18195781  0.83836077  0.57259965  1
  H+  H334  1  0.61536001  0.52436166  0.66382465  1
  H+  H335  1  0.82269153  0.15891288  0.72857754  1
  H+  H336  1  0.65441051  0.82751928  0.60015540  1
  H+  H337  1  0.34540497  0.91596782  0.09266111  1
  H+  H338  1  0.63076462  0.34272398  0.27151541  1
  H+  H339  1  0.36280723  0.73181317  0.66924338  1
  H+  H340  1  0.21137281  0.36648785  0.58848278  1
  H+  H341  1  0.29488313  0.39414257  0.44786444  1
  H+  H342  1  0.07429343  0.65835244  0.40504583  1
  H+  H343  1  0.41781664  0.09125851  0.60056382  1
  H+  H344  1  0.92241244  0.37610907  0.98719453  1
  H+  H345  1  0.36210591  0.14107065  0.48794345  1
  H+  H346  1  0.34023108  0.67169919  0.09212151  1
  H+  H347  1  0.16193543  0.07948042  0.26797924  1
  H+  H348  1  0.82396521  0.65612337  0.39981671  1
  H+  H349  1  0.68657245  0.35538275  0.89561964  1
  H+  H350  1  0.15311985  0.54107845  0.94242647  1
  H+  H351  1  0.60104109  0.47558897  0.13408285  1
  H+  H352  1  0.58773884  0.91270732  0.05987735  1
  H+  H353  1  0.13249484  0.30975994  0.93775296  1
  H+  H354  1  0.57093491  0.14826433  0.12157163  1
  H+  H355  1  0.56618335  0.15119663  0.36738838  1
  H+  H356  1  0.59221427  0.41806051  0.07623198  1
  H+  H357  1  0.07676299  0.91523450  0.06715259  1
  H+  H358  1  0.58882686  0.18626759  0.73583069  1
  H+  H359  1  0.57696589  0.42087385  0.74040655  1
  H+  H360  1  0.63834210  0.49373144  0.31810098  1
  H+  H361  1  0.84882046  0.79058074  0.61196813  1
  H+  H362  1  0.35177995  0.17440792  0.76990353  1
  H+  H363  1  0.09792593  0.91647461  0.39813063  1
  H+  H364  1  0.02867506  0.64218158  0.16929879  1
  H+  H365  1  0.18490934  0.85284353  0.89137246  1
  H+  H366  1  0.59245077  0.68065453  0.09612265  1
  H+  H367  1  0.41058086  0.32823335  0.90998115  1
  H+  H368  1  0.16521770  0.57159296  0.56329787  1
  H+  H369  1  0.13440676  0.60889920  0.50716633  1
  H+  H370  1  1.02179687  0.63432239  0.50279485  1
  H+  H371  1  0.10273075  0.93206991  0.76405255  1
  H+  H372  1  0.66745208  0.08108725  0.90109768  1
  H+  H373  1  0.17249656  0.58506779  0.21324585  1
  H+  H374  1  0.92346616  0.33494517  0.56193262  1
  H+  H375  1  0.32705006  0.40055771  0.75015905  1
  H+  H376  1  0.15768459  0.82770892  0.23672976  1
  H+  H377  1  0.43340739  0.09136513  0.90459517  1
  H+  H378  1  0.84812584  0.42104571  0.73510528  1
  H+  H379  1  0.37784544  0.80186548  0.25530674  1
  H+  H380  1  0.90413462  0.83884752  0.89543380  1
  H+  H381  1  0.37889154  0.51844190  0.99972244  1
  H+  H382  1  0.40051926  0.77888851  0.15900440  1
  H+  H383  1  0.25729587  0.35690416  0.83616604  1
  O2-  O384  1  0.05679939  0.14194412  0.15888855  1
  O2-  O385  1  0.08232128  0.16246435  0.47657501  1
  O2-  O386  1  0.05741551  0.14518987  0.82209948  1
  O2-  O387  1  0.07843411  0.39592645  0.14775756  1
  O2-  O388  1  0.08262036  0.42755792  0.47360448  1
  O2-  O389  1  0.09694913  0.40441387  0.80367415  1
  O2-  O390  1  0.08794079  0.67502526  0.15123261  1
  O2-  O391  1  0.08290990  0.66157020  0.48863452  1
  O2-  O392  1  0.07638493  0.71772963  0.77613046  1
  O2-  O393  1  0.08390405  0.90972169  0.14847253  1
  O2-  O394  1  0.11272827  0.92680906  0.48054767  1
  O2-  O395  1  0.11326931  0.94044913  0.80850265  1
  O2-  O396  1  0.31902480  0.15064534  0.14189240  1
  O2-  O397  1  0.33110424  0.17086324  0.47529424  1
  O2-  O398  1  0.35556811  0.17351501  0.81547178  1
  O2-  O399  1  0.32126729  0.41187976  0.14432244  1
  O2-  O400  1  0.29535676  0.41949676  0.48868744  1
  O2-  O401  1  0.31741021  0.39227189  0.82031981  1
  O2-  O402  1  0.34204704  0.67516896  0.13759143  1
  O2-  O403  1  0.34827281  0.67928882  0.49077895  1
  O2-  O404  1  0.33350255  0.67621747  0.80904881  1
  O2-  O405  1  0.34840849  0.91389318  0.13963318  1
  O2-  O406  1  0.34129778  0.91800246  0.47432531  1
  O2-  O407  1  0.35157639  0.93026116  0.81182686  1
  O2-  O408  1  0.56204317  0.15848705  0.16495309  1
  O2-  O409  1  0.58422905  0.20410597  0.45149495  1
  O2-  O410  1  0.60203059  0.18326742  0.81677036  1
  O2-  O411  1  0.57436002  0.41591961  0.12104118  1
  O2-  O412  1  0.58472367  0.41509325  0.47494882  1
  O2-  O413  1  0.58132575  0.42024882  0.81670865  1
  O2-  O414  1  0.59046309  0.68514853  0.14141711  1
  O2-  O415  1  0.57067794  0.65044852  0.48245904  1
  O2-  O416  1  0.63866219  0.75315172  0.81152988  1
  O2-  O417  1  0.59749691  0.92796751  0.13777950  1
  O2-  O418  1  0.61823096  0.96735610  0.49133770  1
  O2-  O419  1  0.58114507  0.91828431  0.80987585  1
  O2-  O420  1  0.79993551  0.15330182  0.14619422  1
  O2-  O421  1  0.83324180  0.16667664  0.47011434  1
  O2-  O422  1  0.82856273  0.15535192  0.80637035  1
  O2-  O423  1  0.91014324  0.45973308  0.11894793  1
  O2-  O424  1  0.83125527  0.41475026  0.48054252  1
  O2-  O425  1  0.83988914  0.44642877  0.81538347  1
  O2-  O426  1  0.84101964  0.67347350  0.14733940  1
  O2-  O427  1  0.82264032  0.65844942  0.48181017  1
  O2-  O428  1  0.81867164  0.67552240  0.80335094  1
  O2-  O429  1  0.85886934  0.93379974  0.15187314  1
  O2-  O430  1  0.82213302  0.92186769  0.47395443  1
  O2-  O431  1  0.81810286  0.92128001  0.81651213  1
  O2-  O432  1  0.15562999  0.07095840  0.18944144  1
  O2-  O433  1  0.17406463  0.08491523  0.51856277  1
  O2-  O434  1  0.18068474  0.09729561  0.83597186  1
  O2-  O435  1  0.15214671  0.31641985  0.19962608  1
  O2-  O436  1  0.21047657  0.35769949  0.51395346  1
  O2-  O437  1  0.15218550  0.30913495  0.86271690  1
  O2-  O438  1  0.16698168  0.58198406  0.16835859  1
  O2-  O439  1  0.16359783  0.57456536  0.51697256  1
  O2-  O440  1  0.20005473  0.54197825  0.87361055  1
  O2-  O441  1  0.15661900  0.82985019  0.18963935  1
  O2-  O442  1  0.17838759  0.83252945  0.52823107  1
  O2-  O443  1  0.18731787  0.84838135  0.84670164  1
  O2-  O444  1  0.39258850  0.06224175  0.18410331  1
  O2-  O445  1  0.41687157  0.08332457  0.51849649  1
  O2-  O446  1  0.43716416  0.09153803  0.85939077  1
  O2-  O447  1  0.40909406  0.32307924  0.16772333  1
  O2-  O448  1  0.42556147  0.39379668  0.54433628  1
  O2-  O449  1  0.41689562  0.33222706  0.86503691  1
  O2-  O450  1  0.42142598  0.58757404  0.17584432  1
  O2-  O451  1  0.42799041  0.59927380  0.53943809  1
  O2-  O452  1  0.35326994  0.54997206  0.86743356  1
  O2-  O453  1  0.42767686  0.83877522  0.17666701  1
  O2-  O454  1  0.43976914  0.85450701  0.52309384  1
  O2-  O455  1  0.41751065  0.83670910  0.85519246  1
  O2-  O456  1  0.70580827  0.10941795  0.15685639  1
  O2-  O457  1  0.66059678  0.05728595  0.51291076  1
  O2-  O458  1  0.67058537  0.08287960  0.85576185  1
  O2-  O459  1  0.63294369  0.33496774  0.19973145  1
  O2-  O460  1  0.67344334  0.34688941  0.53536746  1
  O2-  O461  1  0.68033981  0.35202251  0.84922638  1
  O2-  O462  1  0.69747716  0.64216874  0.20509462  1
  O2-  O463  1  0.66141775  0.57699772  0.52312134  1
  O2-  O464  1  0.67189994  0.59089291  0.85594012  1
  O2-  O465  1  0.68668720  0.85925337  0.18505239  1
  O2-  O466  1  0.67089445  0.80718105  0.53232975  1
  O2-  O467  1  0.57063473  0.76605718  0.83850620  1
  O2-  O468  1  0.96759475  0.09623462  0.18397527  1
  O2-  O469  1  0.91274144  0.08193485  0.51771545  1
  O2-  O470  1  0.90186912  0.07223239  0.86284405  1
  O2-  O471  1  0.90628012  0.32658775  0.18365138  1
  O2-  O472  1  0.92493334  0.33915320  0.51617561  1
  O2-  O473  1  0.93406243  0.31952465  0.85201392  1
  O2-  O474  1  0.92201266  0.58768660  0.19038633  1
  O2-  O475  1  0.91165054  0.57854806  0.51903418  1
  O2-  O476  1  0.92588363  0.62415581  0.84348638  1
  O2-  O477  1  0.92453152  0.83736281  0.19019756  1
  O2-  O478  1  0.83098552  0.81160093  0.57660563  1
  O2-  O479  1  0.89746339  0.84035586  0.85085357  1
  O2-  O480  1  0.16609481  0.08295898  0.31336404  1
  O2-  O481  1  0.16766185  0.09130717  0.64714825  1
  O2-  O482  1  0.15279159  0.08186228  0.98230722  1
  O2-  O483  1  0.16209867  0.33049387  0.32180003  1
  O2-  O484  1  0.20127172  0.35408340  0.63376094  1
  O2-  O485  1  0.12453823  0.31430239  0.98284115  1
  O2-  O486  1  0.18873071  0.61973991  0.29437413  1
  O2-  O487  1  0.17056532  0.57446915  0.63705570  1
  O2-  O488  1  0.13607568  0.53026746  0.98640126  1
  O2-  O489  1  0.15780807  0.81935464  0.30730230  1
  O2-  O490  1  0.16825780  0.83620727  0.67293875  1
  O2-  O491  1  0.20236443  0.90687007  0.96666571  1
  O2-  O492  1  0.39128039  0.06566665  0.30787709  1
  O2-  O493  1  0.41695790  0.09529054  0.64566577  1
  O2-  O494  1  0.42317288  0.08504862  0.98502342  1
  O2-  O495  1  0.42866223  0.32091693  0.29367588  1
  O2-  O496  1  0.41549390  0.34532055  0.65545070  1
  O2-  O497  1  0.38816903  0.32372842  0.99122647  1
  O2-  O498  1  0.39667842  0.57098883  0.30045474  1
  O2-  O499  1  0.42655273  0.59789838  0.64959237  1
  O2-  O500  1  0.41468841  0.57753069  0.98349637  1
  O2-  O501  1  0.34083654  0.77886919  0.29166384  1
  O2-  O502  1  0.42109019  0.84134927  0.64706381  1
  O2-  O503  1  0.41353571  0.82531481  0.97775143  1
  O2-  O504  1  0.69388962  0.12670134  0.27477640  1
  O2-  O505  1  0.66586759  0.06355741  0.63577525  1
  O2-  O506  1  0.66167589  0.08059383  0.98245992  1
  O2-  O507  1  0.62885417  0.33417404  0.31805389  1
  O2-  O508  1  0.67235063  0.35187336  0.65536165  1
  O2-  O509  1  0.70280738  0.36420687  0.96733388  1
  O2-  O510  1  0.66119220  0.55648212  0.31411185  1
  O2-  O511  1  0.64959578  0.58406230  0.64715670  1
  O2-  O512  1  0.68366939  0.59385647  0.98030093  1
  O2-  O513  1  0.68815333  0.86638612  0.31703112  1
  O2-  O514  1  0.65193776  0.83640961  0.64561270  1
  O2-  O515  1  0.66736507  0.83389076  0.96700093  1
  O2-  O516  1  0.93314698  0.09419857  0.30442451  1
  O2-  O517  1  0.90708904  0.07971558  0.64230384  1
  O2-  O518  1  0.89852858  0.07582742  0.98535054  1
  O2-  O519  1  0.91583154  0.33632275  0.31542453  1
  O2-  O520  1  0.91912165  0.32591540  0.64054776  1
  O2-  O521  1  0.94871336  0.33841661  0.97585335  1
  O2-  O522  1  0.90187257  0.56264820  0.32028525  1
  O2-  O523  1  0.91068237  0.57145429  0.64115694  1
  O2-  O524  1  0.92240215  0.59543796  0.96507232  1
  O2-  O525  1  0.92512091  0.83119263  0.31498801  1
  O2-  O526  1  0.90958158  0.80867165  0.68754170  1
  O2-  O527  1  0.91845627  0.84045321  0.97950833  1
  O2-  O528  1  0.06234715  0.15738478  0.03141474  1
  O2-  O529  1  0.08734214  0.16978009  0.35855352  1
  O2-  O530  1  0.06415912  0.15282585  0.70171079  1
  O2-  O531  1  0.03029581  0.37556745  0.00855340  1
  O2-  O532  1  0.08869562  0.41764268  0.35501050  1
  O2-  O533  1  0.09076912  0.40996964  0.67967679  1
  O2-  O534  1  0.04088488  0.58574650  0.04183481  1
  O2-  O535  1  0.06842313  0.65446772  0.35988022  1
  O2-  O536  1  0.08099469  0.65409148  0.66903095  1
  O2-  O537  1  0.07750919  0.92041843  0.02202486  1
  O2-  O538  1  0.09230668  0.91265054  0.35305552  1
  O2-  O539  1  0.08779690  0.92522866  0.68481775  1
  O2-  O540  1  0.32084185  0.15213220  0.01823023  1
  O2-  O541  1  0.33257239  0.17161132  0.34724663  1
  O2-  O542  1  0.33361788  0.17303212  0.69139855  1
  O2-  O543  1  0.30396058  0.40550024  0.02256321  1
  O2-  O544  1  0.31765731  0.37773178  0.37226830  1
  O2-  O545  1  0.33992978  0.41164600  0.70426361  1
  O2-  O546  1  0.32698745  0.66001164  0.01522803  1
  O2-  O547  1  0.33641885  0.65813707  0.36614207  1
  O2-  O548  1  0.33533354  0.67145849  0.68444304  1
  O2-  O549  1  0.34258474  0.92154534  0.02333070  1
  O2-  O550  1  0.32066577  0.90160156  0.34919864  1
  O2-  O551  1  0.34669989  0.92950800  0.68971865  1
  O2-  O552  1  0.57879619  0.14420402  0.04316446  1
  O2-  O553  1  0.56564338  0.16104633  0.32352283  1
  O2-  O554  1  0.58748900  0.19327362  0.69110657  1
  O2-  O555  1  0.61964014  0.42709749  0.00745381  1
  O2-  O556  1  0.58822994  0.38179210  0.34290638  1
  O2-  O557  1  0.57686962  0.42224015  0.69450644  1
  O2-  O558  1  0.58644123  0.66642072  0.01710680  1
  O2-  O559  1  0.54511197  0.60037957  0.36810672  1
  O2-  O560  1  0.58223758  0.67894450  0.69693481  1
  O2-  O561  1  0.58494381  0.91147765  0.01421937  1
  O2-  O562  1  0.67622828  0.98453864  0.38147717  1
  O2-  O563  1  0.58325269  0.92255863  0.68185212  1
  O2-  O564  1  0.82710060  0.16765992  0.02304244  1
  O2-  O565  1  0.84219283  0.16838657  0.34405283  1
  O2-  O566  1  0.82182130  0.15854277  0.68281002  1
  O2-  O567  1  0.86459498  0.42444147  -0.00313881  1
  O2-  O568  1  0.83746975  0.41072925  0.36174922  1
  O2-  O569  1  0.84365805  0.41222148  0.69046478  1
  O2-  O570  1  0.84538620  0.67518974  0.02037631  1
  O2-  O571  1  0.82631338  0.65360621  0.35467102  1
  O2-  O572  1  0.79264413  0.59561031  0.70207734  1
  O2-  O573  1  0.83121204  0.91499548  0.02870374  1
  O2-  O574  1  0.85847065  0.92817591  0.35067548  1
  O2-  O575  1  0.81830626  0.91436916  0.67589213  1
