# generated using pymatgen
data_H2O
_symmetry_space_group_name_H-M   'P 1'
_cell_length_a   17.99699874
_cell_length_b   17.99531740
_cell_length_c   22.01349777
_cell_angle_alpha   89.99934699
_cell_angle_beta   89.99350193
_cell_angle_gamma   119.98614353
_symmetry_Int_Tables_number   1
_chemical_formula_structural   H2O
_chemical_formula_sum   'H384 O192'
_cell_volume   6175.04179184
_cell_formula_units_Z   192
loop_
 _symmetry_equiv_pos_site_id
 _symmetry_equiv_pos_as_xyz
  1  'x, y, z'
loop_
 _atom_type_symbol
 _atom_type_oxidation_number
  H+  1.0
  O2-  -2.0
loop_
 _atom_site_type_symbol
 _atom_site_label
 _atom_site_symmetry_multiplicity
 _atom_site_fract_x
 _atom_site_fract_y
 _atom_site_fract_z
 _atom_site_occupancy
  H+  H0  1  0.39292036  0.78472798  0.32468064  1
  H+  H1  1  0.64122791  0.52095754  0.00573955  1
  H+  H2  1  0.08346842  0.90170618  0.73228404  1
  H+  H3  1  0.83779447  0.66586895  0.77077014  1
  H+  H4  1  0.57386371  0.42052911  0.73302556  1
  H+  H5  1  0.63489607  0.77167002  0.16199121  1
  H+  H6  1  0.10380126  0.38085299  0.84911720  1
  H+  H7  1  0.21882205  0.85777643  0.99289724  1
  H+  H8  1  0.86201583  0.46849061  0.33272846  1
  H+  H9  1  0.27267902  0.63340067  0.50261300  1
  H+  H10  1  -0.02494296  0.36100464  0.33858449  1
  H+  H11  1  0.29190057  0.90290534  0.33749933  1
  H+  H12  1  0.11395830  0.61211661  0.99119105  1
  H+  H13  1  0.62446671  0.14597749  0.49858677  1
  H+  H14  1  0.47481683  0.51622560  0.78330109  1
  H+  H15  1  0.35033279  0.44802969  0.40902113  1
  H+  H16  1  0.90273681  0.90506130  0.35731919  1
  H+  H17  1  0.35928748  0.13247818  0.48373057  1
  H+  H18  1  0.39040013  0.53103755  0.98768451  1
  H+  H19  1  0.93954122  0.41445592  0.01610125  1
  H+  H20  1  0.55604724  0.45988053  0.46773034  1
  H+  H21  1  0.27281664  0.65560016  0.14893193  1
  H+  H22  1  0.89292180  0.51845995  0.84428001  1
  H+  H23  1  0.42190106  0.84399289  0.23175402  1
  H+  H24  1  0.84040855  0.15588801  0.74910930  1
  H+  H25  1  0.85930664  0.96748420  0.15154386  1
  H+  H26  1  0.27034245  0.15360692  0.00124871  1
  H+  H27  1  0.58880538  0.37963838  0.67300436  1
  H+  H28  1  0.87147760  0.12771876  0.84360017  1
  H+  H29  1  0.36618248  -0.04068647  0.68762822  1
  H+  H30  1  0.87352864  0.22509952  0.69545228  1
  H+  H31  1  0.01453271  0.62119272  0.49295527  1
  H+  H32  1  0.13247577  0.15987177  0.01160875  1
  H+  H33  1  0.11079702  0.21826658  0.15816365  1
  H+  H34  1  0.87061675  0.14921684  0.33198615  1
  H+  H35  1  0.16740892  0.31125266  0.52317656  1
  H+  H36  1  0.89594368  0.49581859  0.67598778  1
  H+  H37  1  0.45989428  0.34693262  0.49644453  1
  H+  H38  1  -0.01967550  0.36174025  0.84925843  1
  H+  H39  1  0.38416220  0.86616297  0.49184976  1
  H+  H40  1  0.85567895  0.13353034  0.14487030  1
  H+  H41  1  0.01307646  0.64268949  -0.00437109  1
  H+  H42  1  0.28641201  0.38768739  0.16834451  1
  H+  H43  1  0.88610015  0.77083347  0.84349381  1
  H+  H44  1  0.64861437  0.60953003  0.32736515  1
  H+  H45  1  0.60137903  0.71536941  0.66572731  1
  H+  H46  1  0.87750560  0.51950856  0.50736265  1
  H+  H47  1  0.77802616  0.63824651  0.67832317  1
  H+  H48  1  0.29478184  0.65464083  0.36575884  1
  H+  H49  1  0.62220490  0.40340636  0.82505648  1
  H+  H50  1  0.33276223  0.13346291  0.10647458  1
  H+  H51  1  0.90752849  0.57248718  0.26072081  1
  H+  H52  1  0.66290021  0.84589091  0.89794355  1
  H+  H53  1  0.39233584  0.86085702  0.65430404  1
  H+  H54  1  -0.10545343  0.26939846  0.85012409  1
  H+  H55  1  0.86968292  0.72451360  0.67229889  1
  H+  H56  1  0.25745009  0.35086692  0.79906198  1
  H+  H57  1  -0.00479700  0.04163299  -0.03943516  1
  H+  H58  1  0.72162296  0.87118939  0.83864900  1
  H+  H59  1  0.01821414  0.13783008  0.82893214  1
  H+  H60  1  0.14235374  0.28985791  1.00043385  1
  H+  H61  1  0.46950942  0.00937772  0.80353080  1
  H+  H62  1  0.12890770  0.60045200  0.34737206  1
  H+  H63  1  0.73816782  0.12346455  0.67475345  1
  H+  H64  1  0.36391457  0.13560561  0.33288092  1
  H+  H65  1  0.46687540  0.09957665  0.67176182  1
  H+  H66  1  0.24489608  0.86975199  0.50508422  1
  H+  H67  1  0.01089817  0.87178506  0.14154799  1
  H+  H68  1  1.00088790  0.86332325  0.33830109  1
  H+  H69  1  0.87426929  0.14479479  0.48604696  1
  H+  H70  1  0.10949724  0.73052124  0.15228143  1
  H+  H71  1  0.61740919  0.48820685  0.82477006  1
  H+  H72  1  0.62182524  0.84896351  0.49761761  1
  H+  H73  1  0.52913292  0.76050812  0.27700444  1
  H+  H74  1  0.13542591  0.39917526  0.68892977  1
  H+  H75  1  -0.03498991  0.59159760  0.32190885  1
  H+  H76  1  0.36326686  0.74613192  0.15915786  1
  H+  H77  1  0.73142652  0.12161271  0.51032681  1
  H+  H78  1  0.14533274  0.11264310  0.50910853  1
  H+  H79  1  0.47803077  0.64613410  0.83597317  1
  H+  H80  1  0.60688186  0.22459221  0.33734766  1
  H+  H81  1  0.11221433  0.39221913  0.50318528  1
  H+  H82  1  0.62967049  0.52586521  0.17090135  1
  H+  H83  1  0.52257482  0.89406851  0.33750704  1
  H+  H84  1  0.64570252  0.36704665  0.16824521  1
  H+  H85  1  0.38554628  0.33820091  0.17578581  1
  H+  H86  1  0.36158743  0.24995077  0.83017770  1
  H+  H87  1  0.39351040  0.29170435  0.98519325  1
  H+  H88  1  0.10624512  0.91549263  0.39875966  1
  H+  H89  1  0.47897693  0.12573593  0.33535317  1
  H+  H90  1  0.52914847  0.38064810  0.16492983  1
  H+  H91  1  0.78044407  0.12501446  0.83988590  1
  H+  H92  1  0.35101739  0.86628145  0.00978493  1
  H+  H93  1  0.34971973  0.47216145  0.33947639  1
  H+  H94  1  0.36488901  0.89309007  0.16615241  1
  H+  H95  1  0.13354859  0.13194063  0.84704785  1
  H+  H96  1  0.38618964  0.45147065  0.16351122  1
  H+  H97  1  0.11844897  0.89973984  -0.00471689  1
  H+  H98  1  0.23257796  0.86342345  0.66155062  1
  H+  H99  1  0.77994479  0.93754815  0.71655783  1
  H+  H100  1  0.87728995  0.74773712  0.12180314  1
  H+  H101  1  0.15071255  0.52746243  0.66479300  1
  H+  H102  1  0.22511533  0.36068241  0.34659668  1
  H+  H103  1  0.89107658  0.77530248  0.50383172  1
  H+  H104  1  0.13895292  0.89002734  0.48392859  1
  H+  H105  1  0.86820598  0.47745377  0.15506258  1
  H+  H106  1  0.13032528  0.51780403  0.85081846  1
  H+  H107  1  0.32193927  0.87519123  0.83591955  1
  H+  H108  1  0.60553366  0.98104563  0.83312112  1
  H+  H109  1  0.22401762  0.13589178  0.84666549  1
  H+  H110  1  0.65206006  0.03674578  0.65658958  1
  H+  H111  1  0.48017832  0.87241719  0.17068416  1
  H+  H112  1  0.12646751  0.96437385  0.33109880  1
  H+  H113  1  0.83912743  0.66390401  0.43489270  1
  H+  H114  1  0.90099537  0.03920940  0.65744633  1
  H+  H115  1  0.38484719  0.65921310  0.00263332  1
  H+  H116  1  0.71881096  0.84646834  0.64397789  1
  H+  H117  1  0.60465908  0.62962803  0.67615009  1
  H+  H118  1  0.60401379  0.94011526  0.58847971  1
  H+  H119  1  0.01849870  0.85001159  0.82594253  1
  H+  H120  1  0.63289584  0.11807634  0.99382413  1
  H+  H121  1  0.89741606  0.03690756  0.32097429  1
  H+  H122  1  0.73367000  0.36391440  0.16508983  1
  H+  H123  1  0.73138990  0.88267924  -0.01849981  1
  H+  H124  1  0.58228531  0.65561773  0.06642987  1
  H+  H125  1  0.47545039  0.37668366  0.64770258  1
  H+  H126  1  0.63434762  0.23178652  0.82139532  1
  H+  H127  1  0.78466192  0.64359680  0.49710546  1
  H+  H128  1  0.87916573  0.26595405  0.33434691  1
  H+  H129  1  0.10707070  0.38603782  0.15934726  1
  H+  H130  1  0.61385708  0.97842718  0.15893429  1
  H+  H131  1  0.65208395  1.02497628  0.32424663  1
  H+  H132  1  0.87729693  0.26898387  0.49170513  1
  H+  H133  1  0.12799350  0.77876527  0.98014402  1
  H+  H134  1  0.73820483  0.61272611  0.32336599  1
  H+  H135  1  0.35068956  0.12866065  0.69790797  1
  H+  H136  1  -0.02728938  0.10767904  0.15949157  1
  H+  H137  1  0.98036588  0.87984560  0.98728754  1
  H+  H138  1  0.26363026  0.11663297  0.15802164  1
  H+  H139  1  0.83619577  0.16579213  0.42637474  1
  H+  H140  1  0.13768212  0.09998845  0.31215093  1
  H+  H141  1  0.98149036  0.12295264  0.31008367  1
  H+  H142  1  0.86252141  0.63183906  0.83013047  1
  H+  H143  1  0.53030336  0.61221668  0.36891181  1
  H+  H144  1  0.39893832  0.78795127  0.98435917  1
  H+  H145  1  0.26488902  0.12516274  0.32359487  1
  H+  H146  1  0.48412467  0.86759086  0.63834220  1
  H+  H147  1  0.60008881  0.24998881  0.66403908  1
  H+  H148  1  0.85386324  0.41662410  0.09830381  1
  H+  H149  1  0.64966448  0.62404849  0.51413066  1
  H+  H150  1  0.64106086  0.87885084  0.98642884  1
  H+  H151  1  0.81710387  0.87644111  0.71125005  1
  H+  H152  1  0.58936317  0.70282883  0.33634189  1
  H+  H153  1  0.43873138  0.09925056  0.84427059  1
  H+  H154  1  0.13169662  0.35237602  0.34056678  1
  H+  H155  1  0.36559479  0.64429352  0.33117183  1
  H+  H156  1  0.37078046  0.54707324  0.13804999  1
  H+  H157  1  -0.16285699  0.27851763  -0.00488323  1
  H+  H158  1  0.85360829  0.87553193  0.13962657  1
  H+  H159  1  0.56107788  0.07487807  0.82830867  1
  H+  H160  1  0.52491662  0.89878683  1.00278264  1
  H+  H161  1  0.88764941  0.36432100  0.17334812  1
  H+  H162  1  0.22715668  0.86545609  0.17500389  1
  H+  H163  1  0.89771698  0.52682832  0.99129393  1
  H+  H164  1  0.39888999  0.13826845  0.00225643  1
  H+  H165  1  0.12605844  0.60688043  0.84764230  1
  H+  H166  1  0.26865070  0.12510517  0.50064830  1
  H+  H167  1  0.53068674  0.39417487  0.00703419  1
  H+  H168  1  0.10569137  0.64069734  0.14070385  1
  H+  H169  1  0.86945272  0.88237145  0.83928036  1
  H+  H170  1  0.37157325  0.64077920  0.66132917  1
  H+  H171  1  0.48642100  0.60756773  0.49364014  1
  H+  H172  1  0.87613612  0.72360752  0.34483841  1
  H+  H173  1  0.60458723  0.74484160  0.82271983  1
  H+  H174  1  0.85593241  0.22098196  0.15234851  1
  H+  H175  1  0.52820445  0.13859886  0.16502357  1
  H+  H176  1  0.14952472  0.85734324  0.33538004  1
  H+  H177  1  0.42905461  0.35892007  0.89570586  1
  H+  H178  1  0.10617859  0.62517453  0.49028563  1
  H+  H179  1  0.37238431  0.74855222  0.81192487  1
  H+  H180  1  0.89609110  0.12410591  0.66475995  1
  H+  H181  1  0.88920592  0.87582079  0.98586400  1
  H+  H182  1  0.10748433  0.39598373  0.00173668  1
  H+  H183  1  0.72969861  0.61236074  0.84372179  1
  H+  H184  1  0.22069544  0.44251256  0.21799720  1
  H+  H185  1  0.72641570  0.35234604  0.31871173  1
  H+  H186  1  0.39221588  0.25501043  0.18227068  1
  H+  H187  1  0.13768824  0.52380107  0.50671443  1
  H+  H188  1  0.89125231  0.61367521  0.66299612  1
  H+  H189  1  0.37862793  0.63394628  0.15895676  1
  H+  H190  1  0.03601718  0.15187363  0.67724071  1
  H+  H191  1  0.71604829  0.85546695  0.50141228  1
  H+  H192  1  0.39616707  0.55443831  0.83281994  1
  H+  H193  1  0.20488705  0.84580934  0.89592569  1
  H+  H194  1  0.45434945  0.59130063  0.29485747  1
  H+  H195  1  0.11884265  0.22014008  0.33597037  1
  H+  H196  1  0.32799443  0.91301916  0.10737153  1
  H+  H197  1  0.26897887  0.13615538  0.68213144  1
  H+  H198  1  0.51507094  0.86623661  0.48636909  1
  H+  H199  1  0.14676347  0.28270318  0.67138052  1
  H+  H200  1  0.89058134  0.02419157  0.85808711  1
  H+  H201  1  0.38643066  0.37804377  0.64378844  1
  H+  H202  1  0.72967683  0.61287331  1.01342839  1
  H+  H203  1  0.72544552  0.10990338  0.16627232  1
  H+  H204  1  0.41312474  0.33464876  0.57014578  1
  H+  H205  1  0.74302580  0.39070389  0.85001971  1
  H+  H206  1  0.97463669  0.61532809  0.84108488  1
  H+  H207  1  0.72330812  0.85973278  0.16926650  1
  H+  H208  1  0.40404532  0.32578502  0.27813625  1
  H+  H209  1  0.39583584  0.87666949  0.32356023  1
  H+  H210  1  0.23707886  0.37237613  0.66891486  1
  H+  H211  1  0.86726915  0.63029622  0.33839917  1
  H+  H212  1  0.11767851  0.62972471  0.67997021  1
  H+  H213  1  0.35157996  0.22785026  0.33497393  1
  H+  H214  1  0.81553609  0.40269525  0.67939353  1
  H+  H215  1  0.51979405  0.63966351  0.15116601  1
  H+  H216  1  0.63587205  0.27832520  0.99897514  1
  H+  H217  1  0.91242008  0.86744477  0.65158286  1
  H+  H218  1  0.08361882  0.69323680  0.34165179  1
  H+  H219  1  0.26918289  0.39496049  -0.00196196  1
  H+  H220  1  0.60641986  0.63179521  0.15840755  1
  H+  H221  1  0.61392956  0.23082590  0.49393125  1
  H+  H222  1  0.06146444  0.63908248  0.40631570  1
  H+  H223  1  0.62577388  0.47373415  0.33508705  1
  H+  H224  1  0.11527710  0.51809473  -0.00536253  1
  H+  H225  1  0.06141148  0.74120377  0.80521695  1
  H+  H226  1  0.37189150  0.25336353  0.50820019  1
  H+  H227  1  0.36878013  0.35287698  0.33744590  1
  H+  H228  1  0.48894495  0.37909683  0.83653665  1
  H+  H229  1  0.10668902  0.46407423  0.34941578  1
  H+  H230  1  0.39232034  0.02343715  0.18116817  1
  H+  H231  1  0.52337893  0.14602981  0.00717305  1
  H+  H232  1  0.36587893  0.48459859  0.65929523  1
  H+  H233  1  0.11884516  0.87807929  0.82743450  1
  H+  H234  1  0.12510728  0.01177049  0.16139147  1
  H+  H235  1  0.13878432  0.11730783  0.66467811  1
  H+  H236  1  0.71616564  0.89398333  0.35098550  1
  H+  H237  1  0.39378258  0.38019452  0.98757697  1
  H+  H238  1  0.17989592  0.78746475  0.83758180  1
  H+  H239  1  0.38926554  0.10916824  0.18292488  1
  H+  H240  1  0.57102648  0.40580087  0.41712748  1
  H+  H241  1  0.61750739  0.22700768  0.16018290  1
  H+  H242  1  0.37445936  0.75767363  0.50262682  1
  H+  H243  1  0.23613700  0.34581994  0.82931819  1
  H+  H244  1  0.12564214  0.97232991  0.48363503  1
  H+  H245  1  0.61050483  0.13224390  0.67823017  1
  H+  H246  1  0.13247052  0.10539139  0.16256508  1
  H+  H247  1  0.87948624  0.36810767  0.33763518  1
  H+  H248  1  0.05920721  0.18030239  0.49373202  1
  H+  H249  1  0.41585753  0.57748236  0.58395136  1
  H+  H250  1  0.10257123  0.87876486  0.15459815  1
  H+  H251  1  0.97025342  0.61497380  0.16339683  1
  H+  H252  1  0.14848102  1.04055521  -0.00876977  1
  H+  H253  1  0.86310534  0.63130666  0.02226894  1
  H+  H254  1  0.62019943  0.88948066  0.63970728  1
  H+  H255  1  0.27407752  0.80005580  0.04868434  1
  H+  H256  1  1.01982677  0.38744487  0.49452875  1
  H+  H257  1  0.41370589  0.43033513  0.81737030  1
  H+  H258  1  0.47380120  0.60966603  0.64512666  1
  H+  H259  1  0.62863469  0.22193490  0.85487650  1
  H+  H260  1  0.38879730  0.97822112  0.48244285  1
  H+  H261  1  0.61987300  0.36442459  0.50132519  1
  H+  H262  1  0.88041423  0.85766582  0.51254933  1
  H+  H263  1  0.63706495  0.11066169  0.17203255  1
  H+  H264  1  0.62302484  0.61835113  1.00805946  1
  H+  H265  1  0.36328890  0.63480522  0.49265505  1
  H+  H266  1  0.37476810  0.65343077  0.82093670  1
  H+  H267  1  0.23522684  0.61801036  0.65646289  1
  H+  H268  1  0.81653265  0.90658909  0.35325886  1
  H+  H269  1  0.68420455  0.15159597  0.85319712  1
  H+  H270  1  0.75782906  0.38698943  0.48701103  1
  H+  H271  1  0.04768947  0.39894861  0.69766702  1
  H+  H272  1  0.37026881  0.13007782  0.85166395  1
  H+  H273  1  0.70274154  0.86462973  0.37818285  1
  H+  H274  1  0.12684543  0.51896277  0.15140096  1
  H+  H275  1  1.03497109  0.88506915  0.66923718  1
  H+  H276  1  0.65655836  0.53892556  0.52175926  1
  H+  H277  1  0.68043713  0.34071619  0.66569710  1
  H+  H278  1  0.61098525  0.88746442  0.15719520  1
  H+  H279  1  0.34985211  0.68219083  0.75065982  1
  H+  H280  1  0.49238030  0.11655968  0.48907960  1
  H+  H281  1  0.52652189  0.62537516  0.00109002  1
  H+  H282  1  0.18523897  0.35459748  0.25026905  1
  H+  H283  1  0.95802883  0.06123032  0.51283832  1
  H+  H284  1  0.63667622  0.52609639  0.66813410  1
  H+  H285  1  0.83606257  0.97327041  0.50481583  1
  H+  H286  1  0.91599359  0.37398118  0.67668869  1
  H+  H287  1  0.15450980  0.88145075  0.65785816  1
  H+  H288  1  0.60579849  0.89263234  0.83064289  1
  H+  H289  1  0.17170089  0.36021334  0.58289264  1
  H+  H290  1  0.42417047  0.59749897  0.93164779  1
  H+  H291  1  0.64474880  0.33298612  0.56212760  1
  H+  H292  1  0.58450087  0.16944927  0.06573212  1
  H+  H293  1  0.36348795  0.44018007  0.72241496  1
  H+  H294  1  0.32509944  0.18191836  0.77511198  1
  H+  H295  1  0.84457986  0.93002386  0.44418483  1
  H+  H296  1  0.82019168  0.20140647  0.03663022  1
  H+  H297  1  0.48174381  0.87812689  0.83178896  1
  H+  H298  1  0.90962759  0.58281513  0.93221506  1
  H+  H299  1  0.35276191  0.69264813  0.05803535  1
  H+  H300  1  0.88639492  0.32586437  0.54867116  1
  H+  H301  1  0.62092029  0.72690914  0.49725066  1
  H+  H302  1  0.08863919  0.17776194  0.73985612  1
  H+  H303  1  0.63427059  0.02894339  0.99441609  1
  H+  H304  1  0.88140090  -0.01093588  0.99887194  1
  H+  H305  1  0.08775033  0.17037138  0.09287478  1
  H+  H306  1  0.03588628  0.14009051  0.00474910  1
  H+  H307  1  0.18537141  0.79914805  0.36281873  1
  H+  H308  1  0.66967328  0.32761502  0.25852013  1
  H+  H309  1  0.42065230  0.08926807  0.27354887  1
  H+  H310  1  0.85721621  0.41876648  0.77873275  1
  H+  H311  1  0.16560040  0.06939237  0.25258272  1
  H+  H312  1  0.60012558  0.87827242  0.33505649  1
  H+  H313  1  0.58149079  0.17055369  0.39940674  1
  H+  H314  1  0.92671971  0.82732644  0.59229866  1
  H+  H315  1  0.18516057  0.85009988  0.56314598  1
  H+  H316  1  0.13614537  0.02650374  0.66573522  1
  H+  H317  1  0.66357863  0.08895117  0.91158558  1
  H+  H318  1  0.14883599  0.33552142  0.93645152  1
  H+  H319  1  0.87981051  0.60627267  0.15320707  1
  H+  H320  1  0.14775686  0.57974741  0.92603805  1
  H+  H321  1  0.08876024  0.92404430  0.05680970  1
  H+  H322  1  0.61905797  0.39057544  0.01190551  1
  H+  H323  1  0.95622038  0.33449106  0.63038126  1
  H+  H324  1  0.13815835  0.23391219  0.44834486  1
  H+  H325  1  0.32159976  0.21546643  0.05677175  1
  H+  H326  1  0.35483446  0.91864450  0.42269664  1
  H+  H327  1  0.37851134  0.99605158  0.34047742  1
  H+  H328  1  0.68019659  0.08115400  0.26291275  1
  H+  H329  1  0.35028815  0.88861261  0.73763763  1
  H+  H330  1  0.16419819  0.82559890  0.23113294  1
  H+  H331  1  0.66333289  0.58726342  0.22834749  1
  H+  H332  1  0.42333754  0.08215999  0.54126503  1
  H+  H333  1  0.84438247  0.38174593  0.48429444  1
  H+  H334  1  0.60643954  0.66751481  0.43954901  1
  H+  H335  1  0.94095873  0.10770073  0.56750077  1
  H+  H336  1  0.37546906  0.73223702  0.66096063  1
  H+  H337  1  0.58441792  0.41610557  0.10362717  1
  H+  H338  1  0.07464012  0.40398351  0.40710611  1
  H+  H339  1  0.56958836  0.68051851  0.76481742  1
  H+  H340  1  0.10345094  0.43080146  0.78482352  1
  H+  H341  1  0.14591138  0.58269376  0.20497759  1
  H+  H342  1  0.03031629  0.63224364  0.67680168  1
  H+  H343  1  0.94158536  0.08673945  0.91475740  1
  H+  H344  1  0.07536062  0.13976944  0.38152447  1
  H+  H345  1  0.91313928  0.33094479  0.23296079  1
  H+  H346  1  0.41828945  0.85148375  0.92735165  1
  H+  H347  1  0.68396285  0.10964789  0.57368379  1
  H+  H348  1  0.72995039  0.35979568  0.99186443  1
  H+  H349  1  0.08080384  0.67722383  0.76751797  1
  H+  H350  1  0.93242833  0.84189620  0.28589651  1
  H+  H351  1  0.57956220  0.90363771  0.43040203  1
  H+  H352  1  0.16695618  0.58236245  0.56651878  1
  H+  H353  1  0.58062382  0.92100832  0.06407433  1
  H+  H354  1  0.09411007  0.23334486  0.83541112  1
  H+  H355  1  0.88582887  0.79142672  0.18670559  1
  H+  H356  1  0.91859052  0.58300519  0.60199508  1
  H+  H357  1  0.62341634  0.79997815  0.25225385  1
  H+  H358  1  0.82765317  0.41312523  0.39642643  1
  H+  H359  1  0.65546083  0.81599602  0.58733924  1
  H+  H360  1  0.55551698  0.13030556  0.73539652  1
  H+  H361  1  0.88762628  0.61274168  0.50853935  1
  H+  H362  1  0.04366069  0.28027756  0.89325629  1
  H+  H363  1  0.38647991  0.57105952  0.24512683  1
  H+  H364  1  0.01542894  0.38113589  0.16075138  1
  H+  H365  1  0.17227151  0.10356432  0.93216936  1
  H+  H366  1  0.67404305  0.59228732  0.61249283  1
  H+  H367  1  0.62031981  0.38200604  0.33383166  1
  H+  H368  1  0.19059603  0.59073488  0.30101938  1
  H+  H369  1  0.92223686  0.83694908  0.90102092  1
  H+  H370  1  0.07327412  0.41769327  0.06122061  1
  H+  H371  1  0.91194650  0.08141926  0.21720324  1
  H+  H372  1  0.16266318  0.07565910  0.56984375  1
  H+  H373  1  0.87420364  0.38091791  0.83994254  1
  H+  H374  1  0.82999237  0.92483095  0.05463351  1
  H+  H375  1  0.33021361  0.41772359  0.05659996  1
  H+  H376  1  0.77472533  0.13772434  0.33188222  1
  H+  H377  1  0.40997935  0.83095676  0.56040645  1
  H+  H378  1  0.86418921  0.94221100  0.78899006  1
  H+  H379  1  0.38256036  0.06831416  0.63047466  1
  H+  H380  1  0.67239687  0.57952250  0.90272010  1
  H+  H381  1  0.07373779  0.67660159  0.05431470  1
  H+  H382  1  0.67781867  0.36468293  0.90580194  1
  H+  H383  1  0.41420133  0.10012069  0.94276850  1
  O2-  O384  1  0.08309884  0.16097140  0.14051604  1
  O2-  O385  1  0.11959357  0.19754017  0.48435189  1
  O2-  O386  1  0.07763079  0.17686940  0.81309212  1
  O2-  O387  1  0.07544454  0.41308211  0.14309750  1
  O2-  O388  1  0.07969798  0.41630140  0.47982562  1
  O2-  O389  1  0.09160340  0.42864107  0.82899386  1
  O2-  O390  1  0.07543287  0.67303827  0.13260358  1
  O2-  O391  1  0.06955611  0.64510537  0.47019180  1
  O2-  O392  1  0.07459679  0.69429204  0.81079439  1
  O2-  O393  1  0.07490050  0.90939514  0.13668060  1
  O2-  O394  1  0.10919075  0.91812630  0.46211907  1
  O2-  O395  1  0.06656687  0.84972323  0.80285537  1
  O2-  O396  1  0.32725840  0.14626347  0.14896021  1
  O2-  O397  1  0.32733137  0.16360719  0.48374677  1
  O2-  O398  1  0.32658845  0.18772334  0.82081934  1
  O2-  O399  1  0.33900278  0.40063880  0.14465326  1
  O2-  O400  1  0.39737018  0.49215044  0.47353520  1
  O2-  O401  1  0.41414054  0.47831905  0.79235185  1
  O2-  O402  1  0.33508338  0.68691105  0.14008075  1
  O2-  O403  1  0.33476509  0.66957614  0.49069586  1
  O2-  O404  1  0.34764105  0.68662043  0.79732854  1
  O2-  O405  1  0.33202114  0.92175089  0.15228229  1
  O2-  O406  1  0.35780393  0.91620873  0.46889142  1
  O2-  O407  1  0.37975674  0.89479272  0.81475678  1
  O2-  O408  1  0.58652592  0.16572743  0.14676370  1
  O2-  O409  1  0.59029028  0.17092065  0.47929876  1
  O2-  O410  1  0.51461686  0.07049129  0.80188803  1
  O2-  O411  1  0.58820708  0.41650774  0.14915918  1
  O2-  O412  1  0.55830660  0.40704995  0.46379244  1
  O2-  O413  1  0.58690539  0.42774360  0.80716528  1
  O2-  O414  1  0.57987000  0.66511861  0.13764065  1
  O2-  O415  1  0.59862527  0.66490021  0.48429437  1
  O2-  O416  1  0.56547631  0.68417633  0.80939316  1
  O2-  O417  1  0.57949912  0.91714849  0.14402229  1
  O2-  O418  1  0.57647312  0.89475131  0.47556143  1
  O2-  O419  1  0.57202776  0.92132617  0.81850339  1
  O2-  O420  1  0.82193822  0.16216109  0.13634289  1
  O2-  O421  1  0.83889626  0.16914880  0.47202179  1
  O2-  O422  1  0.83944473  0.15485152  0.82338672  1
  O2-  O423  1  0.84239099  0.41574386  0.14273015  1
  O2-  O424  1  0.81745149  0.41550412  0.47031235  1
  O2-  O425  1  0.84931168  0.41695330  0.82295245  1
  O2-  O426  1  0.84559763  0.66179029  0.10522995  1
  O2-  O427  1  0.84374727  0.66949528  0.48013964  1
  O2-  O428  1  0.83542701  0.66562473  0.81595071  1
  O2-  O429  1  0.82186997  0.90770968  0.13658845  1
  O2-  O430  1  0.82425690  0.91845977  0.48748134  1
  O2-  O431  1  0.83904435  0.91559646  0.82774236  1
  O2-  O432  1  0.16052048  0.07224594  0.17700173  1
  O2-  O433  1  0.16503041  0.07402378  0.52423763  1
  O2-  O434  1  0.16470445  0.10366135  0.86386219  1
  O2-  O435  1  0.19965834  0.38211339  0.20879631  1
  O2-  O436  1  0.17175568  0.36474304  0.53751803  1
  O2-  O437  1  0.10218417  0.30968433  0.87750389  1
  O2-  O438  1  0.15725930  0.58229620  0.16177174  1
  O2-  O439  1  0.16858667  0.58445703  0.52088523  1
  O2-  O440  1  0.15626828  0.58092897  0.86715683  1
  O2-  O441  1  0.16483538  0.83115074  0.18680093  1
  O2-  O442  1  0.18517463  0.84666055  0.51749622  1
  O2-  O443  1  0.22183305  0.84537983  0.85269697  1
  O2-  O444  1  0.42322792  0.08313627  0.19807442  1
  O2-  O445  1  0.42738398  0.07988266  0.49736448  1
  O2-  O446  1  0.39090667  0.09266601  0.86955381  1
  O2-  O447  1  0.41867592  0.31521590  0.19639697  1
  O2-  O448  1  0.40422210  0.31836824  0.51915979  1
  O2-  O449  1  0.42814130  0.35840875  0.85029107  1
  O2-  O450  1  0.40048975  0.59221276  0.16825307  1
  O2-  O451  1  0.42279769  0.57512618  0.50042309  1
  O2-  O452  1  0.41416777  0.61181438  0.85105308  1
  O2-  O453  1  0.41897427  0.84330356  0.18611701  1
  O2-  O454  1  0.40770085  0.82531500  0.51378987  1
  O2-  O455  1  0.41360508  0.84263498  0.84215604  1
  O2-  O456  1  0.66634057  0.07850407  0.18527894  1
  O2-  O457  1  0.67481671  0.10149499  0.52918899  1
  O2-  O458  1  0.66642375  0.09205188  0.86276877  1
  O2-  O459  1  0.67422737  0.33423495  0.18192283  1
  O2-  O460  1  0.65323699  0.33844721  0.51753986  1
  O2-  O461  1  0.68598134  0.38092332  0.86231064  1
  O2-  O462  1  0.65065523  0.58583391  0.18435192  1
  O2-  O463  1  0.68459845  0.59932934  0.53313119  1
  O2-  O464  1  0.66920279  0.58042027  0.85819756  1
  O2-  O465  1  0.66143083  0.82868131  0.18263026  1
  O2-  O466  1  0.65568186  0.82148455  0.51589222  1
  O2-  O467  1  0.66079524  0.84490300  0.85071141  1
  O2-  O468  1  0.91135834  0.07686283  0.17237600  1
  O2-  O469  1  0.94687825  0.10797127  0.52179429  1
  O2-  O470  1  0.92342892  0.08601322  0.86775429  1
  O2-  O471  1  0.91724466  0.33258985  0.18847584  1
  O2-  O472  1  0.90110987  0.33069345  0.50572097  1
  O2-  O473  1  0.91932325  0.33009927  0.86206226  1
  O2-  O474  1  0.90978308  0.58217141  0.17803915  1
  O2-  O475  1  0.91254760  0.57773930  0.52495469  1
  O2-  O476  1  0.91512566  0.57995162  0.85714170  1
  O2-  O477  1  0.90184984  0.81021661  0.14487229  1
  O2-  O478  1  0.91645962  0.83292762  0.52322660  1
  O2-  O479  1  0.92126993  0.83298005  0.85424593  1
  O2-  O480  1  0.16941973  0.07094466  0.29838918  1
  O2-  O481  1  0.16551784  0.08508043  0.64709226  1
  O2-  O482  1  0.17848796  0.10238333  0.97915724  1
  O2-  O483  1  0.16711562  0.32690661  0.32635482  1
  O2-  O484  1  0.17467619  0.34424981  0.65796505  1
  O2-  O485  1  0.16954881  0.34858317  0.98221078  1
  O2-  O486  1  0.16753898  0.57491727  0.34196995  1
  O2-  O487  1  0.17431812  0.58434560  0.64369716  1
  O2-  O488  1  0.14378285  0.57979473  0.97722507  1
  O2-  O489  1  0.18234364  0.82600189  0.32504779  1
  O2-  O490  1  0.18206476  0.85222681  0.63759660  1
  O2-  O491  1  0.16598498  0.84026317  0.96851632  1
  O2-  O492  1  0.41573525  0.09273106  0.31896052  1
  O2-  O493  1  0.40227587  0.06452528  0.67080570  1
  O2-  O494  1  0.42430670  0.10433709  0.98802365  1
  O2-  O495  1  0.39083211  0.31565351  0.32208545  1
  O2-  O496  1  0.41857859  0.35008787  0.62685456  1
  O2-  O497  1  0.42808462  0.35349522  0.97376943  1
  O2-  O498  1  0.39286509  0.56880612  0.29014004  1
  O2-  O499  1  0.41365832  0.58302060  0.62879499  1
  O2-  O500  1  0.42927195  0.59266700  0.97636764  1
  O2-  O501  1  0.42396194  0.84463037  0.30754101  1
  O2-  O502  1  0.42104853  0.83297638  0.63080665  1
  O2-  O503  1  0.42137106  0.85015841  0.97213422  1
  O2-  O504  1  0.68994466  0.08330499  0.30778507  1
  O2-  O505  1  0.68048643  0.10035429  0.65522376  1
  O2-  O506  1  0.66218707  0.08789858  0.97663076  1
  O2-  O507  1  0.66669686  0.32538929  0.30417422  1
  O2-  O508  1  0.62491624  0.30910026  0.64579804  1
  O2-  O509  1  0.66692991  0.34066688  0.98726303  1
  O2-  O510  1  0.67802103  0.58173493  0.30794957  1
  O2-  O511  1  0.67003224  0.58874815  0.65761931  1
  O2-  O512  1  0.67140534  0.58367018  0.99311525  1
  O2-  O513  1  0.58729528  0.77855461  0.29060024  1
  O2-  O514  1  0.65763526  0.81824040  0.63356368  1
  O2-  O515  1  0.67069819  0.85101670  0.96701102  1
  O2-  O516  1  0.91900772  0.09328994  0.30109110  1
  O2-  O517  1  0.92847493  0.09903778  0.64355011  1
  O2-  O518  1  0.96635494  0.07304767  0.97273768  1
  O2-  O519  1  0.91280064  0.33294159  0.32302602  1
  O2-  O520  1  0.93907515  0.33328589  0.67245334  1
  O2-  O521  1  0.82617264  0.37252356  0.98284071  1
  O2-  O522  1  0.90471923  0.56572094  0.30584664  1
  O2-  O523  1  0.92242475  0.58435272  0.64746031  1
  O2-  O524  1  0.91284846  0.58521344  0.97801992  1
  O2-  O525  1  0.93622272  0.83815507  0.32986040  1
  O2-  O526  1  0.93037988  0.82696656  0.63919313  1
  O2-  O527  1  0.92157844  0.84788725  0.97052922  1
  O2-  O528  1  0.09624765  0.18359210  0.02674783  1
  O2-  O529  1  0.08545481  0.15534542  0.33858136  1
  O2-  O530  1  0.09491793  0.17854304  0.69376389  1
  O2-  O531  1  0.07597384  0.42536543  0.01668740  1
  O2-  O532  1  0.07211164  0.40189673  0.36078513  1
  O2-  O533  1  0.11012606  0.43458074  0.70474901  1
  O2-  O534  1  0.07547030  0.67384514  0.00900593  1
  O2-  O535  1  0.05994919  0.63486041  0.35729863  1
  O2-  O536  1  0.08404850  0.65276731  0.69990825  1
  O2-  O537  1  0.09225588  0.93286814  0.01206048  1
  O2-  O538  1  0.09918692  0.90656105  0.35000616  1
  O2-  O539  1  0.09114099  0.92198296  0.68933965  1
  O2-  O540  1  0.33109874  0.19102145  0.02011883  1
  O2-  O541  1  0.32389774  0.16019364  0.34314056  1
  O2-  O542  1  0.32600129  0.16618591  0.70234762  1
  O2-  O543  1  0.33213825  0.42518334  0.01225521  1
  O2-  O544  1  0.32853760  0.42227067  0.36695952  1
  O2-  O545  1  0.34286905  0.42716124  0.67948251  1
  O2-  O546  1  0.35811002  0.69398199  0.01336720  1
  O2-  O547  1  0.35429220  0.68641416  0.35147377  1
  O2-  O548  1  0.34639810  0.67398694  0.68029341  1
  O2-  O549  1  0.30235152  0.86025319  0.03650470  1
  O2-  O550  1  0.35223055  0.93293456  0.35224306  1
  O2-  O551  1  0.34325654  0.89656365  0.69372149  1
  O2-  O552  1  0.58575221  0.17377098  0.02066023  1
  O2-  O553  1  0.56969851  0.16676582  0.35523791  1
  O2-  O554  1  0.56977956  0.15147730  0.69249950  1
  O2-  O555  1  0.58827848  0.42166216  0.02673414  1
  O2-  O556  1  0.59378592  0.41433012  0.35134589  1
  O2-  O557  1  0.57056514  0.42042464  0.68688964  1
  O2-  O558  1  0.58552398  0.64973731  0.02036450  1
  O2-  O559  1  0.58972729  0.65609145  0.36120047  1
  O2-  O560  1  0.56839882  0.65678843  0.68339720  1
  O2-  O561  1  0.58449535  0.92580836  0.01895642  1
  O2-  O562  1  0.58247733  0.91700668  0.35352392  1
  O2-  O563  1  0.59575760  0.92802404  0.63213213  1
  O2-  O564  1  0.86121453  0.24186190  0.00744081  1
  O2-  O565  1  0.83830796  0.17604733  0.34957071  1
  O2-  O566  1  0.84121022  0.16224120  0.70304509  1
  O2-  O567  1  0.89528970  0.43042412  0.02386530  1
  O2-  O568  1  0.83633171  0.40884687  0.35126905  1
  O2-  O569  1  0.87457336  0.43509799  0.69320634  1
  O2-  O570  1  0.83015164  0.65744162  0.03947248  1
  O2-  O571  1  0.84051205  0.66229392  0.35648521  1
  O2-  O572  1  0.83981274  0.66573996  0.69018577  1
  O2-  O573  1  0.83480326  0.92827311  0.00974277  1
  O2-  O574  1  0.87499493  0.93961020  0.36944316  1
  O2-  O575  1  0.81963799  0.92703467  0.69265773  1
