# generated using pymatgen
data_H2O
_symmetry_space_group_name_H-M   'P 1'
_cell_length_a   17.98853712
_cell_length_b   17.98852985
_cell_length_c   21.98262682
_cell_angle_alpha   89.97443678
_cell_angle_beta   89.97653115
_cell_angle_gamma   120.01112406
_symmetry_Int_Tables_number   1
_chemical_formula_structural   H2O
_chemical_formula_sum   'H384 O192'
_cell_volume   6159.60531496
_cell_formula_units_Z   192
loop_
 _symmetry_equiv_pos_site_id
 _symmetry_equiv_pos_as_xyz
  1  'x, y, z'
loop_
 _atom_type_symbol
 _atom_type_oxidation_number
  H+  1.0
  O2-  -2.0
loop_
 _atom_site_type_symbol
 _atom_site_label
 _atom_site_symmetry_multiplicity
 _atom_site_fract_x
 _atom_site_fract_y
 _atom_site_fract_z
 _atom_site_occupancy
  H+  H0  1  0.12931376  0.76613137  0.50818475  1
  H+  H1  1  0.12633898  0.22956491  0.81438025  1
  H+  H2  1  0.11261812  0.72640968  0.68014805  1
  H+  H3  1  0.26156669  0.64049041  0.00622818  1
  H+  H4  1  0.63178478  0.15168070  0.84197839  1
  H+  H5  1  0.10968445  0.84961218  0.17458974  1
  H+  H6  1  0.85878114  0.50346041  0.33835063  1
  H+  H7  1  0.27589552  0.38908778  0.33433251  1
  H+  H8  1  0.87768915  0.23120597  0.67326419  1
  H+  H9  1  0.11645607  -0.01618749  0.83551704  1
  H+  H10  1  0.08947599  -0.01884972  1.03393564  1
  H+  H11  1  0.34969038  -0.04883134  0.50449886  1
  H+  H12  1  0.65326510  0.03579048  0.65582355  1
  H+  H13  1  0.12873847  0.86546769  0.84879095  1
  H+  H14  1  0.34087216  0.25364432  0.64157269  1
  H+  H15  1  0.48823662  0.12949474  0.84887028  1
  H+  H16  1  0.86951541  0.97979483  0.01218430  1
  H+  H17  1  0.49996567  0.86225041  0.00267703  1
  H+  H18  1  0.50855420  0.64275029  0.99040855  1
  H+  H19  1  1.02642527  0.13330535  0.49679839  1
  H+  H20  1  0.38701502  0.36320012  0.31861188  1
  H+  H21  1  0.13045033  0.77852841  0.84968019  1
  H+  H22  1  0.83349066  0.67191037  0.43060721  1
  H+  H23  1  1.09019352  0.42873616  1.07069816  1
  H+  H24  1  0.14066980  0.86252363  0.50787728  1
  H+  H25  1  0.11288134  0.73088338  0.33865978  1
  H+  H26  1  0.89609461  0.87357421  0.66304766  1
  H+  H27  1  -0.00040917  0.90638988  0.01235766  1
  H+  H28  1  0.61882945  0.13993196  0.49512745  1
  H+  H29  1  0.02125337  0.63535891  0.16503245  1
  H+  H30  1  0.62912270  0.14243701  0.68018568  1
  H+  H31  1  0.90585346  0.24986770  0.33010966  1
  H+  H32  1  0.38170265  0.90592426  0.82098892  1
  H+  H33  1  0.51034636  0.37564410  0.83578747  1
  H+  H34  1  0.14217858  0.11449554  0.50563830  1
  H+  H35  1  0.39345955  0.78086853  0.83514210  1
  H+  H36  1  0.03467461  0.89194348  0.34305493  1
  H+  H37  1  0.62047207  0.23822707  0.49849290  1
  H+  H38  1  0.08503315  0.66146570  0.76420504  1
  H+  H39  1  0.47080879  0.35840078  0.50071897  1
  H+  H40  1  0.61234033  0.13956778  0.00475089  1
  H+  H41  1  0.44187755  0.07115875  0.48623350  1
  H+  H42  1  0.90636687  0.86888744  0.32443772  1
  H+  H43  1  0.77776223  0.13903331  0.49765162  1
  H+  H44  1  0.47790488  0.61575626  0.83454519  1
  H+  H45  1  0.64770165  0.77939455  0.82607637  1
  H+  H46  1  0.72134741  0.35930118  0.65908596  1
  H+  H47  1  0.98658930  0.86464370  0.86682256  1
  H+  H48  1  0.86063727  0.39189792  0.01037988  1
  H+  H49  1  0.35814717  0.89327422  0.00483864  1
  H+  H50  1  0.37436335  0.14683829  0.82571492  1
  H+  H51  1  0.61884843  0.23741391  0.34228233  1
  H+  H52  1  0.01874673  0.38028299  0.15638221  1
  H+  H53  1  0.13854866  0.28031610  0.18033200  1
  H+  H54  1  0.35505581  0.70466313  0.51003375  1
  H+  H55  1  0.66232646  0.78919105  0.98894843  1
  H+  H56  1  0.13912336  0.86697872  0.32929820  1
  H+  H57  1  0.87900387  0.51741385  0.50080520  1
  H+  H58  1  0.14038700  0.27598348  0.33216271  1
  H+  H59  1  0.15436315  0.29096076  1.08725653  1
  H+  H60  1  0.72776660  0.84957507  0.65526605  1
  H+  H61  1  0.26072882  0.90103479  0.67549082  1
  H+  H62  1  0.60268410  0.38129081  0.84110496  1
  H+  H63  1  0.51372130  0.80630321  0.37762207  1
  H+  H64  1  0.16324102  0.58531887  0.59977151  1
  H+  H65  1  0.63883702  0.40334580  0.68608387  1
  H+  H66  1  0.67624349  0.83786724  0.88514358  1
  H+  H67  1  0.61634872  -0.00796216  0.82922365  1
  H+  H68  1  0.87206550  0.88557787  0.49890713  1
  H+  H69  1  0.41010917  0.83378284  0.93027525  1
  H+  H70  1  0.40224607  1.03985337  0.84047258  1
  H+  H71  1  0.56084257  0.90190384  0.35587256  1
  H+  H72  1  0.10785826  0.72860749  0.16444142  1
  H+  H73  1  0.62334710  0.15093988  0.34252160  1
  H+  H74  1  0.54234311  0.65652212  0.16063906  1
  H+  H75  1  0.64330823  0.28261889  0.99658198  1
  H+  H76  1  0.46844141  0.11926114  0.16444040  1
  H+  H77  1  0.87564294  0.88880483  0.84570159  1
  H+  H78  1  0.27206138  0.63121838  0.66573314  1
  H+  H79  1  0.89686159  0.02503606  0.84250997  1
  H+  H80  1  0.66703829  0.62769930  0.00015386  1
  H+  H81  1  0.11228865  0.47974606  0.33714896  1
  H+  H82  1  0.61087732  0.63752811  0.81493676  1
  H+  H83  1  0.62186445  0.60138155  0.67020838  1
  H+  H84  1  0.87894251  0.64711735  0.99550036  1
  H+  H85  1  0.66740106  0.04860737  0.30691186  1
  H+  H86  1  0.19260212  0.08824496  0.90375289  1
  H+  H87  1  0.13904534  0.52601175  0.65940488  1
  H+  H88  1  0.43331129  0.61174392  0.23379211  1
  H+  H89  1  0.87473866  0.14098302  0.82871091  1
  H+  H90  1  0.72057142  0.62805329  0.68603079  1
  H+  H91  1  0.52048718  0.38910337  0.33631511  1
  H+  H92  1  0.09409487  0.91925238  0.43778071  1
  H+  H93  1  0.13956316  0.36555845  0.33298126  1
  H+  H94  1  -0.01259981  0.61911504  -0.00676547  1
  H+  H95  1  0.90231566  0.10239124  0.33251921  1
  H+  H96  1  0.72337567  0.37262707  0.32541692  1
  H+  H97  1  0.23372077  0.62146077  0.83221872  1
  H+  H98  1  0.37382096  0.38450005  0.82100481  1
  H+  H99  1  0.36606435  0.63923624  0.81816453  1
  H+  H100  1  0.83218352  0.60407899  0.63040946  1
  H+  H101  1  0.18519159  0.34325092  0.86786012  1
  H+  H102  1  0.11631042  0.64526116  1.00874334  1
  H+  H103  1  0.49158794  0.36496222  0.66581753  1
  H+  H104  1  0.15277203  0.82809276  0.61035869  1
  H+  H105  1  0.58942727  0.42226228  0.06981442  1
  H+  H106  1  0.73091071  0.10465535  1.00374250  1
  H+  H107  1  0.77792380  0.39975360  1.01371081  1
  H+  H108  1  0.16321029  0.58488887  0.93446615  1
  H+  H109  1  0.11950309  0.16505477  -0.05950025  1
  H+  H110  1  0.14988397  0.25707902  1.02236982  1
  H+  H111  1  0.65547568  0.76315322  0.34609950  1
  H+  H112  1  0.97252114  1.11044964  0.66249200  1
  H+  H113  1  0.87766383  0.31749679  0.32632213  1
  H+  H114  1  0.36745599  0.23314127  0.33550498  1
  H+  H115  1  0.87729550  0.26055791  0.16941270  1
  H+  H116  1  0.84301799  0.17069861  0.77027705  1
  H+  H117  1  0.77257095  0.64693071  0.33976253  1
  H+  H118  1  0.79542626  0.13167676  0.35036086  1
  H+  H119  1  0.28102503  0.37920592  0.03315890  1
  H+  H120  1  0.78008626  0.39454564  0.83355685  1
  H+  H121  1  0.35125668  0.72931669  0.33889717  1
  H+  H122  1  0.12389838  0.64205981  0.67770422  1
  H+  H123  1  0.13722341  0.52521886  0.99536995  1
  H+  H124  1  0.48154417  0.87141196  0.83910597  1
  H+  H125  1  0.27039090  0.89773722  1.00502825  1
  H+  H126  1  0.88967486  1.01840687  0.50926484  1
  H+  H127  1  0.36538416  0.47885290  0.33553035  1
  H+  H128  1  0.38322275  0.26112649  0.16277217  1
  H+  H129  1  0.49843280  0.89816592  0.15569890  1
  H+  H130  1  1.01876211  0.63509994  0.49098095  1
  H+  H131  1  0.51631506  0.60967557  -0.02459962  1
  H+  H132  1  0.86989481  0.13879380  0.67210669  1
  H+  H133  1  0.13495004  0.63109942  0.17689973  1
  H+  H134  1  0.37680691  0.72723874  0.62053498  1
  H+  H135  1  0.34887141  0.73625614  0.15375684  1
  H+  H136  1  0.24785847  0.37048975  0.81153629  1
  H+  H137  1  0.61484195  0.71631628  0.46169711  1
  H+  H138  1  0.95405674  0.44379456  0.62281471  1
  H+  H139  1  0.63890762  0.01998329  0.99980258  1
  H+  H140  1  0.13115457  0.61330366  0.50513814  1
  H+  H141  1  0.63134563  0.52285315  0.82811529  1
  H+  H142  1  0.85636167  0.21536065  0.00655079  1
  H+  H143  1  0.38870308  1.03193156  -0.00266015  1
  H+  H144  1  0.38693564  0.61862368  0.33400986  1
  H+  H145  1  0.73911163  0.12723241  0.65886737  1
  H+  H146  1  0.72753919  0.74953267  0.04922041  1
  H+  H147  1  0.27287332  0.14402538  0.48868996  1
  H+  H148  1  0.34772326  -0.01636084  0.15614130  1
  H+  H149  1  0.53694841  0.89590242  0.52187993  1
  H+  H150  1  0.60403283  0.71251799  0.66161089  1
  H+  H151  1  0.41145015  0.57501615  0.58674479  1
  H+  H152  1  0.86752241  0.42223993  0.33558858  1
  H+  H153  1  0.85346304  0.38206806  0.48594792  1
  H+  H154  1  0.46576919  0.78057207  0.58707951  1
  H+  H155  1  0.89018005  0.52337105  0.17741335  1
  H+  H156  1  0.33498313  0.29649391  0.87767547  1
  H+  H157  1  0.36855189  0.14384365  0.33696405  1
  H+  H158  1  0.53588666  0.39655204  0.00769581  1
  H+  H159  1  0.53896312  0.12913427  0.70128087  1
  H+  H160  1  0.77628911  0.62892158  0.15435877  1
  H+  H161  1  0.87090823  0.13387729  0.00874547  1
  H+  H162  1  0.44971816  0.11540492  0.62628940  1
  H+  H163  1  0.76303065  0.12577488  0.15868803  1
  H+  H164  1  0.86580540  0.73414422  0.33526886  1
  H+  H165  1  0.93513029  0.58359133  0.90037653  1
  H+  H166  1  0.08061096  0.41955959  0.43279993  1
  H+  H167  1  0.16456829  0.07996573  0.60152347  1
  H+  H168  1  0.14016551  0.79624419  1.00400538  1
  H+  H169  1  0.27199517  0.89215460  0.33462597  1
  H+  H170  1  -0.01334918  0.37072464  0.83952859  1
  H+  H171  1  0.88320912  0.97911928  0.16170742  1
  H+  H172  1  0.72015989  0.35493519  0.50464635  1
  H+  H173  1  0.46994648  0.60530894  0.48519787  1
  H+  H174  1  0.88907559  0.10756964  0.51060503  1
  H+  H175  1  0.80216324  0.27754425  0.95329781  1
  H+  H176  1  0.12637493  0.03049034  0.17433241  1
  H+  H177  1  0.60446459  0.14417531  0.14959546  1
  H+  H178  1  0.37287407  0.77220544  0.98955146  1
  H+  H179  1  0.02544376  0.88486492  0.10967793  1
  H+  H180  1  0.22299792  0.61691987  0.32946812  1
  H+  H181  1  0.02773434  0.39851097  0.66749082  1
  H+  H182  1  0.12496387  0.14043822  0.34037485  1
  H+  H183  1  1.02759748  0.38587969  0.33726459  1
  H+  H184  1  1.03544094  0.88890928  0.49799771  1
  H+  H185  1  0.63850267  0.86246311  0.97881561  1
  H+  H186  1  0.47855909  0.11975673  0.32005820  1
  H+  H187  1  0.11310467  0.22453671  0.49524960  1
  H+  H188  1  0.95033631  0.85433619  0.26532389  1
  H+  H189  1  0.14746626  1.02763091  0.50549054  1
  H+  H190  1  0.36420425  0.02782952  0.64383693  1
  H+  H191  1  0.10715471  0.13256159  0.66794837  1
  H+  H192  1  0.88554646  0.10671444  0.17610214  1
  H+  H193  1  0.25001582  0.85603451  0.51866339  1
  H+  H194  1  0.37272049  0.83393026  0.56860593  1
  H+  H195  1  0.12933074  0.27053413  0.65756329  1
  H+  H196  1  0.36828033  0.23398116  0.82617592  1
  H+  H197  1  0.07762379  0.92105098  0.77830553  1
  H+  H198  1  0.36720311  0.86659106  0.31939358  1
  H+  H199  1  0.12478239  0.86000573  0.67028029  1
  H+  H200  1  0.36010175  0.86913359  0.16243548  1
  H+  H201  1  1.02231630  0.64353300  0.33816174  1
  H+  H202  1  0.60869247  0.38882475  0.33836182  1
  H+  H203  1  0.89927608  0.52243086  0.83970990  1
  H+  H204  1  0.99249337  0.10747827  0.32700154  1
  H+  H205  1  0.87769834  0.63994465  0.83472164  1
  H+  H206  1  0.28010696  0.38460188  0.17063568  1
  H+  H207  1  0.88642982  0.78349439  0.67007669  1
  H+  H208  1  0.89632209  0.77595837  0.51072084  1
  H+  H209  1  0.60134233  0.37983653  0.49275149  1
  H+  H210  1  0.63438537  0.27684331  0.17090139  1
  H+  H211  1  0.86006194  0.46310237  0.67302973  1
  H+  H212  1  0.45079255  0.86114433  0.29946665  1
  H+  H213  1  0.78681968  0.88637125  0.83112347  1
  H+  H214  1  0.23421954  0.11771616  0.32446796  1
  H+  H215  1  0.88431722  0.36896007  0.65711857  1
  H+  H216  1  0.22293450  0.10921201  0.16029435  1
  H+  H217  1  0.35124306  0.50342914  0.98739508  1
  H+  H218  1  0.54383569  0.82318391  0.04382039  1
  H+  H219  1  0.63189456  0.27326935  0.66180980  1
  H+  H220  1  0.63927618  0.03346359  0.51185656  1
  H+  H221  1  0.52040463  0.38169519  0.16057013  1
  H+  H222  1  0.12278280  0.98195920  0.34222937  1
  H+  H223  1  0.11110949  0.38998246  0.16169620  1
  H+  H224  1  0.91507947  0.31648347  0.22897137  1
  H+  H225  1  0.61214324  0.38802634  0.16299292  1
  H+  H226  1  0.13346046  0.61738862  0.32764627  1
  H+  H227  1  0.47433657  0.61699988  0.34105055  1
  H+  H228  1  0.35806776  0.62390109  0.66349597  1
  H+  H229  1  0.34854307  0.13820865  0.66693924  1
  H+  H230  1  0.72667047  0.36356352  0.17537226  1
  H+  H231  1  0.21728466  0.11066584  0.66359465  1
  H+  H232  1  0.63619186  0.52808709  0.33340692  1
  H+  H233  1  0.65509956  0.84909184  0.34250867  1
  H+  H234  1  0.01960089  0.62302419  0.82972597  1
  H+  H235  1  0.14532104  0.52972957  0.83285288  1
  H+  H236  1  0.24471686  0.09660034  0.02093196  1
  H+  H237  1  0.12828077  0.39831994  1.01910209  1
  H+  H238  1  0.10504549  0.47528453  0.49400002  1
  H+  H239  1  0.34359182  0.34389631  0.63751521  1
  H+  H240  1  0.03013980  0.14899437  0.16024714  1
  H+  H241  1  0.65005026  0.51828671  0.68766142  1
  H+  H242  1  0.21795702  0.60838174  0.50541066  1
  H+  H243  1  0.50699456  0.39664082  0.64004806  1
  H+  H244  1  0.61297650  0.02172721  0.16284733  1
  H+  H245  1  0.24365252  0.12109711  0.84093115  1
  H+  H246  1  0.78888980  0.64498103  -0.00536562  1
  H+  H247  1  0.86740610  0.38922780  0.82801655  1
  H+  H248  1  0.88626976  0.62823907  0.32461871  1
  H+  H249  1  0.82319348  0.69015595  0.75822815  1
  H+  H250  1  0.77903264  0.89750656  1.00778834  1
  H+  H251  1  0.94882529  0.91062575  0.17020668  1
  H+  H252  1  -0.01527473  0.11505723  0.83919173  1
  H+  H253  1  0.63622215  0.52362704  0.18021110  1
  H+  H254  1  0.34473023  0.90878314  0.65083954  1
  H+  H255  1  0.86296764  0.97548079  0.68118179  1
  H+  H256  1  0.37612224  0.47722900  0.81486817  1
  H+  H257  1  0.51182472  0.62464811  0.66038051  1
  H+  H258  1  0.16088793  0.83470081  0.26740744  1
  H+  H259  1  0.40077676  0.63961820  0.17581580  1
  H+  H260  1  0.88208678  0.97351407  0.34143362  1
  H+  H261  1  0.84585080  0.59977056  0.66188218  1
  H+  H262  1  0.12520676  0.14086540  0.82543684  1
  H+  H263  1  0.97106178  0.36435368  0.49707793  1
  H+  H264  1  0.37914993  0.51489162  0.64687519  1
  H+  H265  1  0.37378568  0.39583094  0.01236255  1
  H+  H266  1  0.64960931  0.28686203  0.84975914  1
  H+  H267  1  0.75832154  0.85833771  0.18368784  1
  H+  H268  1  0.90049599  0.77256976  0.96522420  1
  H+  H269  1  0.71695540  0.57613901  0.48853069  1
  H+  H270  1  0.36238430  -0.02022281  0.33112242  1
  H+  H271  1  0.36803075  0.24770172  0.48732127  1
  H+  H272  1  0.34444556  0.63269838  1.00404837  1
  H+  H273  1  0.13180207  0.36190090  0.50354781  1
  H+  H274  1  0.11113224  0.97564774  0.67935355  1
  H+  H275  1  0.61023832  0.63094625  0.36480704  1
  H+  H276  1  0.98596565  0.11133816  0.98916200  1
  H+  H277  1  0.73391492  0.85256688  0.49900844  1
  H+  H278  1  0.62977321  0.89049127  0.66044112  1
  H+  H279  1  0.38411104  0.35080934  0.17312167  1
  H+  H280  1  0.12633349  0.39707656  0.81439740  1
  H+  H281  1  0.56209181  0.90571895  0.69721136  1
  H+  H282  1  0.86080730  0.38185937  0.16467304  1
  H+  H283  1  0.99413977  0.58805127  0.65146811  1
  H+  H284  1  0.37187925  0.14419273  0.05009825  1
  H+  H285  1  0.11104753  0.38653629  0.66917057  1
  H+  H286  1  0.86709197  0.22730102  0.49651049  1
  H+  H287  1  0.02218439  0.88765071  0.68131682  1
  H+  H288  1  0.85353282  0.91661721  0.10457288  1
  H+  H289  1  0.92474729  0.08141133  0.23296771  1
  H+  H290  1  0.82474330  0.41278214  0.73639516  1
  H+  H291  1  0.91378867  0.34370749  0.55640039  1
  H+  H292  1  0.16981198  0.34199901  0.23789081  1
  H+  H293  1  0.19765156  0.38069271  0.94176351  1
  H+  H294  1  0.35327406  0.62223918  0.48707122  1
  H+  H295  1  0.63824030  0.73480548  0.16955901  1
  H+  H296  1  0.61931144  0.07860773  0.21951615  1
  H+  H297  1  0.26415064  0.38754824  0.66917139  1
  H+  H298  1  0.41522656  0.32612497  0.26123665  1
  H+  H299  1  0.38969893  0.31951779  0.55381927  1
  H+  H300  1  0.64742479  0.85584314  0.50533043  1
  H+  H301  1  0.34761707  0.42373722  0.11678882  1
  H+  H302  1  0.20788929  0.86893115  0.16852200  1
  H+  H303  1  0.23330608  0.63240731  0.17300825  1
  H+  H304  1  0.08086322  0.67005312  0.43279607  1
  H+  H305  1  0.40492131  0.57574950  0.88811309  1
  H+  H306  1  0.83656915  0.66131098  0.09502970  1
  H+  H307  1  0.68139405  0.09081202  0.90759353  1
  H+  H308  1  0.17176123  0.60006434  0.23949040  1
  H+  H309  1  0.84556362  0.91784158  0.74069521  1
  H+  H310  1  0.57622368  0.90404613  0.45656737  1
  H+  H311  1  0.72051898  0.13237402  0.26974138  1
  H+  H312  1  0.84850998  0.91506872  0.43695081  1
  H+  H313  1  0.77935490  0.74183113  0.73698222  1
  H+  H314  1  0.89715836  0.52967397  -0.00655571  1
  H+  H315  1  0.35549923  0.38318286  0.48343450  1
  H+  H316  1  0.66070893  0.32396813  0.56667631  1
  H+  H317  1  0.72176869  0.60914183  0.83426383  1
  H+  H318  1  0.08442627  0.67074366  0.06879436  1
  H+  H319  1  0.83615788  0.41970915  0.10712213  1
  H+  H320  1  0.32002432  0.66770085  0.09940275  1
  H+  H321  1  0.66375937  0.58917360  0.27545536  1
  H+  H322  1  0.32849711  0.67395079  0.40159018  1
  H+  H323  1  0.67173432  0.09857888  0.56821737  1
  H+  H324  1  0.39971223  0.28515341  0.99850874  1
  H+  H325  1  0.63590153  0.69992709  0.07930976  1
  H+  H326  1  0.85133704  0.15896852  0.41118365  1
  H+  H327  1  0.31885514  0.92533809  0.09580738  1
  H+  H328  1  0.16459867  0.84700321  0.94197970  1
  H+  H329  1  0.33120847  0.16959255  0.73208949  1
  H+  H330  1  0.38322701  0.06006649  0.54357246  1
  H+  H331  1  0.33332059  0.17425246  0.42490798  1
  H+  H332  1  0.92236758  0.08563114  0.93383333  1
  H+  H333  1  0.74190122  0.12390179  0.84771983  1
  H+  H334  1  0.88764239  0.61091187  0.16900902  1
  H+  H335  1  0.15982468  0.33093646  0.59831657  1
  H+  H336  1  0.64431959  0.37276652  1.00042543  1
  H+  H337  1  0.57462952  0.41290450  0.43432271  1
  H+  H338  1  0.60763047  0.18383008  0.78193013  1
  H+  H339  1  0.79455791  0.88167336  0.34630181  1
  H+  H340  1  0.91525652  0.59361702  0.26568030  1
  H+  H341  1  0.42233101  0.33727497  0.93510015  1
  H+  H342  1  0.08184956  0.16229526  0.72888473  1
  H+  H343  1  0.88273343  0.60769219  0.50653754  1
  H+  H344  1  0.09106459  0.16528631  0.40086830  1
  H+  H345  1  0.82140566  0.41902123  0.43085973  1
  H+  H346  1  0.67494492  0.82053793  0.59247888  1
  H+  H347  1  0.11993090  0.15210871  0.15971031  1
  H+  H348  1  0.61677036  0.90776746  0.81161417  1
  H+  H349  1  0.89967537  0.27963590  0.83673590  1
  H+  H350  1  0.08723097  0.42602691  0.76183353  1
  H+  H351  1  0.92546572  0.83414025  0.57052354  1
  H+  H352  1  0.91172664  0.07713160  0.60407635  1
  H+  H353  1  0.33672505  0.41597192  0.72167617  1
  H+  H354  1  0.93656569  0.55936209  0.59032040  1
  H+  H355  1  0.12166833  0.63069020  0.82585436  1
  H+  H356  1  0.65481560  0.53382823  0.99751762  1
  H+  H357  1  0.87596995  0.72561055  0.85129637  1
  H+  H358  1  0.52338099  0.14197539  0.00220071  1
  H+  H359  1  0.12718779  0.11569916  -0.00442207  1
  H+  H360  1  0.89544766  0.32256702  0.92792909  1
  H+  H361  1  0.41805053  0.09345966  0.26054048  1
  H+  H362  1  0.82825916  0.15436672  0.10263515  1
  H+  H363  1  0.37837779  0.11751924  0.16173963  1
  H+  H364  1  0.67855403  0.34930601  0.90739563  1
  H+  H365  1  0.33804996  0.67137113  0.75950176  1
  H+  H366  1  0.28930039  0.51849355  0.94592789  1
  H+  H367  1  0.56149799  0.91983602  0.09923423  1
  H+  H368  1  0.17364594  0.08818241  0.26570363  1
  H+  H369  1  0.38395362  0.83201221  0.22111461  1
  H+  H370  1  0.22116894  0.36278571  0.50127829  1
  H+  H371  1  0.60760597  0.42751294  0.75018106  1
  H+  H372  1  0.41727581  0.09585154  0.94066129  1
  H+  H373  1  0.59147752  0.17504231  0.43169642  1
  H+  H374  1  0.57262356  0.66486703  0.76027645  1
  H+  H375  1  0.66327515  0.33310360  0.26657046  1
  H+  H376  1  0.19807573  0.00572388  0.98777504  1
  H+  H377  1  0.35497257  0.94053707  0.76282660  1
  H+  H378  1  0.38198682  0.51576269  0.49163213  1
  H+  H379  1  0.57800044  0.17856371  0.09186969  1
  H+  H380  1  0.64266864  0.61531072  0.17841454  1
  H+  H381  1  0.69888708  0.82723360  0.24274832  1
  H+  H382  1  0.14951977  0.35138374  0.93869154  1
  H+  H383  1  0.32739061  0.41430237  0.42434559  1
  O2-  O384  1  0.09125735  0.18480599  0.14770368  1
  O2-  O385  1  0.08657459  0.16366559  0.48091987  1
  O2-  O386  1  0.09104626  0.16589775  0.80898213  1
  O2-  O387  1  0.07916141  0.41655613  0.14388317  1
  O2-  O388  1  0.07544009  0.41501583  0.47820545  1
  O2-  O389  1  0.09302330  0.42693684  0.80739948  1
  O2-  O390  1  0.08321698  0.66719718  0.15086698  1
  O2-  O391  1  0.08051504  0.66884684  0.47848346  1
  O2-  O392  1  0.08436719  0.65742052  0.81156328  1
  O2-  O393  1  0.01922729  0.85736403  0.15119065  1
  O2-  O394  1  0.09640320  0.91845162  0.48351156  1
  O2-  O395  1  0.07863842  0.92274824  0.82372454  1
  O2-  O396  1  0.32566577  0.15969324  0.12905570  1
  O2-  O397  1  0.33347687  0.17838455  0.47148386  1
  O2-  O398  1  0.34070140  0.17296101  0.80882706  1
  O2-  O399  1  0.34170891  0.40822505  0.16018176  1
  O2-  O400  1  0.32508233  0.41398103  0.47027956  1
  O2-  O401  1  0.34828514  0.41756077  0.79838595  1
  O2-  O402  1  0.32027133  0.67290076  0.14486080  1
  O2-  O403  1  0.32505465  0.65786145  0.48017243  1
  O2-  O404  1  0.33590674  0.67068676  0.80476466  1
  O2-  O405  1  0.31307592  0.92291417  0.14152424  1
  O2-  O406  1  0.32036633  0.88147133  0.51212798  1
  O2-  O407  1  0.36418637  0.94723089  0.80698715  1
  O2-  O408  1  0.57579892  0.17701627  0.13767853  1
  O2-  O409  1  0.58885712  0.17231321  0.47866300  1
  O2-  O410  1  0.60257068  0.18337462  0.82671289  1
  O2-  O411  1  0.58194318  0.41789557  0.14748198  1
  O2-  O412  1  0.57062974  0.40947120  0.47970748  1
  O2-  O413  1  0.57041550  0.40705427  0.82197312  1
  O2-  O414  1  0.60348713  0.67692703  0.14888766  1
  O2-  O415  1  0.57739500  0.65662626  0.44605059  1
  O2-  O416  1  0.57922724  0.66947706  0.80525598  1
  O2-  O417  1  0.56005476  0.93072784  0.14314812  1
  O2-  O418  1  0.59108685  0.92325125  0.49950221  1
  O2-  O419  1  0.58253031  0.93438643  0.80797578  1
  O2-  O420  1  0.82459182  0.15417007  0.14824690  1
  O2-  O421  1  0.83872675  0.16497872  0.48473204  1
  O2-  O422  1  0.84552825  0.17342339  0.81543982  1
  O2-  O423  1  0.83280103  0.41563572  0.15253003  1
  O2-  O424  1  0.81907297  0.41052953  0.47587174  1
  O2-  O425  1  0.83902102  0.42215711  0.81459100  1
  O2-  O426  1  0.83579894  0.65245491  0.13937476  1
  O2-  O427  1  0.83625983  0.66678656  0.47662444  1
  O2-  O428  1  0.84622342  0.67122877  0.82753410  1
  O2-  O429  1  0.86497584  0.91883180  0.14951430  1
  O2-  O430  1  0.84049276  0.91376035  0.48223345  1
  O2-  O431  1  0.85063840  0.91816353  0.82230677  1
  O2-  O432  1  0.16856640  0.09008513  0.18462183  1
  O2-  O433  1  0.17763458  0.08871918  0.51955099  1
  O2-  O434  1  0.18417809  0.09298803  0.85994494  1
  O2-  O435  1  0.17046723  0.34256965  0.19262216  1
  O2-  O436  1  0.16191976  0.33174981  0.51888437  1
  O2-  O437  1  0.18397171  0.34025948  0.82327362  1
  O2-  O438  1  0.17224027  0.60541559  0.19306027  1
  O2-  O439  1  0.15812788  0.58060663  0.52186545  1
  O2-  O440  1  0.17248429  0.59097210  0.84740792  1
  O2-  O441  1  0.15082586  0.83100349  0.18809668  1
  O2-  O442  1  0.16372982  0.82604141  0.52613868  1
  O2-  O443  1  0.15753126  0.83584334  0.86706851  1
  O2-  O444  1  0.40920144  0.08909405  0.18169601  1
  O2-  O445  1  0.38282279  0.03900371  0.50115091  1
  O2-  O446  1  0.42634405  0.09888432  0.85954933  1
  O2-  O447  1  0.41517639  0.31823527  0.18411874  1
  O2-  O448  1  0.40605701  0.32593155  0.50784682  1
  O2-  O449  1  0.39325836  0.32375731  0.86135979  1
  O2-  O450  1  0.44550026  0.62812779  0.19059079  1
  O2-  O451  1  0.41328586  0.57755662  0.50567922  1
  O2-  O452  1  0.41449534  0.58204627  0.84345788  1
  O2-  O453  1  0.39086285  0.83770919  0.17610083  1
  O2-  O454  1  0.35631915  0.87987920  0.57193093  1
  O2-  O455  1  0.42074150  0.83850351  0.85427864  1
  O2-  O456  1  0.64786311  0.08402998  0.18066411  1
  O2-  O457  1  0.66785425  0.09591984  0.52214644  1
  O2-  O458  1  0.68147964  0.09678799  0.86255815  1
  O2-  O459  1  0.66603359  0.33463008  0.19076784  1
  O2-  O460  1  0.65933397  0.31909871  0.52055218  1
  O2-  O461  1  0.67781069  0.34903311  0.86168662  1
  O2-  O462  1  0.66995223  0.58332070  0.19626369  1
  O2-  O463  1  0.74770353  0.63810683  0.49706107  1
  O2-  O464  1  0.66253455  0.58526780  0.81975399  1
  O2-  O465  1  0.69784749  0.82929798  0.19805457  1
  O2-  O466  1  0.67166882  0.81788653  0.51122242  1
  O2-  O467  1  0.68135177  0.84043659  0.83981679  1
  O2-  O468  1  0.92314433  0.08321438  0.18762693  1
  O2-  O469  1  0.92005094  0.07840136  0.52589622  1
  O2-  O470  1  0.92482809  0.08686971  0.85515655  1
  O2-  O471  1  0.90744104  0.32095770  0.18491080  1
  O2-  O472  1  0.90941798  0.33354703  0.51151529  1
  O2-  O473  1  0.92543721  0.33974300  0.85281269  1
  O2-  O474  1  0.92038590  0.58504723  0.18983043  1
  O2-  O475  1  0.91417969  0.57691271  0.51701740  1
  O2-  O476  1  0.93637282  0.58385753  0.85377818  1
  O2-  O477  1  1.00113335  0.91285179  0.19057454  1
  O2-  O478  1  0.92861410  0.83628338  0.52506833  1
  O2-  O479  1  0.92586206  0.82925917  0.88261437  1
  O2-  O480  1  0.17289576  0.08607812  0.31109782  1
  O2-  O481  1  0.15745087  0.07747422  0.64654789  1
  O2-  O482  1  0.19515364  0.05832049  0.99320772  1
  O2-  O483  1  0.17030222  0.33649581  0.31698869  1
  O2-  O484  1  0.15823096  0.33177252  0.64386120  1
  O2-  O485  1  0.17225817  0.31113938  1.04537218  1
  O2-  O486  1  0.16396894  0.58760541  0.31110333  1
  O2-  O487  1  0.16797375  0.58732514  0.64537343  1
  O2-  O488  1  0.16300217  0.58679456  0.97935471  1
  O2-  O489  1  0.16577244  0.83369976  0.31265655  1
  O2-  O490  1  0.15570519  0.82949023  0.65541069  1
  O2-  O491  1  0.17127154  0.85524226  0.98738626  1
  O2-  O492  1  0.41834001  0.09134250  0.30625007  1
  O2-  O493  1  0.38795053  0.08341315  0.61927735  1
  O2-  O494  1  0.41984284  0.09434222  0.98607824  1
  O2-  O495  1  0.41702600  0.33112462  0.30699123  1
  O2-  O496  1  0.34268891  0.29706737  0.61277054  1
  O2-  O497  1  0.42903666  0.34319103  0.98127413  1
  O2-  O498  1  0.41839754  0.58945692  0.31984257  1
  O2-  O499  1  0.41071683  0.57628877  0.63212730  1
  O2-  O500  1  0.34818097  0.54828934  0.96086588  1
  O2-  O501  1  0.38853523  0.82668623  0.30030759  1
  O2-  O502  1  0.40540830  0.76335323  0.58249914  1
  O2-  O503  1  0.40765582  0.83343361  0.97614859  1
  O2-  O504  1  0.69655333  0.11106424  0.31032787  1
  O2-  O505  1  0.67833525  0.09808735  0.64407586  1
  O2-  O506  1  0.67080876  0.08021069  0.98732337  1
  O2-  O507  1  0.66292399  0.33383359  0.31263742  1
  O2-  O508  1  0.66106139  0.33097815  0.64244343  1
  O2-  O509  1  0.67711059  0.34447688  0.98472436  1
  O2-  O510  1  0.66423598  0.58995862  0.32130121  1
  O2-  O511  1  0.66621384  0.58206087  0.66585457  1
  O2-  O512  1  0.68765929  0.59229611  0.97987198  1
  O2-  O513  1  0.68791251  0.82216113  0.32860234  1
  O2-  O514  1  0.66917031  0.82091951  0.63780142  1
  O2-  O515  1  0.67689319  0.84179484  0.96438623  1
  O2-  O516  1  0.93127795  0.07417400  0.31244529  1
  O2-  O517  1  0.91053784  0.08018734  0.64966900  1
  O2-  O518  1  0.92463239  0.08747915  0.97937303  1
  O2-  O519  1  0.92297634  0.30760968  0.31139242  1
  O2-  O520  1  0.93464993  0.38173224  0.63075689  1
  O2-  O521  1  0.86168446  0.30410377  0.96690904  1
  O2-  O522  1  0.91556699  0.59566551  0.31163455  1
  O2-  O523  1  0.94912132  0.53821679  0.62884653  1
  O2-  O524  1  0.92932081  0.58700421  0.97311912  1
  O2-  O525  1  0.93626125  0.83808033  0.30873579  1
  O2-  O526  1  0.92305364  0.83915923  0.64928402  1
  O2-  O527  1  0.93629417  0.83386552  0.94921965  1
  O2-  O528  1  0.10408583  0.15287834  -0.01668539  1
  O2-  O529  1  0.09244651  0.16870766  0.35545658  1
  O2-  O530  1  0.07768437  0.16369711  0.68370832  1
  O2-  O531  1  0.10001246  0.43226947  0.02505371  1
  O2-  O532  1  0.08595269  0.42070499  0.35474892  1
  O2-  O533  1  0.08624568  0.42207596  0.68521736  1
  O2-  O534  1  0.08595376  0.67540182  0.02368726  1
  O2-  O535  1  0.08235425  0.66985765  0.35395391  1
  O2-  O536  1  0.08808096  0.66561191  0.69521573  1
  O2-  O537  1  0.03170594  0.93953507  0.04832970  1
  O2-  O538  1  0.09452415  0.92284565  0.36008021  1
  O2-  O539  1  0.08214532  0.91693808  0.69801040  1
  O2-  O540  1  0.33313140  0.16652898  0.06048023  1
  O2-  O541  1  0.33769157  0.17301607  0.35332521  1
  O2-  O542  1  0.31942617  0.16584790  0.68707634  1
  O2-  O543  1  0.34298264  0.42431380  0.02922703  1
  O2-  O544  1  0.33708869  0.41744559  0.34858667  1
  O2-  O545  1  0.32740741  0.41722218  0.67679327  1
  O2-  O546  1  0.32297124  0.66965781  0.02122902  1
  O2-  O547  1  0.32746057  0.67041142  0.35618202  1
  O2-  O548  1  0.33478710  0.66192797  0.67640633  1
  O2-  O549  1  0.33224560  0.92707132  0.02034906  1
  O2-  O550  1  0.33390417  0.91981956  0.34640887  1
  O2-  O551  1  0.32474162  0.93735614  0.67932550  1
  O2-  O552  1  0.58544602  0.17402144  0.01608302  1
  O2-  O553  1  0.59078832  0.17677118  0.35963802  1
  O2-  O554  1  0.59964834  0.17231624  0.69918797  1
  O2-  O555  1  0.59535777  0.42393132  0.02428668  1
  O2-  O556  1  0.57951123  0.41929725  0.35448368  1
  O2-  O557  1  0.64403824  0.45033563  0.71264650  1
  O2-  O558  1  0.66680618  0.71778080  0.03842134  1
  O2-  O559  1  0.58240569  0.66511312  0.37892479  1
  O2-  O560  1  0.57106290  0.65319831  0.67867704  1
  O2-  O561  1  0.55677473  0.87662192  0.02348418  1
  O2-  O562  1  0.56578419  0.86194678  0.38329478  1
  O2-  O563  1  0.61101850  0.93256522  0.66923682  1
  O2-  O564  1  0.83492376  0.15775221  0.02529109  1
  O2-  O565  1  0.85475312  0.15597438  0.36534230  1
  O2-  O566  1  0.84213426  0.17247389  0.68791088  1
  O2-  O567  1  0.83931020  0.42845972  0.02791634  1
  O2-  O568  1  0.82934879  0.44051359  0.35280012  1
  O2-  O569  1  0.81927223  0.40609479  0.69107842  1
  O2-  O570  1  0.85172785  0.68160350  0.00662438  1
  O2-  O571  1  0.83382728  0.67567119  0.35397587  1
  O2-  O572  1  0.80304695  0.70757063  0.72061595  1
  O2-  O573  1  0.83445401  0.92145990  0.02929845  1
  O2-  O574  1  0.85595411  0.91423931  0.35937377  1
  O2-  O575  1  0.83797341  0.91492380  0.69558736  1
