# generated using pymatgen
data_H2O
_symmetry_space_group_name_H-M   'P 1'
_cell_length_a   17.95616653
_cell_length_b   17.96547838
_cell_length_c   21.96007205
_cell_angle_alpha   89.95254488
_cell_angle_beta   90.04994948
_cell_angle_gamma   119.98420353
_symmetry_Int_Tables_number   1
_chemical_formula_structural   H2O
_chemical_formula_sum   'H384 O192'
_cell_volume   6136.00493801
_cell_formula_units_Z   192
loop_
 _symmetry_equiv_pos_site_id
 _symmetry_equiv_pos_as_xyz
  1  'x, y, z'
loop_
 _atom_type_symbol
 _atom_type_oxidation_number
  H+  1.0
  O2-  -2.0
loop_
 _atom_site_type_symbol
 _atom_site_label
 _atom_site_symmetry_multiplicity
 _atom_site_fract_x
 _atom_site_fract_y
 _atom_site_fract_z
 _atom_site_occupancy
  H+  H0  1  0.87906306  0.82076422  0.24397183  1
  H+  H1  1  0.99212171  0.88251167  0.84226455  1
  H+  H2  1  0.71241840  0.84894740  0.65648879  1
  H+  H3  1  0.52398832  0.41604645  0.32545332  1
  H+  H4  1  0.61332435  0.14926915  0.81800740  1
  H+  H5  1  0.58933600  0.61448313  0.34063822  1
  H+  H6  1  0.13610424  0.12101669  0.97652534  1
  H+  H7  1  0.85485449  0.26429145  0.97600901  1
  H+  H8  1  0.24347510  0.12166195  0.83476817  1
  H+  H9  1  0.98866916  0.37915008  0.18225743  1
  H+  H10  1  0.10855933  0.74178357  0.16822664  1
  H+  H11  1  0.70601116  0.03311574  0.75163221  1
  H+  H12  1  0.90192031  0.56050023  0.51263363  1
  H+  H13  1  0.66757877  0.07307931  0.57022469  1
  H+  H14  1  0.60646383  0.61693563  0.65188615  1
  H+  H15  1  0.25184696  0.35999760  0.15958426  1
  H+  H16  1  0.64309370  0.24618362  0.66057747  1
  H+  H17  1  0.25543169  0.37674894  0.99779537  1
  H+  H18  1  0.90098492  0.10079141  0.81347846  1
  H+  H19  1  0.85025336  0.86216575  0.33659795  1
  H+  H20  1  0.27664054  0.64191359  0.83221967  1
  H+  H21  1  0.84770297  -0.02960023  0.67876145  1
  H+  H22  1  0.88935923  0.43208283  0.51785528  1
  H+  H23  1  0.39745991  0.37935976  0.83837363  1
  H+  H24  1  0.36230928  0.73586372  0.33667519  1
  H+  H25  1  0.97353006  0.62180478  1.00273689  1
  H+  H26  1  0.14840339  0.11064956  0.83483596  1
  H+  H27  1  1.02393485  0.38045693  0.78574337  1
  H+  H28  1  0.98151438  0.63889987  0.33635761  1
  H+  H29  1  0.94641003  0.67944950  0.65395258  1
  H+  H30  1  0.38415828  0.37755059  0.33005062  1
  H+  H31  1  0.11638003  0.21830370  0.82650466  1
  H+  H32  1  0.94839768  0.03473047  0.53176728  1
  H+  H33  1  0.27215997  0.14760848  0.99310687  1
  H+  H34  1  0.46862167  0.12098711  -0.01017114  1
  H+  H35  1  0.55419615  0.04977198  0.81453358  1
  H+  H36  1  0.89088051  0.79859343  0.65251053  1
  H+  H37  1  0.37864054  1.01311489  0.64614042  1
  H+  H38  1  0.27474616  0.89531693  0.49003755  1
  H+  H39  1  0.09452187  0.78066022  0.63790405  1
  H+  H40  1  0.09115472  0.41857423  0.28892050  1
  H+  H41  1  0.36157725  0.88896146  0.49063090  1
  H+  H42  1  0.37764541  0.24697371  0.82799616  1
  H+  H43  1  0.90295608  0.64760226  0.49494862  1
  H+  H44  1  0.36194242  0.23247810  0.49118685  1
  H+  H45  1  0.99087952  0.87909819  0.18696242  1
  H+  H46  1  0.15265022  0.39322032  0.34632994  1
  H+  H47  1  0.51587987  0.12654792  0.33563961  1
  H+  H48  1  0.89060686  0.24865805  0.15497267  1
  H+  H49  1  0.93218122  0.34892534  0.95007562  1
  H+  H50  1  0.03359290  0.89689691  0.35164201  1
  H+  H51  1  0.61990021  0.72138919  0.16149644  1
  H+  H52  1  0.12747235  0.56743913  0.65640079  1
  H+  H53  1  0.48285796  0.87033287  0.31955621  1
  H+  H54  1  0.87418273  0.51804264  0.83319110  1
  H+  H55  1  0.13163961  0.48386666  0.63535345  1
  H+  H56  1  0.23708599  0.88229069  0.32932678  1
  H+  H57  1  0.45507188  0.35308416  0.17732588  1
  H+  H58  1  0.51904507  0.87867296  0.67127941  1
  H+  H59  1  0.64444602  0.14575413  0.48130887  1
  H+  H60  1  0.72957896  0.85754127  0.17306469  1
  H+  H61  1  0.87868809  0.42795272  0.81326524  1
  H+  H62  1  0.13495149  0.53768940  0.85776295  1
  H+  H63  1  0.01954475  0.65126751  0.16786324  1
  H+  H64  1  0.91303387  0.60503752  0.28269971  1
  H+  H65  1  0.12158076  0.74242910  0.34047153  1
  H+  H66  1  0.78215583  0.64380788  0.47291313  1
  H+  H67  1  0.14845604  0.38458982  0.20316675  1
  H+  H68  1  0.83316535  0.95440327  0.82764904  1
  H+  H69  1  0.38321748  0.62341373  0.32622199  1
  H+  H70  1  0.10352756  0.19802816  0.45003427  1
  H+  H71  1  0.98672165  0.37560060  0.33082170  1
  H+  H72  1  0.62954249  0.14601623  0.33652638  1
  H+  H73  1  0.38751270  0.37109407  0.66899589  1
  H+  H74  1  0.87789348  0.75494314  0.83776224  1
  H+  H75  1  0.63053127  0.85357605  -0.00006398  1
  H+  H76  1  0.72453537  0.10948164  0.63774647  1
  H+  H77  1  0.01474384  0.12457908  0.68260482  1
  H+  H78  1  0.92302655  0.13650327  0.15760199  1
  H+  H79  1  0.39249954  0.10769261  0.64391519  1
  H+  H80  1  0.84677572  0.62266106  0.00960919  1
  H+  H81  1  0.77487327  0.37086307  0.37085631  1
  H+  H82  1  0.38160871  0.77314489  0.50210526  1
  H+  H83  1  0.47144450  0.86122430  0.49958297  1
  H+  H84  1  0.56092768  0.90521361  0.19388820  1
  H+  H85  1  0.12587418  0.00014556  0.49965190  1
  H+  H86  1  0.60579763  0.23166351  1.00262690  1
  H+  H87  1  0.62361423  0.97581390  0.33541446  1
  H+  H88  1  0.48580697  0.10284480  0.17605198  1
  H+  H89  1  0.34675328  0.74182060  0.16116229  1
  H+  H90  1  0.15357634  0.54358575  1.01152785  1
  H+  H91  1  0.24835071  0.64758575  0.16929327  1
  H+  H92  1  0.05685891  0.65177112  0.67155767  1
  H+  H93  1  0.68764310  0.01472217  0.18198753  1
  H+  H94  1  0.88849493  0.88264068  0.66276499  1
  H+  H95  1  0.62225469  0.84566296  0.65736793  1
  H+  H96  1  0.87515522  0.20860091  0.48410224  1
  H+  H97  1  0.12291148  0.49997997  0.18331448  1
  H+  H98  1  0.73967218  0.11910550  0.33343237  1
  H+  H99  1  0.69093214  0.37523134  0.25153553  1
  H+  H100  1  0.64699397  0.23618605  0.48860520  1
  H+  H101  1  0.36338498  0.89367172  0.00447139  1
  H+  H102  1  0.37419636  0.25762305  0.18199670  1
  H+  H103  1  0.31893051  0.92408975  0.09899276  1
  H+  H104  1  0.25955534  0.89731137  0.16026267  1
  H+  H105  1  0.62454450  0.09639362  0.63988225  1
  H+  H106  1  0.35995499  0.47890412  0.45321489  1
  H+  H107  1  0.64407145  0.01152827  0.49381924  1
  H+  H108  1  0.03426532  0.66288474  0.49081293  1
  H+  H109  1  0.66668850  0.81750709  0.23272562  1
  H+  H110  1  0.61402527  0.50992886  0.16913451  1
  H+  H111  1  0.14421054  0.29330060  0.21046401  1
  H+  H112  1  0.88726051  0.76127517  0.35367935  1
  H+  H113  1  0.98701852  0.32815406  0.61586196  1
  H+  H114  1  0.39177234  0.12237283  0.83560550  1
  H+  H115  1  0.35979960  0.98157824  0.00195907  1
  H+  H116  1  0.05687614  0.15987322  0.16509243  1
  H+  H117  1  0.37482915  0.36387803  0.99738859  1
  H+  H118  1  0.36292379  0.47680733  0.82023215  1
  H+  H119  1  0.69905151  0.58489008  0.99579802  1
  H+  H120  1  0.58908962  0.37963612  0.75487638  1
  H+  H121  1  0.76495827  0.72335724  0.70220858  1
  H+  H122  1  0.37726304  0.61030300  0.84369329  1
  H+  H123  1  0.62589690  0.75788475  0.32093678  1
  H+  H124  1  0.03002434  0.92587524  0.49942404  1
  H+  H125  1  0.39055143  0.02364890  0.18044032  1
  H+  H126  1  0.17135113  0.09242151  0.28459533  1
  H+  H127  1  0.51796507  0.88076776  0.01304402  1
  H+  H128  1  0.62771561  0.53796654  0.27183180  1
  H+  H129  1  0.76396632  0.13793636  0.02058337  1
  H+  H130  1  0.88337161  0.12469825  0.49684156  1
  H+  H131  1  0.14958680  0.87752277  0.98625406  1
  H+  H132  1  0.61039451  0.72133290  0.84791654  1
  H+  H133  1  0.64927250  0.81684312  0.56317790  1
  H+  H134  1  0.25985666  0.35243616  0.63693245  1
  H+  H135  1  0.23901798  0.12737922  0.50928068  1
  H+  H136  1  0.28034676  0.38386350  0.81209229  1
  H+  H137  1  1.00925873  0.13522957  0.52427392  1
  H+  H138  1  0.14078900  0.40585951  0.03386059  1
  H+  H139  1  0.27337554  0.65015280  1.01320523  1
  H+  H140  1  0.14140522  0.79274898  0.50249987  1
  H+  H141  1  0.32138996  0.33266654  0.14890211  1
  H+  H142  1  0.87358254  0.99150486  0.15773053  1
  H+  H143  1  0.85762450  0.20841816  0.63208978  1
  H+  H144  1  0.34753715  0.58502018  0.68398777  1
  H+  H145  1  0.85960303  0.88190525  0.83166048  1
  H+  H146  1  0.87481623  0.23092613  0.34299083  1
  H+  H147  1  0.74494994  0.37380652  0.51986203  1
  H+  H148  1  0.35808471  0.64112836  0.01635182  1
  H+  H149  1  0.27665029  0.12494834  0.17905300  1
  H+  H150  1  0.62542445  0.46974345  0.50723902  1
  H+  H151  1  0.23076175  0.47085387  0.05705355  1
  H+  H152  1  0.13650821  0.53093636  0.32238139  1
  H+  H153  1  0.13610052  0.16215314  0.50430587  1
  H+  H154  1  0.39466241  0.37040635  0.48473394  1
  H+  H155  1  0.14831982  0.11846640  0.19583736  1
  H+  H156  1  0.14535754  0.04001029  0.34675060  1
  H+  H157  1  0.86957474  0.32499562  0.66672091  1
  H+  H158  1  0.40946576  1.02951479  0.33568677  1
  H+  H159  1  0.50255388  0.62620032  0.84143904  1
  H+  H160  1  0.33645373  0.62382337  0.49086852  1
  H+  H161  1  0.61001299  0.39488251  0.17196373  1
  H+  H162  1  0.98562008  0.63589673  0.84242928  1
  H+  H163  1  0.03586139  0.13012219  0.85001539  1
  H+  H164  1  0.64435811  0.37959494  0.33749247  1
  H+  H165  1  -0.00123561  0.12645633  -0.01848917  1
  H+  H166  1  0.87264186  0.32626331  0.45694945  1
  H+  H167  1  0.96913642  0.65827871  0.58867117  1
  H+  H168  1  0.88033948  0.33626774  0.76759963  1
  H+  H169  1  0.12740233  0.25158928  0.35859607  1
  H+  H170  1  0.83579865  0.71998767  0.16681192  1
  H+  H171  1  0.74265992  0.86866188  0.48613409  1
  H+  H172  1  0.53360510  0.46626796  0.86426560  1
  H+  H173  1  0.36538961  0.14384701  0.99359992  1
  H+  H174  1  0.60468342  0.87579971  0.48811306  1
  H+  H175  1  0.25760392  0.58044037  0.68176270  1
  H+  H176  1  0.29573144  0.38256797  0.06481413  1
  H+  H177  1  0.38487116  0.77885178  0.99746674  1
  H+  H178  1  0.51583977  0.10946280  0.65828051  1
  H+  H179  1  0.61298340  0.61775016  0.16408462  1
  H+  H180  1  0.88833354  0.90743927  0.50592269  1
  H+  H181  1  0.72744073  0.60433191  0.65421339  1
  H+  H182  1  0.73560561  0.16124973  0.82196711  1
  H+  H183  1  0.15610825  0.69920632  0.68157811  1
  H+  H184  1  0.87691324  0.10546091  0.66365163  1
  H+  H185  1  0.38373453  1.03054765  0.48924479  1
  H+  H186  1  0.60883622  -0.04167201  0.65721878  1
  H+  H187  1  0.13830911  0.88157204  0.50425792  1
  H+  H188  1  0.64859772  0.35450318  0.52453825  1
  H+  H189  1  0.41238709  0.83314982  0.93545939  1
  H+  H190  1  1.09724402  0.48007519  0.47368428  1
  H+  H191  1  0.38409935  0.53542304  0.33362810  1
  H+  H192  1  0.89236008  0.53567132  0.17710738  1
  H+  H193  1  0.35799072  0.97825520  0.82257315  1
  H+  H194  1  0.62327866  0.50005133  0.83735910  1
  H+  H195  1  0.36850789  0.14317003  0.48548408  1
  H+  H196  1  0.13072578  0.35371038  0.62932317  1
  H+  H197  1  0.37163643  0.89808021  0.33827055  1
  H+  H198  1  0.64988093  0.34771988  0.83291370  1
  H+  H199  1  0.81918589  0.69351274  0.00194254  1
  H+  H200  1  0.46535342  0.36231660  1.00112710  1
  H+  H201  1  0.13738359  1.03338031  0.66289811  1
  H+  H202  1  0.52295639  0.61452429  0.49096437  1
  H+  H203  1  0.78185420  0.41515590  0.83265979  1
  H+  H204  1  0.18717213  0.29333546  0.52741890  1
  H+  H205  1  1.01244313  0.90546381  1.00031593  1
  H+  H206  1  0.42133855  0.34902768  0.90203282  1
  H+  H207  1  0.85918310  0.48020726  1.00742753  1
  H+  H208  1  0.84707875  0.38611539  -0.00037613  1
  H+  H209  1  0.38372815  0.86177885  0.65649058  1
  H+  H210  1  0.81404030  0.15091124  0.15670988  1
  H+  H211  1  0.23253998  0.86786142  0.98429990  1
  H+  H212  1  0.52766234  0.35018223  0.81436891  1
  H+  H213  1  0.26899618  0.15352233  0.34500123  1
  H+  H214  1  0.14426345  1.00713145  -0.00233362  1
  H+  H215  1  0.26275789  0.12870093  0.67612676  1
  H+  H216  1  0.46037646  0.60633688  0.00197412  1
  H+  H217  1  0.60026532  0.13944500  0.01046858  1
  H+  H218  1  0.39369743  0.50336780  0.64718104  1
  H+  H219  1  0.12281691  0.87047193  0.18508915  1
  H+  H220  1  0.91923612  0.33909703  0.27634339  1
  H+  H221  1  0.08910875  0.91948065  0.76352309  1
  H+  H222  1  0.51067639  0.63240078  0.33848754  1
  H+  H223  1  0.63119612  0.18679658  0.15621679  1
  H+  H224  1  0.72061114  0.36843491  -0.00108650  1
  H+  H225  1  0.50659977  0.90925199  0.84658033  1
  H+  H226  1  0.11112262  0.73348209  0.01164620  1
  H+  H227  1  0.70706901  0.60124480  0.17477020  1
  H+  H228  1  0.61617100  0.88206287  0.33069805  1
  H+  H229  1  0.11801554  0.64923015  0.83768797  1
  H+  H230  1  0.64009481  0.09097366  1.07854503  1
  H+  H231  1  0.10919184  0.89653784  0.67003540  1
  H+  H232  1  0.87948163  0.61755206  0.17847764  1
  H+  H233  1  0.14821671  0.88285763  0.33569036  1
  H+  H234  1  0.27817230  0.40418929  0.36451193  1
  H+  H235  1  0.25701221  0.88274436  0.66695913  1
  H+  H236  1  0.37482272  0.85728161  0.83644128  1
  H+  H237  1  0.13594391  0.12137924  0.66709539  1
  H+  H238  1  0.13348977  0.63445243  0.18217899  1
  H+  H239  1  0.13029123  -0.01830278  0.82286188  1
  H+  H240  1  0.13328618  0.62245653  0.00834409  1
  H+  H241  1  0.12951730  0.77191861  0.83771147  1
  H+  H242  1  0.21586822  0.61581190  0.49598567  1
  H+  H243  1  0.72112921  0.85670407  -0.00125755  1
  H+  H244  1  0.99703179  0.13701129  0.31744324  1
  H+  H245  1  0.78885229  0.66739890  0.84184708  1
  H+  H246  1  0.62187779  0.87321497  0.16807783  1
  H+  H247  1  0.54752025  0.36712639  0.66137086  1
  H+  H248  1  0.93126314  0.81628410  1.00722795  1
  H+  H249  1  0.86313959  0.37051557  0.36216389  1
  H+  H250  1  0.61967859  0.75609188  0.50342897  1
  H+  H251  1  0.38537041  0.77332598  0.83514074  1
  H+  H252  1  0.85138018  -0.01820869  1.00034821  1
  H+  H253  1  0.89776445  0.37453520  0.17610487  1
  H+  H254  1  0.58362019  0.60845467  0.84093365  1
  H+  H255  1  0.36349538  0.25229493  0.34090804  1
  H+  H256  1  0.44461359  0.58106553  0.16940736  1
  H+  H257  1  0.46915108  0.10108301  0.83327434  1
  H+  H258  1  0.36556795  0.24180132  -0.00247773  1
  H+  H259  1  0.45114392  0.86869324  0.15192862  1
  H+  H260  1  0.64780218  0.60700012  0.49579630  1
  H+  H261  1  0.11761096  0.45111538  0.76526480  1
  H+  H262  1  0.74244702  0.09657986  0.49908804  1
  H+  H263  1  0.14288009  0.96019846  0.05915018  1
  H+  H264  1  0.09857271  0.33677549  0.95083651  1
  H+  H265  1  0.80204357  0.05766159  0.82594574  1
  H+  H266  1  0.40360538  0.25362530  0.65247282  1
  H+  H267  1  0.71483554  0.83114762  0.84668215  1
  H+  H268  1  0.12645151  1.02033349  0.19761646  1
  H+  H269  1  0.11281860  0.26063341  0.97139731  1
  H+  H270  1  0.59196729  0.45850645  0.01533763  1
  H+  H271  1  0.65186850  0.50725842  0.64775724  1
  H+  H272  1  0.86291399  0.86301421  0.18320856  1
  H+  H273  1  0.13720447  0.34767477  0.81124862  1
  H+  H274  1  0.81180405  -0.03605131  0.46898701  1
  H+  H275  1  0.73315444  0.46553180  0.22220851  1
  H+  H276  1  0.53471316  0.38438944  0.50740475  1
  H+  H277  1  0.86969438  0.90453748  1.00695574  1
  H+  H278  1  0.28864776  0.48206738  0.53075735  1
  H+  H279  1  0.27131567  0.64781966  0.33671974  1
  H+  H280  1  0.02302872  0.90244589  0.67587606  1
  H+  H281  1  0.12835278  0.87004513  0.83462072  1
  H+  H282  1  0.11865722  0.65314815  0.49209671  1
  H+  H283  1  0.36663529  0.87300661  0.16605785  1
  H+  H284  1  0.63934852  0.28767691  0.33416880  1
  H+  H285  1  0.36949461  0.13453143  0.17533073  1
  H+  H286  1  0.62590963  0.01858432  1.03087405  1
  H+  H287  1  0.90638018  0.12946159  0.31201462  1
  H+  H288  1  0.04306135  0.91564956  0.12752691  1
  H+  H289  1  0.68656810  0.58378600  0.55327817  1
  H+  H290  1  0.08050520  0.68058291  0.07480351  1
  H+  H291  1  0.57287972  -0.02413346  0.89362051  1
  H+  H292  1  0.60512849  0.70501365  0.65721514  1
  H+  H293  1  0.57667150  0.16053303  0.09550229  1
  H+  H294  1  0.81621674  0.90335614  0.73515334  1
  H+  H295  1  0.15989402  0.84885450  0.59202980  1
  H+  H296  1  0.40132502  0.33815660  0.26783389  1
  H+  H297  1  0.37525809  0.54902518  0.56090151  1
  H+  H298  1  0.41931983  0.08872800  0.54706153  1
  H+  H299  1  0.94580098  0.10502099  0.21972716  1
  H+  H300  1  0.82164527  0.69745961  0.74050149  1
  H+  H301  1  0.65764253  0.01024775  0.81414451  1
  H+  H302  1  0.94824058  0.77488863  0.30047412  1
  H+  H303  1  0.08407724  0.36339989  0.68797110  1
  H+  H304  1  0.32678702  0.66898006  0.43043278  1
  H+  H305  1  0.60459610  0.71720144  1.01149324  1
  H+  H306  1  0.09296600  0.68503199  0.40049680  1
  H+  H307  1  0.68783887  0.08801522  0.27276468  1
  H+  H308  1  0.84859625  0.43446457  0.45519732  1
  H+  H309  1  0.41085035  0.08834412  0.92886436  1
  H+  H310  1  0.57329494  0.89774275  0.07478510  1
  H+  H311  1  0.69747662  0.29113262  0.84605810  1
  H+  H312  1  0.81341764  0.19923488  0.69291436  1
  H+  H313  1  0.92171373  0.08121482  0.61058950  1
  H+  H314  1  0.81264117  0.89265675  0.38929018  1
  H+  H315  1  0.19083829  0.36014556  0.29620527  1
  H+  H316  1  0.65807115  0.80916793  0.90939604  1
  H+  H317  1  0.91907611  0.31495374  0.56260758  1
  H+  H318  1  0.34102529  0.92595282  0.39930823  1
  H+  H319  1  0.63733801  0.36923993  0.66818557  1
  H+  H320  1  0.57482800  0.65275410  0.42930887  1
  H+  H321  1  0.17793545  0.09342153  0.92096389  1
  H+  H322  1  0.83825947  0.42373628  0.10367647  1
  H+  H323  1  0.92063343  0.59751454  0.94026050  1
  H+  H324  1  0.59547189  0.37191367  0.01075962  1
  H+  H325  1  0.39008243  0.56289556  0.22702609  1
  H+  H326  1  0.88749230  0.32105836  0.83895472  1
  H+  H327  1  0.78940504  0.40737038  0.16766859  1
  H+  H328  1  0.77978656  0.31498892  0.68696424  1
  H+  H329  1  0.32483779  0.64249707  0.77090489  1
  H+  H330  1  0.76922416  0.04775566  0.22353623  1
  H+  H331  1  0.33813245  0.18657436  0.40488042  1
  H+  H332  1  0.31993991  0.91512255  0.72475725  1
  H+  H333  1  0.83384011  0.92785692  0.10111151  1
  H+  H334  1  0.35100558  0.40533925  0.72262072  1
  H+  H335  1  0.32991685  0.33016072  0.53668327  1
  H+  H336  1  0.56925165  0.40166458  0.10776302  1
  H+  H337  1  0.84874647  0.15867841  0.39523549  1
  H+  H338  1  0.42737845  0.31642516  0.59605612  1
  H+  H339  1  0.16160842  0.83711072  0.90169571  1
  H+  H340  1  0.13757348  0.62477292  0.32997258  1
  H+  H341  1  0.63004028  0.54890265  0.94010339  1
  H+  H342  1  0.58326551  0.91037472  0.42653269  1
  H+  H343  1  0.11991760  0.44370724  0.12788999  1
  H+  H344  1  0.59608868  0.62314619  0.01002038  1
  H+  H345  1  0.47420725  0.59700598  0.64319258  1
  H+  H346  1  0.27008511  0.88993553  0.82285018  1
  H+  H347  1  0.84834939  0.18550309  0.06007535  1
  H+  H348  1  0.07922627  0.42818376  0.41180398  1
  H+  H349  1  0.67005166  0.34048369  0.93612392  1
  H+  H350  1  0.86909975  0.11635058  0.98396619  1
  H+  H351  1  0.16771039  0.84956967  0.23996007  1
  H+  H352  1  0.81180450  0.65945635  0.10720761  1
  H+  H353  1  0.16946906  0.60753320  0.24447243  1
  H+  H354  1  0.09118576  0.93332800  0.41138601  1
  H+  H355  1  0.34537575  0.18645847  0.76809791  1
  H+  H356  1  0.16777716  0.33116165  0.87608907  1
  H+  H357  1  0.39961105  0.57490706  0.90479701  1
  H+  H358  1  0.12529259  0.16133397  0.35609496  1
  H+  H359  1  0.15685133  0.57415694  0.55428836  1
  H+  H360  1  0.86005567  0.64145699  0.37569115  1
  H+  H361  1  0.93076101  0.90105206  0.56881720  1
  H+  H362  1  0.16768667  0.59845731  0.91485994  1
  H+  H363  1  0.05856417  0.15438609  0.03936317  1
  H+  H364  1  0.56930973  0.11890101  0.71975928  1
  H+  H365  1  0.15717741  0.22387381  0.14190749  1
  H+  H366  1  0.88138046  0.07793939  0.92098957  1
  H+  H367  1  0.60501552  0.17665569  0.40013463  1
  H+  H368  1  0.44294245  0.08803191  0.27277788  1
  H+  H369  1  0.58120905  0.65870908  0.09962814  1
  H+  H370  1  0.41613572  0.83435802  0.59907967  1
  H+  H371  1  0.69009162  0.31432130  0.60735237  1
  H+  H372  1  0.89865794  0.64265323  0.84496768  1
  H+  H373  1  0.07200654  0.14594554  0.74180932  1
  H+  H374  1  0.30942106  0.08665550  0.71057789  1
  H+  H375  1  0.41821617  0.84516809  0.26256022  1
  H+  H376  1  0.09388158  0.67003406  0.77170901  1
  H+  H377  1  0.18122156  0.10205023  0.57120677  1
  H+  H378  1  0.71935722  0.84328207  0.31991043  1
  H+  H379  1  0.36988596  0.51921737  1.00232392  1
  H+  H380  1  0.31747786  0.67259342  0.10379749  1
  H+  H381  1  0.97374498  0.36018149  0.47086112  1
  H+  H382  1  0.94136607  0.86149701  0.90604271  1
  H+  H383  1  0.74429540  0.20352201  0.88596812  1
  O2-  O384  1  0.11961151  0.19034832  0.17585957  1
  O2-  O385  1  0.11006514  0.19917479  0.49546858  1
  O2-  O386  1  0.08601175  0.15333401  0.82351617  1
  O2-  O387  1  0.10034022  0.43887358  0.17055066  1
  O2-  O388  1  0.06824903  0.42127536  0.45606121  1
  O2-  O389  1  0.08061710  0.38942119  0.77185624  1
  O2-  O390  1  0.08027655  0.68162751  0.15191146  1
  O2-  O391  1  0.09566835  0.69086311  0.47721903  1
  O2-  O392  1  0.08982728  0.67880159  0.81674390  1
  O2-  O393  1  0.05160095  0.91161338  0.17095983  1
  O2-  O394  1  0.08841924  0.93914638  0.48550217  1
  O2-  O395  1  0.09392221  0.91953949  0.81031420  1
  O2-  O396  1  0.33456614  0.15951805  0.16085023  1
  O2-  O397  1  0.33573132  0.17443260  0.47211139  1
  O2-  O398  1  0.34765630  0.18632042  0.81345444  1
  O2-  O399  1  0.27281619  0.33510167  0.12802495  1
  O2-  O400  1  0.36744022  0.43354787  0.43277799  1
  O2-  O401  1  0.34310720  0.41814980  0.80349685  1
  O2-  O402  1  0.31291769  0.67862585  0.14973310  1
  O2-  O403  1  0.32153351  0.66704900  0.47593970  1
  O2-  O404  1  0.33457192  0.66571998  0.81446624  1
  O2-  O405  1  0.32015085  0.92390886  0.14436322  1
  O2-  O406  1  0.33420139  0.92114485  0.47308267  1
  O2-  O407  1  0.32908996  0.91785409  0.80684080  1
  O2-  O408  1  0.58532503  0.13756839  0.13488355  1
  O2-  O409  1  0.62060707  0.18084238  0.46560342  1
  O2-  O410  1  0.55892637  0.10469021  0.79983346  1
  O2-  O411  1  0.57009804  0.41140774  0.15268078  1
  O2-  O412  1  0.59511576  0.40729741  0.51714802  1
  O2-  O413  1  0.58749770  0.37459363  0.80081011  1
  O2-  O414  1  0.58634751  0.65937618  0.14624964  1
  O2-  O415  1  0.58066501  0.65253243  0.47526852  1
  O2-  O416  1  0.56643325  0.65183080  0.83021823  1
  O2-  O417  1  0.59782667  0.91295314  0.15895929  1
  O2-  O418  1  0.58304440  0.91389915  0.47196454  1
  O2-  O419  1  0.56241750  0.96616327  0.84995409  1
  O2-  O420  1  0.86780754  0.19087431  0.13471299  1
  O2-  O421  1  0.84603494  0.14485746  0.47776835  1
  O2-  O422  1  0.71361589  0.05180749  0.79415337  1
  O2-  O423  1  0.84694422  0.42944139  0.14861084  1
  O2-  O424  1  0.85326114  0.45244907  0.49940820  1
  O2-  O425  1  0.84233969  0.45742895  0.81380573  1
  O2-  O426  1  0.80966306  0.65923053  0.15235150  1
  O2-  O427  1  0.84253516  0.68103813  0.45681358  1
  O2-  O428  1  0.84486704  0.69379633  0.82169324  1
  O2-  O429  1  0.83448427  0.92954252  0.14646799  1
  O2-  O430  1  0.80126250  0.90525854  0.46668395  1
  O2-  O431  1  0.81475171  0.89414520  0.81583263  1
  O2-  O432  1  0.16938200  0.07922053  0.21047282  1
  O2-  O433  1  0.17915221  0.10125335  0.52572371  1
  O2-  O434  1  0.18252747  0.08316912  0.84855038  1
  O2-  O435  1  0.17964910  0.35564221  0.21906240  1
  O2-  O436  1  0.23704330  0.34295353  0.54930630  1
  O2-  O437  1  0.17002235  0.32320875  0.83159711  1
  O2-  O438  1  0.16862729  0.60819592  0.19638374  1
  O2-  O439  1  0.15442718  0.58536074  0.51012540  1
  O2-  O440  1  0.16624710  0.59837262  0.86886958  1
  O2-  O441  1  0.16123213  0.84692815  0.19409760  1
  O2-  O442  1  0.17104176  0.85329645  0.51871669  1
  O2-  O443  1  0.15696261  0.83468979  0.85378267  1
  O2-  O444  1  0.43042802  0.08121654  0.19809631  1
  O2-  O445  1  0.41193243  0.09158570  0.50281446  1
  O2-  O446  1  0.41141953  0.08287267  0.85134290  1
  O2-  O447  1  0.39504959  0.32055495  0.19211132  1
  O2-  O448  1  0.38235652  0.33159599  0.52007094  1
  O2-  O449  1  0.43426505  0.35729241  0.85752969  1
  O2-  O450  1  0.38499921  0.55068886  0.18294948  1
  O2-  O451  1  0.34352913  0.53334333  0.52049997  1
  O2-  O452  1  0.40501485  0.57685214  0.85952187  1
  O2-  O453  1  0.40009916  0.84271946  0.17780727  1
  O2-  O454  1  0.41199719  0.83444092  0.51579138  1
  O2-  O455  1  0.40757669  0.83124067  0.85439296  1
  O2-  O456  1  0.73418299  0.06709193  0.20207601  1
  O2-  O457  1  0.68005194  0.07247705  0.51089526  1
  O2-  O458  1  0.73421481  0.20956896  0.84293524  1
  O2-  O459  1  0.70341728  0.40488914  0.21056024  1
  O2-  O460  1  0.68617052  0.32852700  0.53198768  1
  O2-  O461  1  0.69792824  0.34487649  0.85608710  1
  O2-  O462  1  0.64400057  0.57165074  0.18587819  1
  O2-  O463  1  0.68530110  0.58337761  0.50774364  1
  O2-  O464  1  0.59151737  0.51889054  0.86374803  1
  O2-  O465  1  0.66846652  0.81925076  0.18571939  1
  O2-  O466  1  0.64765688  0.81725116  0.51721426  1
  O2-  O467  1  0.65524258  0.79935198  0.86411474  1
  O2-  O468  1  0.94625683  0.10002208  0.17334771  1
  O2-  O469  1  0.94894079  0.09040205  0.53621507  1
  O2-  O470  1  0.85640945  0.06065885  0.84115362  1
  O2-  O471  1  0.92632727  0.34291773  0.19198005  1
  O2-  O472  1  0.91098789  0.31815635  0.48475233  1
  O2-  O473  1  0.91515844  0.36306939  0.80601628  1
  O2-  O474  1  0.91628355  0.59497270  0.19393479  1
  O2-  O475  1  0.93434681  0.62420557  0.51892559  1
  O2-  O476  1  0.92588513  0.60868906  0.85949575  1
  O2-  O477  1  0.88370073  0.82398370  0.19911387  1
  O2-  O478  1  0.94313724  0.93206971  0.52925934  1
  O2-  O479  1  0.93364792  0.85456855  0.86111541  1
  O2-  O480  1  0.17550909  0.10030305  0.33025216  1
  O2-  O481  1  0.17075403  0.09500704  0.65036624  1
  O2-  O482  1  0.17571032  0.09870058  0.96708264  1
  O2-  O483  1  0.18677556  0.36146307  0.34175305  1
  O2-  O484  1  0.20497138  0.32417287  0.61254644  1
  O2-  O485  1  0.14375377  0.32239654  0.95770739  1
  O2-  O486  1  0.16919171  0.59756993  0.31141761  1
  O2-  O487  1  0.16073783  0.54788201  0.63241375  1
  O2-  O488  1  0.16870457  0.59830891  0.99086209  1
  O2-  O489  1  0.17572486  0.85243796  0.31583706  1
  O2-  O490  1  0.14750000  0.83790747  0.63738477  1
  O2-  O491  1  0.17078964  0.83995253  0.96925185  1
  O2-  O492  1  0.44717281  0.09071363  0.31888963  1
  O2-  O493  1  0.41825480  0.07319585  0.63083768  1
  O2-  O494  1  0.40735128  0.09073239  0.97451909  1
  O2-  O495  1  0.41016001  0.34373245  0.31339469  1
  O2-  O496  1  0.43750454  0.31413574  0.64005408  1
  O2-  O497  1  0.40644160  0.33536000  0.98123633  1
  O2-  O498  1  0.41321745  0.59195571  0.31256699  1
  O2-  O499  1  0.41092250  0.56219573  0.63252531  1
  O2-  O500  1  0.39990523  0.57962491  0.98720744  1
  O2-  O501  1  0.42096963  0.84438861  0.30742010  1
  O2-  O502  1  0.41872838  0.83623807  0.64419465  1
  O2-  O503  1  0.41610097  0.83867518  0.98085576  1
  O2-  O504  1  0.67875235  0.08909770  0.31705849  1
  O2-  O505  1  0.66262794  0.07368945  0.62107621  1
  O2-  O506  1  0.65403947  0.08226836  1.03658150  1
  O2-  O507  1  0.67626591  0.35003799  0.32580918  1
  O2-  O508  1  0.68723893  0.30705801  0.65317574  1
  O2-  O509  1  0.66118424  0.33602998  0.98089046  1
  O2-  O510  1  0.62224881  0.53590221  0.31667023  1
  O2-  O511  1  0.67447758  0.56642058  0.63147658  1
  O2-  O512  1  0.63701452  0.55857692  0.98492143  1
  O2-  O513  1  0.65799684  0.81750100  0.30367756  1
  O2-  O514  1  0.65331092  0.81683776  0.63963986  1
  O2-  O515  1  0.65978176  0.82188695  0.98552391  1
  O2-  O516  1  0.94405288  0.11075940  0.29251351  1
  O2-  O517  1  0.90756189  0.07362879  0.65541524  1
  O2-  O518  1  0.89552302  0.08352226  0.96511513  1
  O2-  O519  1  0.92286269  0.33737272  0.32144280  1
  O2-  O520  1  0.92460365  0.30512713  0.60665680  1
  O2-  O521  1  0.86945765  0.31665271  0.95064251  1
  O2-  O522  1  0.92078309  0.62117148  0.32602925  1
  O2-  O523  1  0.99337360  0.68094622  0.63070706  1
  O2-  O524  1  0.91393804  0.59072032  0.98524564  1
  O2-  O525  1  0.92533894  0.80646985  0.32256406  1
  O2-  O526  1  0.92509103  0.86069965  0.64370121  1
  O2-  O527  1  0.95114018  0.87134370  0.98679868  1
  O2-  O528  1  0.06147456  0.15556585  -0.00511391  1
  O2-  O529  1  0.09341816  0.18978095  0.37070426  1
  O2-  O530  1  0.07507389  0.15302861  0.69728986  1
  O2-  O531  1  0.17216533  0.46163151  0.05422646  1
  O2-  O532  1  0.09380905  0.43655247  0.33110320  1
  O2-  O533  1  0.08937826  0.37240177  0.64356828  1
  O2-  O534  1  0.07957328  0.67475344  0.02898263  1
  O2-  O535  1  0.09007613  0.68174240  0.35477835  1
  O2-  O536  1  0.10283095  0.65020866  0.69657996  1
  O2-  O537  1  0.12012124  0.94833561  0.01763375  1
  O2-  O538  1  0.09387112  0.93294580  0.36526498  1
  O2-  O539  1  0.08348510  0.92763711  0.69201483  1
  O2-  O540  1  0.33410641  0.17634838  0.00805378  1
  O2-  O541  1  0.33367899  0.18983409  0.35753936  1
  O2-  O542  1  0.32192426  0.14191307  0.69326976  1
  O2-  O543  1  0.30870114  0.40843837  0.02164949  1
  O2-  O544  1  0.34570015  0.43508026  0.36828552  1
  O2-  O545  1  0.35313212  0.39930483  0.67781731  1
  O2-  O546  1  0.33252856  0.67644605  0.03120767  1
  O2-  O547  1  0.33219643  0.67595900  0.35226892  1
  O2-  O548  1  0.30274373  0.58602769  0.71022303  1
  O2-  O549  1  0.32876141  0.92099989  0.01683915  1
  O2-  O550  1  0.34566702  0.93263339  0.35327766  1
  O2-  O551  1  0.31821663  0.91544786  0.67952877  1
  O2-  O552  1  0.56861811  0.17099709  0.01743083  1
  O2-  O553  1  0.59647946  0.17365496  0.35232965  1
  O2-  O554  1  0.57571263  0.13115764  0.67512934  1
  O2-  O555  1  0.56188277  0.39709883  0.02915056  1
  O2-  O556  1  0.58752589  0.44406522  0.33200114  1
  O2-  O557  1  0.60538754  0.39917354  0.68050344  1
  O2-  O558  1  0.57082350  0.65695848  0.02768728  1
  O2-  O559  1  0.57176794  0.65607557  0.35405489  1
  O2-  O560  1  0.57398057  0.64323352  0.66854338  1
  O2-  O561  1  0.57768032  0.90656566  0.03018142  1
  O2-  O562  1  0.58751043  0.91388232  0.34634985  1
  O2-  O563  1  0.58179372  0.90724064  0.68325056  1
  O2-  O564  1  0.82788377  0.17299290  0.01639452  1
  O2-  O565  1  0.84330522  0.16732336  0.35116336  1
  O2-  O566  1  0.81686996  0.16155111  0.66124234  1
  O2-  O567  1  0.82553036  0.41968255  0.02209345  1
  O2-  O568  1  0.82619184  0.37797725  0.39276525  1
  O2-  O569  1  0.82989286  0.31002829  0.70213477  1
  O2-  O570  1  0.80468807  0.64098647  0.02420862  1
  O2-  O571  1  0.82722802  0.66994923  0.39067780  1
  O2-  O572  1  0.80638987  0.70341211  0.69800963  1
  O2-  O573  1  0.82950380  0.92411366  0.01960156  1
  O2-  O574  1  0.81534753  0.88887155  0.34421310  1
  O2-  O575  1  0.81858690  0.90777473  0.68993834  1
