# generated using pymatgen
data_H2O
_symmetry_space_group_name_H-M   'P 1'
_cell_length_a   17.99515631
_cell_length_b   17.99188752
_cell_length_c   22.01848525
_cell_angle_alpha   89.99335642
_cell_angle_beta   89.99719918
_cell_angle_gamma   120.03377682
_symmetry_Int_Tables_number   1
_chemical_formula_structural   H2O
_chemical_formula_sum   'H384 O192'
_cell_volume   6171.66719294
_cell_formula_units_Z   192
loop_
 _symmetry_equiv_pos_site_id
 _symmetry_equiv_pos_as_xyz
  1  'x, y, z'
loop_
 _atom_type_symbol
 _atom_type_oxidation_number
  H+  1.0
  O2-  -2.0
loop_
 _atom_site_type_symbol
 _atom_site_label
 _atom_site_symmetry_multiplicity
 _atom_site_fract_x
 _atom_site_fract_y
 _atom_site_fract_z
 _atom_site_occupancy
  H+  H0  1  0.39210324  0.51687943  0.50418423  1
  H+  H1  1  0.86478652  0.64106109  0.34017035  1
  H+  H2  1  0.68436788  0.83934335  0.73032077  1
  H+  H3  1  0.57700672  0.66184047  0.72929362  1
  H+  H4  1  0.36253915  0.37537518  0.48291100  1
  H+  H5  1  0.13854132  0.77984452  0.95688001  1
  H+  H6  1  0.97145481  0.11434606  0.99690438  1
  H+  H7  1  0.14212797  0.86439826  0.50052035  1
  H+  H8  1  0.47419986  0.87332250  0.32468886  1
  H+  H9  1  0.09819961  -0.02353812  0.33748349  1
  H+  H10  1  0.65218393  0.82835332  0.22673858  1
  H+  H11  1  0.38912611  0.75256449  -0.01186764  1
  H+  H12  1  0.84778591  -0.06509118  0.41184928  1
  H+  H13  1  0.23256096  0.28293148  0.55204489  1
  H+  H14  1  0.39101467  0.61263277  0.17251278  1
  H+  H15  1  0.56516765  0.24630109  0.82486887  1
  H+  H16  1  0.98174294  0.36709776  0.66583346  1
  H+  H17  1  0.90055020  0.86782938  0.65698977  1
  H+  H18  1  0.63846975  0.27055970  0.15544027  1
  H+  H19  1  0.77498928  0.63336164  0.82200889  1
  H+  H20  1  0.59867507  0.18100152  0.40024635  1
  H+  H21  1  0.74058070  0.11736665  0.32979174  1
  H+  H22  1  0.26657016  0.13406237  0.16555217  1
  H+  H23  1  0.77277056  0.38644325  0.01220804  1
  H+  H24  1  0.15758113  0.30400194  0.34849737  1
  H+  H25  1  0.13698205  0.50127628  0.01319276  1
  H+  H26  1  0.87159030  0.73804260  0.01059243  1
  H+  H27  1  0.35408366  0.88427640  0.33088397  1
  H+  H28  1  0.34255226  0.11927036  0.83612501  1
  H+  H29  1  -0.01664515  0.85399931  0.84095278  1
  H+  H30  1  0.11808013  0.68148845  0.42392437  1
  H+  H31  1  0.38705448  0.53859915  0.66195931  1
  H+  H32  1  1.10321909  0.64183538  0.67327376  1
  H+  H33  1  0.65192064  0.28452912  0.33188271  1
  H+  H34  1  0.85910146  0.72426784  0.67061672  1
  H+  H35  1  0.10791426  0.22766876  0.16844787  1
  H+  H36  1  0.62491996  0.14389818  0.49330545  1
  H+  H37  1  0.14136566  0.37670023  0.99879892  1
  H+  H38  1  0.79888833  0.89800914  0.82326724  1
  H+  H39  1  0.28830633  0.14284757  0.66908474  1
  H+  H40  1  0.38983337  0.27246091  0.17426628  1
  H+  H41  1  0.39266479  0.52787415  0.84678531  1
  H+  H42  1  0.53041378  0.62978800  1.00474346  1
  H+  H43  1  0.23393517  0.10736610  0.49859047  1
  H+  H44  1  0.61308747  0.39434917  0.49358660  1
  H+  H45  1  0.92145200  0.83781343  0.56397304  1
  H+  H46  1  0.22493673  0.61707676  0.32732863  1
  H+  H47  1  0.64110202  0.76928013  0.99247619  1
  H+  H48  1  0.86016031  -0.02654312  1.00700811  1
  H+  H49  1  0.36393282  0.96803121  -0.00995842  1
  H+  H50  1  0.77488383  0.39248473  0.33672469  1
  H+  H51  1  0.89437066  0.27405131  0.32894700  1
  H+  H52  1  1.01820411  0.13777353  0.16744224  1
  H+  H53  1  0.39324876  0.02234778  0.49745414  1
  H+  H54  1  0.84518723  0.87975052  0.35435082  1
  H+  H55  1  0.77933976  0.64153295  0.16410908  1
  H+  H56  1  0.39580813  0.86066772  0.16724279  1
  H+  H57  1  0.44915764  0.10084435  0.84676551  1
  H+  H58  1  0.91729428  0.33186042  0.97665252  1
  H+  H59  1  0.64091883  0.61314487  0.17388295  1
  H+  H60  1  0.36836478  1.01172837  0.30913529  1
  H+  H61  1  0.79390281  0.10464548  0.07375189  1
  H+  H62  1  0.61477325  0.88522840  0.67919590  1
  H+  H63  1  0.35614637  0.13159191  0.15984894  1
  H+  H64  1  0.63732249  0.10035898  0.83101029  1
  H+  H65  1  0.60786277  0.10683777  0.17507742  1
  H+  H66  1  0.97866212  0.12166956  0.84269057  1
  H+  H67  1  0.48061410  0.35392370  0.84316847  1
  H+  H68  1  0.73141790  0.94356684  0.87532684  1
  H+  H69  1  0.70436290  0.07169696  0.99680749  1
  H+  H70  1  0.12478571  0.85785579  0.32808959  1
  H+  H71  1  0.26213699  0.62013365  0.52702402  1
  H+  H72  1  0.26963602  0.60879256  0.80542948  1
  H+  H73  1  0.66505201  0.32346545  0.59640165  1
  H+  H74  1  0.56693477  0.03138817  0.60942794  1
  H+  H75  1  0.11443822  0.14831029  0.83666016  1
  H+  H76  1  0.88850092  0.11912105  0.83973649  1
  H+  H77  1  0.64648320  0.36431611  0.16123281  1
  H+  H78  1  0.17412261  0.83558474  0.55975358  1
  H+  H79  1  0.22755793  0.85315231  0.65520167  1
  H+  H80  1  0.10314123  0.61353786  0.50397730  1
  H+  H81  1  0.52343990  0.64240245  0.66716149  1
  H+  H82  1  0.21819615  0.19620524  0.28460927  1
  H+  H83  1  0.89482293  0.92490672  0.50659519  1
  H+  H84  1  0.61485135  0.37669909  1.00916339  1
  H+  H85  1  0.38821668  0.28471266  0.00397042  1
  H+  H86  1  0.39156750  0.20338654  0.67017099  1
  H+  H87  1  0.61646180  0.72914366  0.16006821  1
  H+  H88  1  0.14697457  0.62132709  0.17257080  1
  H+  H89  1  0.01555846  0.55194386  0.53915099  1
  H+  H90  1  0.11469844  0.39048658  0.16271379  1
  H+  H91  1  0.13235492  0.11257554  0.17247976  1
  H+  H92  1  0.51307493  0.40490951  0.68626359  1
  H+  H93  1  0.39288754  0.36411385  0.32404088  1
  H+  H94  1  0.14325808  0.38385691  0.33628182  1
  H+  H95  1  -0.02339178  0.36080166  0.17018098  1
  H+  H96  1  0.61498682  0.48182767  0.33998114  1
  H+  H97  1  0.86107395  0.64925518  0.49414859  1
  H+  H98  1  0.72711694  0.34968097  0.65386519  1
  H+  H99  1  0.14329336  0.55439911  0.84560926  1
  H+  H100  1  0.78123295  0.14274278  0.82841236  1
  H+  H101  1  0.74723775  0.10932703  0.50258668  1
  H+  H102  1  0.61795263  -0.01568224  0.33930147  1
  H+  H103  1  0.63771775  0.52115692  0.49428943  1
  H+  H104  1  0.86669595  0.71717213  0.82908408  1
  H+  H105  1  0.33151938  0.15720437  0.42500271  1
  H+  H106  1  0.87839227  0.11891194  0.66696684  1
  H+  H107  1  0.00753225  0.88983804  0.34035911  1
  H+  H108  1  0.59711665  0.11167728  0.99882198  1
  H+  H109  1  0.87955348  0.77724611  0.17916466  1
  H+  H110  1  0.16082418  0.63695305  1.00331350  1
  H+  H111  1  0.21373938  0.85944067  0.32539562  1
  H+  H112  1  0.42255820  0.83605368  0.55473657  1
  H+  H113  1  0.62117713  0.63412597  1.00764524  1
  H+  H114  1  0.70820333  0.33894736  0.83964699  1
  H+  H115  1  0.10941360  0.89458715  0.16326653  1
  H+  H116  1  0.87802275  0.61177378  0.65704058  1
  H+  H117  1  0.86838362  0.23106065  1.01306605  1
  H+  H118  1  0.61711935  0.49957764  0.67906768  1
  H+  H119  1  0.87271629  0.41723352  1.00576392  1
  H+  H120  1  0.38217798  0.26704349  0.49211013  1
  H+  H121  1  0.37980531  0.84580337  0.83405565  1
  H+  H122  1  -0.01757148  0.85530145  0.65520641  1
  H+  H123  1  0.35138234  0.04602262  1.00106366  1
  H+  H124  1  0.87105354  0.23621290  0.67143644  1
  H+  H125  1  0.88506622  0.30650285  0.50967115  1
  H+  H126  1  0.16822799  0.09829916  0.23591785  1
  H+  H127  1  0.38392642  0.39358947  0.68340879  1
  H+  H128  1  0.86853115  0.13092165  0.33891175  1
  H+  H129  1  0.13508779  0.22345145  0.53301851  1
  H+  H130  1  0.12245862  -0.04051668  0.66632589  1
  H+  H131  1  0.53178796  0.38782628  0.15924945  1
  H+  H132  1  0.36530382  0.22100147  0.33708876  1
  H+  H133  1  0.60841142  0.10228973  0.65872416  1
  H+  H134  1  0.52009430  0.63785275  0.82683158  1
  H+  H135  1  0.62847353  0.25762519  -0.00688888  1
  H+  H136  1  0.42403544  0.33342371  0.26642032  1
  H+  H137  1  0.07418957  0.47293403  0.49622673  1
  H+  H138  1  0.97769779  0.62040223  0.33138856  1
  H+  H139  1  0.22732009  0.36312116  0.17977595  1
  H+  H140  1  0.15169365  0.08890096  0.65102615  1
  H+  H141  1  0.48288473  0.60367691  0.50561717  1
  H+  H142  1  0.17410544  0.85401519  0.10801360  1
  H+  H143  1  0.01079182  0.89402348  0.01901654  1
  H+  H144  1  0.35185368  0.84649938  0.99942302  1
  H+  H145  1  0.39272908  0.76988705  0.17205604  1
  H+  H146  1  0.72969384  0.61732519  0.32712852  1
  H+  H147  1  0.06372612  0.19246066  0.32989060  1
  H+  H148  1  0.64199361  0.52435976  0.17299133  1
  H+  H149  1  1.04001713  0.65551909  0.16613969  1
  H+  H150  1  0.10476094  -0.01122184  1.02420090  1
  H+  H151  1  0.15423876  0.74332143  0.48234527  1
  H+  H152  1  0.86003599  0.37294177  0.15793164  1
  H+  H153  1  0.88774187  0.87028045  -0.00414064  1
  H+  H154  1  0.11654307  -0.02831294  0.49169440  1
  H+  H155  1  0.17441365  0.59963162  0.94207324  1
  H+  H156  1  0.36548470  -0.03591176  0.66912367  1
  H+  H157  1  0.72256287  0.60921363  0.66802924  1
  H+  H158  1  0.71507391  0.85634094  0.42585505  1
  H+  H159  1  0.37138099  0.10164363  0.31015073  1
  H+  H160  1  0.76862414  0.88777723  0.15967581  1
  H+  H161  1  0.26999127  0.14271305  0.33295353  1
  H+  H162  1  0.39146223  0.36180806  0.17310563  1
  H+  H163  1  0.72000235  0.37016358  0.49978523  1
  H+  H164  1  0.04466396  0.42151251  0.00494012  1
  H+  H165  1  0.18815082  0.07500152  0.58968256  1
  H+  H166  1  0.62770825  0.89534865  0.47741778  1
  H+  H167  1  0.88569972  0.25106954  0.04377242  1
  H+  H168  1  0.46606861  0.84203711  0.83467320  1
  H+  H169  1  0.88702742  0.02567805  0.66643538  1
  H+  H170  1  0.36438174  0.16184911  0.01856439  1
  H+  H171  1  0.14711760  0.78665229  0.15945196  1
  H+  H172  1  0.10253306  0.48886941  0.67276944  1
  H+  H173  1  0.21898572  0.11745366  0.01111912  1
  H+  H174  1  0.50605881  0.86019184  0.98572082  1
  H+  H175  1  0.75033038  0.43328704  0.88485077  1
  H+  H176  1  0.50570868  0.10555163  0.00016366  1
  H+  H177  1  0.26409872  0.40804931  0.68745532  1
  H+  H178  1  0.28155446  0.89307140  0.48762694  1
  H+  H179  1  0.62389893  0.72845554  0.47782081  1
  H+  H180  1  0.37858543  0.30370487  0.68751590  1
  H+  H181  1  0.61882716  0.63752537  0.33204062  1
  H+  H182  1  0.77810993  0.14988950  0.67190019  1
  H+  H183  1  0.63773987  0.61736088  0.49159606  1
  H+  H184  1  0.88858957  0.53163000  0.32634959  1
  H+  H185  1  0.86669439  0.09441393  0.49058233  1
  H+  H186  1  0.49183532  0.60858371  0.31871543  1
  H+  H187  1  -0.02030424  0.86716190  0.50381178  1
  H+  H188  1  0.48772686  0.87396020  0.49891346  1
  H+  H189  1  0.11574584  0.48576066  0.33924942  1
  H+  H190  1  0.27836934  0.63400653  0.16318751  1
  H+  H191  1  0.86304943  0.41795423  0.48548841  1
  H+  H192  1  0.12452600  0.03161976  0.85718642  1
  H+  H193  1  0.01215734  0.09972601  0.49324054  1
  H+  H194  1  0.60914189  0.47237097  0.82710708  1
  H+  H195  1  0.87129825  0.38643589  0.66607122  1
  H+  H196  1  0.21874767  0.11298019  0.85257562  1
  H+  H197  1  0.72775699  0.86190296  0.99858604  1
  H+  H198  1  0.37005793  0.89124587  0.48414341  1
  H+  H199  1  0.37124913  0.38168121  0.85378660  1
  H+  H200  1  0.85752537  0.73818896  0.49254846  1
  H+  H201  1  0.82805915  0.07972365  0.01485356  1
  H+  H202  1  0.21109048  0.61412764  0.64434827  1
  H+  H203  1  0.11766823  0.86915178  0.66257544  1
  H+  H204  1  0.11913425  0.14136970  0.32945264  1
  H+  H205  1  0.63044038  1.00958537  0.83294346  1
  H+  H206  1  0.96677600  0.86711851  0.18338225  1
  H+  H207  1  0.24902030  0.59643696  0.49732663  1
  H+  H208  1  0.52880095  0.88131588  0.15453638  1
  H+  H209  1  0.35592165  0.63878104  0.65529120  1
  H+  H210  1  0.90897896  0.44183157  0.84311848  1
  H+  H211  1  0.53170899  0.13688435  0.49356771  1
  H+  H212  1  0.07852891  0.91397801  0.43219184  1
  H+  H213  1  0.59571189  0.85090336  0.32129099  1
  H+  H214  1  0.58207867  0.66048618  0.42537177  1
  H+  H215  1  0.67117300  0.50942986  -0.01802015  1
  H+  H216  1  0.12892894  0.46434917  0.76583211  1
  H+  H217  1  -0.01281126  0.34603100  0.50713536  1
  H+  H218  1  0.61168854  0.72276623  0.82566177  1
  H+  H219  1  0.36672688  0.13230656  0.48479904  1
  H+  H220  1  0.88390548  0.19163859  0.49806835  1
  H+  H221  1  0.87276095  0.53937387  0.49772523  1
  H+  H222  1  0.87746945  0.77451576  0.33184293  1
  H+  H223  1  0.61384683  0.22803681  0.66939443  1
  H+  H224  1  0.61207932  0.88503563  0.82764109  1
  H+  H225  1  0.47505652  0.10959075  0.66115158  1
  H+  H226  1  0.34726946  0.70683171  0.81557315  1
  H+  H227  1  0.11221055  0.40539964  0.67607021  1
  H+  H228  1  0.37752281  0.08736512  0.66129287  1
  H+  H229  1  0.39420500  0.51626063  0.31960218  1
  H+  H230  1  0.10871205  0.72830641  0.33572696  1
  H+  H231  1  0.11461060  0.23861527  0.83552211  1
  H+  H232  1  0.28391005  0.40356843  0.33719683  1
  H+  H233  1  0.39187887  0.52108826  -0.00507417  1
  H+  H234  1  0.38954895  0.02574888  0.15854497  1
  H+  H235  1  0.59990431  -0.03853274  0.98810853  1
  H+  H236  1  0.38797897  0.26519491  0.84647132  1
  H+  H237  1  0.63522115  0.60981900  0.83810747  1
  H+  H238  1  0.12951480  0.29855146  0.68404505  1
  H+  H239  1  0.63220165  0.15226328  0.34396788  1
  H+  H240  1  0.61224871  0.97114644  0.15792060  1
  H+  H241  1  0.10832482  0.98431714  0.17144722  1
  H+  H242  1  0.47350944  0.85282838  0.65473457  1
  H+  H243  1  0.51501901  0.13956075  0.15059480  1
  H+  H244  1  0.13989351  0.52843750  0.17248684  1
  H+  H245  1  0.90270576  0.86673194  0.84076940  1
  H+  H246  1  0.23685005  0.81424412  0.83007238  1
  H+  H247  1  0.91897091  0.33044013  0.26838553  1
  H+  H248  1  0.96179455  0.08302513  0.33078991  1
  H+  H249  1  0.79185739  0.89786681  0.67445221  1
  H+  H250  1  0.34010106  0.42027561  0.90425393  1
  H+  H251  1  0.36384294  0.87493037  0.66735895  1
  H+  H252  1  0.53520743  0.39337855  0.00647445  1
  H+  H253  1  0.13135931  0.28231264  1.00056633  1
  H+  H254  1  0.88297404  -0.01170091  0.82313370  1
  H+  H255  1  0.63615855  0.86456157  0.16530889  1
  H+  H256  1  0.88251206  0.01957441  0.17378407  1
  H+  H257  1  0.46765764  0.35907019  0.49788644  1
  H+  H258  1  0.27076722  0.38722127  0.00851370  1
  H+  H259  1  0.85893015  0.12717072  0.16824128  1
  H+  H260  1  0.36568444  0.47389972  0.16219565  1
  H+  H261  1  0.91065758  0.63785449  0.17647608  1
  H+  H262  1  0.28864913  0.89145058  0.15275539  1
  H+  H263  1  0.13653045  0.92531165  0.81198204  1
  H+  H264  1  0.52769731  0.39030135  0.34011180  1
  H+  H265  1  0.15921029  0.43621565  0.82491028  1
  H+  H266  1  0.64905599  0.37202290  0.33264541  1
  H+  H267  1  0.04188624  0.66437264  1.00047416  1
  H+  H268  1  0.10560662  0.14562197  0.01706720  1
  H+  H269  1  0.92866245  0.84472759  0.93892513  1
  H+  H270  1  0.10998478  0.63861273  0.33471968  1
  H+  H271  1  0.35357420  0.72940786  0.32878183  1
  H+  H272  1  0.28374773  0.63786959  0.00922523  1
  H+  H273  1  0.48265314  0.61442006  0.16928621  1
  H+  H274  1  0.10765622  0.17484238  0.67966473  1
  H+  H275  1  0.09861630  0.79969417  0.85527391  1
  H+  H276  1  0.60037848  0.96699202  0.67341842  1
  H+  H277  1  0.91742660  0.64948066  0.99526541  1
  H+  H278  1  0.85725055  0.88740163  0.16192701  1
  H+  H279  1  0.90405727  0.59128433  0.56068400  1
  H+  H280  1  0.60782914  0.87060234  -0.00587599  1
  H+  H281  1  0.59547917  0.19242185  0.85717498  1
  H+  H282  1  0.40155490  0.65244508  0.47642894  1
  H+  H283  1  0.40673146  0.07800966  0.22164332  1
  H+  H284  1  0.40687978  0.74295024  0.47215136  1
  H+  H285  1  0.62194242  0.39091276  0.83186977  1
  H+  H286  1  0.63497385  0.27806679  0.50268977  1
  H+  H287  1  0.88898722  0.26887868  0.17079639  1
  H+  H288  1  0.33953744  0.66283340  0.10412281  1
  H+  H289  1  0.62896053  0.98442139  0.48948789  1
  H+  H290  1  0.15373428  0.64875370  0.85654284  1
  H+  H291  1  0.66050419  0.06687397  0.92986940  1
  H+  H292  1  0.37095176  0.63105797  0.00986936  1
  H+  H293  1  0.14067585  0.10149484  0.50470658  1
  H+  H294  1  0.34278589  0.90331706  0.09401323  1
  H+  H295  1  0.12808246  0.57835593  0.59834578  1
  H+  H296  1  0.79528532  0.63982982  0.00426644  1
  H+  H297  1  0.86590141  0.00381520  0.33230432  1
  H+  H298  1  0.82966467  0.91481729  0.06754873  1
  H+  H299  1  0.83343980  0.41171800  0.09608063  1
  H+  H300  1  0.75865113  0.36802056  0.15528476  1
  H+  H301  1  0.73491434  0.62265281  0.49513310  1
  H+  H302  1  0.57853278  0.17410506  0.73286791  1
  H+  H303  1  0.38669414  0.05018231  0.90201997  1
  H+  H304  1  0.68664930  0.85375623  0.90562985  1
  H+  H305  1  -0.02537139  0.12628097  0.67506068  1
  H+  H306  1  0.67619626  0.57741064  0.89086227  1
  H+  H307  1  0.59141212  0.42118830  0.09980722  1
  H+  H308  1  0.94702259  0.40175074  0.92492247  1
  H+  H309  1  0.63308865  0.61116393  0.66456884  1
  H+  H310  1  0.38137713  0.76773304  0.64682437  1
  H+  H311  1  0.58293769  0.42269782  0.74107841  1
  H+  H312  1  0.34824681  0.42810441  0.39341059  1
  H+  H313  1  0.57558157  0.90590282  0.76649642  1
  H+  H314  1  0.32256389  0.45032665  0.74588192  1
  H+  H315  1  0.58203443  0.92406967  0.39817337  1
  H+  H316  1  0.84030858  0.41865468  0.72229394  1
  H+  H317  1  0.07289940  0.17513372  0.07383528  1
  H+  H318  1  0.74462052  0.87990115  0.49132066  1
  H+  H319  1  0.13377244  0.76596075  0.65457565  1
  H+  H320  1  0.16946676  0.34013735  0.23948538  1
  H+  H321  1  0.40776715  0.80682701  0.92333803  1
  H+  H322  1  0.08980103  0.42412277  0.10252481  1
  H+  H323  1  0.42357485  0.58473554  0.93644336  1
  H+  H324  1  0.15841566  0.33901701  0.90483072  1
  H+  H325  1  0.68269674  0.08846603  0.55920673  1
  H+  H326  1  0.32685034  0.17583790  0.08047269  1
  H+  H327  1  0.07567259  0.42228583  0.43665731  1
  H+  H328  1  0.58557853  0.42434477  0.43239526  1
  H+  H329  1  0.91975134  0.57728942  0.95568544  1
  H+  H330  1  0.92946914  0.32480362  0.60298001  1
  H+  H331  1  0.25736494  0.83568364  0.00992271  1
  H+  H332  1  0.42141426  0.84047699  0.26208964  1
  H+  H333  1  0.75184848  0.53968751  0.93845415  1
  H+  H334  1  0.93760660  0.60703104  0.23544757  1
  H+  H335  1  0.16700541  0.32756935  0.61937427  1
  H+  H336  1  0.89421535  0.34809517  0.83545312  1
  H+  H337  1  0.35064458  -0.04356601  0.82397835  1
  H+  H338  1  0.42741831  0.57860109  0.25348857  1
  H+  H339  1  0.67138088  0.58564167  0.26647256  1
  H+  H340  1  0.06897518  0.92540872  0.08927423  1
  H+  H341  1  0.86640805  0.39307643  0.33902244  1
  H+  H342  1  0.67276466  0.09086820  0.27400324  1
  H+  H343  1  0.07712231  0.14956194  0.43805720  1
  H+  H344  1  0.84051918  0.67696575  0.10568284  1
  H+  H345  1  0.82946533  0.42994921  0.42135745  1
  H+  H346  1  0.07697204  0.17936793  0.74786863  1
  H+  H347  1  0.38660749  0.61269718  0.83252813  1
  H+  H348  1  0.33100808  0.41352062  0.10443989  1
  H+  H349  1  0.07888823  0.88555549  0.75441654  1
  H+  H350  1  0.86369975  0.57330287  0.83362504  1
  H+  H351  1  0.53288034  0.77217821  0.28241801  1
  H+  H352  1  0.85742735  0.93125947  0.72965259  1
  H+  H353  1  0.42148821  0.33310880  0.94031698  1
  H+  H354  1  0.90845871  0.07088564  0.23692071  1
  H+  H355  1  0.22612520  0.36188841  0.85297050  1
  H+  H356  1  0.91610765  0.08243200  0.93475238  1
  H+  H357  1  0.77397163  0.13347065  0.17171337  1
  H+  H358  1  0.59797559  0.71781409  0.33163377  1
  H+  H359  1  0.32222263  0.15955331  0.77812425  1
  H+  H360  1  0.57341790  0.15599481  0.09145171  1
  H+  H361  1  0.36177744  0.38712385  0.00844618  1
  H+  H362  1  0.33444040  0.90381212  0.76118293  1
  H+  H363  1  0.56073308  0.03088049  0.22038520  1
  H+  H364  1  0.84439950  0.15788620  0.40082063  1
  H+  H365  1  1.01809273  0.64635346  0.66800551  1
  H+  H366  1  0.83180559  0.67099140  0.39871262  1
  H+  H367  1  0.42035294  0.58491209  0.59689402  1
  H+  H368  1  0.83367395  0.66666878  0.73137768  1
  H+  H369  1  0.02847695  0.39263397  0.33846319  1
  H+  H370  1  0.34767337  0.67111822  0.38327700  1
  H+  H371  1  0.41928496  0.07895437  0.55815108  1
  H+  H372  1  0.32991562  0.91776703  0.39046155  1
  H+  H373  1  0.84063123  0.17833535  0.77107572  1
  H+  H374  1  0.58937197  0.66669500  0.10247208  1
  H+  H375  1  0.66550243  0.32779276  0.93900323  1
  H+  H376  1  0.32316244  0.66344516  0.71416147  1
  H+  H377  1  0.88409621  0.52600926  0.65251644  1
  H+  H378  1  0.64441835  0.77377018  0.67765398  1
  H+  H379  1  0.16601499  0.58450865  0.26799777  1
  H+  H380  1  0.09627712  0.67955632  0.10448108  1
  H+  H381  1  0.15971574  0.08545141  0.95185469  1
  H+  H382  1  0.27607994  0.38280924  0.47603990  1
  H+  H383  1  0.90048663  0.83685719  0.27464562  1
  O2-  O384  1  0.07788130  0.16884547  0.15042156  1
  O2-  O385  1  0.07547073  0.13999812  0.48249888  1
  O2-  O386  1  0.08480691  0.17764138  0.81917039  1
  O2-  O387  1  0.08360687  0.41969891  0.14784446  1
  O2-  O388  1  0.06929304  0.41821483  0.48158011  1
  O2-  O389  1  0.16544126  0.48679393  0.80279217  1
  O2-  O390  1  0.10152801  0.68224996  0.14933357  1
  O2-  O391  1  0.14657566  0.68922213  0.46439749  1
  O2-  O392  1  0.18127953  0.76269615  0.84294094  1
  O2-  O393  1  0.07461105  0.92295242  0.15469445  1
  O2-  O394  1  0.08168730  0.91101491  0.47740239  1
  O2-  O395  1  0.07800358  0.88364971  0.80035743  1
  O2-  O396  1  0.32691360  0.16562676  0.14909586  1
  O2-  O397  1  0.33308732  0.15963665  0.47091894  1
  O2-  O398  1  0.31862331  0.15682551  0.82302413  1
  O2-  O399  1  0.33279777  0.41238709  0.14958235  1
  O2-  O400  1  0.33762887  0.41365730  0.46792635  1
  O2-  O401  1  0.34087570  0.41565657  0.85997157  1
  O2-  O402  1  0.34012108  0.66250667  0.14948882  1
  O2-  O403  1  0.40863975  0.69754469  0.44782335  1
  O2-  O404  1  0.32949501  0.65088886  0.79481660  1
  O2-  O405  1  0.34908698  0.91642177  0.13836638  1
  O2-  O406  1  0.34132435  0.92380700  0.47055074  1
  O2-  O407  1  0.33222168  0.89873606  0.80681306  1
  O2-  O408  1  0.57628749  0.16476599  0.13627500  1
  O2-  O409  1  0.59336539  0.17380465  0.48190695  1
  O2-  O410  1  0.55644024  0.18782165  0.82458113  1
  O2-  O411  1  0.59262656  0.42063111  0.14521129  1
  O2-  O412  1  0.58631363  0.42844045  0.47840658  1
  O2-  O413  1  0.58183885  0.41066511  0.81415196  1
  O2-  O414  1  0.58613074  0.66671616  0.14745294  1
  O2-  O415  1  0.58991892  0.66541064  0.47060982  1
  O2-  O416  1  0.58052179  0.66434910  0.80987464  1
  O2-  O417  1  0.58988559  0.91322897  0.14083042  1
  O2-  O418  1  0.59312963  0.92436399  0.47411705  1
  O2-  O419  1  0.57502131  0.90721135  0.81231471  1
  O2-  O420  1  0.82895419  0.15727940  0.15073600  1
  O2-  O421  1  0.84419364  0.13578619  0.47877820  1
  O2-  O422  1  0.84195349  0.17623605  0.81587819  1
  O2-  O423  1  0.82791786  0.40215825  0.14292594  1
  O2-  O424  1  0.82326558  0.43371109  0.46795869  1
  O2-  O425  1  0.86155748  0.51889139  0.84542909  1
  O2-  O426  1  0.84013379  0.67878277  0.15096909  1
  O2-  O427  1  0.82705869  0.67699692  0.47806374  1
  O2-  O428  1  0.83624897  0.66012585  0.80922303  1
  O2-  O429  1  0.82906244  0.91835690  0.14367398  1
  O2-  O430  1  0.86430501  0.95437628  0.48969165  1
  O2-  O431  1  0.85758288  0.92819021  0.80616864  1
  O2-  O432  1  0.16215324  0.08286608  0.18921464  1
  O2-  O433  1  0.17587203  0.07563544  0.51905947  1
  O2-  O434  1  0.15999913  0.09075287  0.87124966  1
  O2-  O435  1  0.16674809  0.33513220  0.19460821  1
  O2-  O436  1  0.17401353  0.26485831  0.56449417  1
  O2-  O437  1  0.16377253  0.33898774  0.85937990  1
  O2-  O438  1  0.17522684  0.58871590  0.18719520  1
  O2-  O439  1  0.07241247  0.55917509  0.53226288  1
  O2-  O440  1  0.14283864  0.59503155  0.87592770  1
  O2-  O441  1  0.17584663  0.85116809  0.15225106  1
  O2-  O442  1  0.17940851  0.84137090  0.51455872  1
  O2-  O443  1  0.14430120  0.80253577  0.88158101  1
  O2-  O444  1  0.41286658  0.08506654  0.17457602  1
  O2-  O445  1  0.42367128  0.08344581  0.51342836  1
  O2-  O446  1  0.38831586  0.06086906  0.85728647  1
  O2-  O447  1  0.42396834  0.33362903  0.18745335  1
  O2-  O448  1  0.40530015  0.32745043  0.50640300  1
  O2-  O449  1  0.42121175  0.32554288  0.86126025  1
  O2-  O450  1  0.42236282  0.58165201  0.18594416  1
  O2-  O451  1  0.42364913  0.57541971  0.52202729  1
  O2-  O452  1  0.42204676  0.59099636  0.85328162  1
  O2-  O453  1  0.42618219  0.83158850  0.18442755  1
  O2-  O454  1  0.42555184  0.84140043  0.50970094  1
  O2-  O455  1  0.40519031  0.81010457  0.84833342  1
  O2-  O456  1  0.61683728  0.06568584  0.20134346  1
  O2-  O457  1  0.68571110  0.08973722  0.51464953  1
  O2-  O458  1  0.66463907  0.07042563  0.84879103  1
  O2-  O459  1  0.67583132  0.33084230  0.16962102  1
  O2-  O460  1  0.66142788  0.33872946  0.51791697  1
  O2-  O461  1  0.67995897  0.36028972  0.86646919  1
  O2-  O462  1  0.67224012  0.58443150  0.18941696  1
  O2-  O463  1  0.66961488  0.58675580  0.50654878  1
  O2-  O464  1  0.66626501  0.57831982  0.84623197  1
  O2-  O465  1  0.66477383  0.83208170  0.18262402  1
  O2-  O466  1  0.69126176  0.84519697  0.46754946  1
  O2-  O467  1  0.70117434  0.88265112  0.86440305  1
  O2-  O468  1  0.91233041  0.07896136  0.19165734  1
  O2-  O469  1  0.91120995  0.04386007  0.51237896  1
  O2-  O470  1  0.91679996  0.08592609  0.85406661  1
  O2-  O471  1  0.91576226  0.32946029  0.18515298  1
  O2-  O472  1  0.93052809  0.30009267  0.52845100  1
  O2-  O473  1  0.93456314  0.40546537  0.85034434  1
  O2-  O474  1  0.94661928  0.61410584  0.19076538  1
  O2-  O475  1  0.90631849  0.59766964  0.51551804  1
  O2-  O476  1  0.80861173  0.49392129  0.90131406  1
  O2-  O477  1  0.90541090  0.83773420  0.19542815  1
  O2-  O478  1  0.91917398  0.84359170  0.51892395  1
  O2-  O479  1  0.92630210  0.83314364  0.86026667  1
  O2-  O480  1  0.18486289  0.13665644  0.29831783  1
  O2-  O481  1  0.19305042  0.07337342  0.63622110  1
  O2-  O482  1  0.15794280  0.08425655  0.99712218  1
  O2-  O483  1  0.17796767  0.35492123  0.32295291  1
  O2-  O484  1  0.16559589  0.35136280  0.66021365  1
  O2-  O485  1  0.16656589  0.34137796  0.98321360  1
  O2-  O486  1  0.16242406  0.58330123  0.31313859  1
  O2-  O487  1  0.14742878  0.58319820  0.64167778  1
  O2-  O488  1  0.18679689  0.60308133  0.98771873  1
  O2-  O489  1  0.15253687  0.82652392  0.31239050  1
  O2-  O490  1  0.16907319  0.82729646  0.63725756  1
  O2-  O491  1  0.14740822  0.78178188  1.00217645  1
  O2-  O492  1  0.39533287  0.06933392  0.28938936  1
  O2-  O493  1  0.41684568  0.07118987  0.64277306  1
  O2-  O494  1  0.38900285  0.03131319  0.97868662  1
  O2-  O495  1  0.42290194  0.33284442  0.31191478  1
  O2-  O496  1  0.41381509  0.36193407  0.67146069  1
  O2-  O497  1  0.42173086  0.34260593  0.98506847  1
  O2-  O498  1  0.43017212  0.57725251  0.30084868  1
  O2-  O499  1  0.42125706  0.59551481  0.64199493  1
  O2-  O500  1  0.42734944  0.58264800  0.98141732  1
  O2-  O501  1  0.41534549  0.84090337  0.30715299  1
  O2-  O502  1  0.41648608  0.83023405  0.63518141  1
  O2-  O503  1  0.41568077  0.81228693  0.96892334  1
  O2-  O504  1  0.67827083  0.08777103  0.31845076  1
  O2-  O505  1  0.61791866  0.05933037  0.63531987  1
  O2-  O506  1  0.64840048  0.05665348  0.97407939  1
  O2-  O507  1  0.68298781  0.34634711  0.31797675  1
  O2-  O508  1  0.66661223  0.31427904  0.64098280  1
  O2-  O509  1  0.66078287  0.32001471  0.98452250  1
  O2-  O510  1  0.66858896  0.58783301  0.31202113  1
  O2-  O511  1  0.66016732  0.57542004  0.65599589  1
  O2-  O512  1  0.71537529  0.56000285  0.95829272  1
  O2-  O513  1  0.59181483  0.80049562  0.29753954  1
  O2-  O514  1  0.68006927  0.83782705  0.68606159  1
  O2-  O515  1  0.66840793  0.83067254  0.97943182  1
  O2-  O516  1  0.90332013  0.06234254  0.31374326  1
  O2-  O517  1  0.91491618  0.09121267  0.65639270  1
  O2-  O518  1  0.91291637  0.07594027  0.97976554  1
  O2-  O519  1  0.92231563  0.33425259  0.31346343  1
  O2-  O520  1  0.92205924  0.33049924  0.64773933  1
  O2-  O521  1  0.94770047  0.39405071  0.97038444  1
  O2-  O522  1  0.91731816  0.59360019  0.31489030  1
  O2-  O523  1  0.91060515  0.58616293  0.63810320  1
  O2-  O524  1  0.95640237  0.63479241  0.97243997  1
  O2-  O525  1  0.90266992  0.83649392  0.32003073  1
  O2-  O526  1  0.92098655  0.82931859  0.64201860  1
  O2-  O527  1  0.92568489  0.84599247  0.98446134  1
  O2-  O528  1  0.07421118  0.17594568  0.02805814  1
  O2-  O529  1  0.07066020  0.15043681  0.35338609  1
  O2-  O530  1  0.06778310  0.18583614  0.70256497  1
  O2-  O531  1  0.10117331  0.43884076  0.02448999  1
  O2-  O532  1  0.08816029  0.42444645  0.35526111  1
  O2-  O533  1  0.07784779  0.43030727  0.69260804  1
  O2-  O534  1  0.10356733  0.69048716  0.02012999  1
  O2-  O535  1  0.07966672  0.66739267  0.35232416  1
  O2-  O536  1  0.07737670  0.67751783  0.68445779  1
  O2-  O537  1  0.06989894  0.92761262  0.04072844  1
  O2-  O538  1  0.06911921  0.91856211  0.35431951  1
  O2-  O539  1  0.08638775  0.89933570  0.67953805  1
  O2-  O540  1  0.32579700  0.18100123  0.03348836  1
  O2-  O541  1  0.32908408  0.16004911  0.34966374  1
  O2-  O542  1  0.34026254  0.17650049  0.69561462  1
  O2-  O543  1  0.33265694  0.41963370  0.02146782  1
  O2-  O544  1  0.34635948  0.42886978  0.34760056  1
  O2-  O545  1  0.32541528  0.44282123  0.70228928  1
  O2-  O546  1  0.34511039  0.66544418  0.02472514  1
  O2-  O547  1  0.32464637  0.66847270  0.34157715  1
  O2-  O548  1  0.32199075  0.66603917  0.66903808  1
  O2-  O549  1  0.32050049  0.87421267  0.01729054  1
  O2-  O550  1  0.32232828  0.91318102  0.34552560  1
  O2-  O551  1  0.33400800  0.90455311  0.68529907  1
  O2-  O552  1  0.56646256  0.14234112  0.01205699  1
  O2-  O553  1  0.60430171  0.18548220  0.35555188  1
  O2-  O554  1  0.57669362  0.16692107  0.68860246  1
  O2-  O555  1  0.59549536  0.41857343  0.02061858  1
  O2-  O556  1  0.58643319  0.42314830  0.35814179  1
  O2-  O557  1  0.57692185  0.43025961  0.69586493  1
  O2-  O558  1  0.59125372  0.66431300  0.02013490  1
  O2-  O559  1  0.57952995  0.65897808  0.34779718  1
  O2-  O560  1  0.58343912  0.66844559  0.68434909  1
  O2-  O561  1  0.57002803  0.89722214  0.00075471  1
  O2-  O562  1  0.57989862  0.92320027  0.35260496  1
  O2-  O563  1  0.57645070  0.90807293  0.69075804  1
  O2-  O564  1  0.77522267  0.07037940  0.03600285  1
  O2-  O565  1  0.84438856  0.16606359  0.35587580  1
  O2-  O566  1  0.83697223  0.17338203  0.68638134  1
  O2-  O567  1  0.83039611  0.42574064  0.02923699  1
  O2-  O568  1  0.83831435  0.42566738  0.35237420  1
  O2-  O569  1  0.83875766  0.41608414  0.67806426  1
  O2-  O570  1  0.84888178  0.67904231  0.02693662  1
  O2-  O571  1  0.83121394  0.66973756  0.35346087  1
  O2-  O572  1  0.82678267  0.66401074  0.68608449  1
  O2-  O573  1  0.82873302  0.91235218  0.02163195  1
  O2-  O574  1  0.81839696  0.91200766  0.37209328  1
  O2-  O575  1  0.85433088  0.93381403  0.68396598  1
