# generated using pymatgen
data_H2O
_symmetry_space_group_name_H-M   'P 1'
_cell_length_a   17.96729200
_cell_length_b   17.98001025
_cell_length_c   22.00511034
_cell_angle_alpha   90.02575254
_cell_angle_beta   89.98472409
_cell_angle_gamma   120.00342234
_symmetry_Int_Tables_number   1
_chemical_formula_structural   H2O
_chemical_formula_sum   'H384 O192'
_cell_volume   6156.18583005
_cell_formula_units_Z   192
loop_
 _symmetry_equiv_pos_site_id
 _symmetry_equiv_pos_as_xyz
  1  'x, y, z'
loop_
 _atom_type_symbol
 _atom_type_oxidation_number
  H+  1.0
  O2-  -2.0
loop_
 _atom_site_type_symbol
 _atom_site_label
 _atom_site_symmetry_multiplicity
 _atom_site_fract_x
 _atom_site_fract_y
 _atom_site_fract_z
 _atom_site_occupancy
  H+  H0  1  0.16182565  0.28656799  1.01479232  1
  H+  H1  1  0.71179832  0.87571691  0.83575070  1
  H+  H2  1  0.37667528  0.85468247  1.00094784  1
  H+  H3  1  0.72417346  0.06223208  0.79003743  1
  H+  H4  1  0.51237318  0.73993219  1.02944163  1
  H+  H5  1  0.47727211  0.61946214  0.18728072  1
  H+  H6  1  0.78089748  0.85284011  0.30292589  1
  H+  H7  1  0.88162234  0.87023575  0.16311471  1
  H+  H8  1  -0.00577278  0.53396186  0.06860216  1
  H+  H9  1  0.08404403  0.72962715  0.80569748  1
  H+  H10  1  0.36637975  0.64108433  0.82119737  1
  H+  H11  1  0.30027088  0.16663468  0.64472809  1
  H+  H12  1  0.73895634  0.87716579  0.98975646  1
  H+  H13  1  0.63498737  0.36402947  0.34046658  1
  H+  H14  1  0.22767744  0.61620961  0.17209134  1
  H+  H15  1  0.23517764  0.37550731  0.51100373  1
  H+  H16  1  0.86777718  0.89285697  0.68519892  1
  H+  H17  1  0.65987188  0.32909274  0.24537380  1
  H+  H18  1  0.37581154  0.25142504  0.32433440  1
  H+  H19  1  0.83606357  0.61962016  0.01303411  1
  H+  H20  1  0.84364719  0.91038648  0.82657485  1
  H+  H21  1  0.09291369  0.86653355  0.49420733  1
  H+  H22  1  0.36676090  0.60998042  0.98095985  1
  H+  H23  1  0.63160584  0.42660747  0.50348390  1
  H+  H24  1  0.61779565  0.73445142  0.15902415  1
  H+  H25  1  0.61261037  0.64454614  0.82600326  1
  H+  H26  1  0.89641060  0.03218519  0.99071346  1
  H+  H27  1  -0.02591387  0.85794470  0.67944186  1
  H+  H28  1  0.64667269  0.40543370  0.97400582  1
  H+  H29  1  -0.01531443  0.13426284  0.32095170  1
  H+  H30  1  0.90461475  0.52403329  0.49583569  1
  H+  H31  1  0.63386021  0.26999807  0.18634620  1
  H+  H32  1  0.13790646  0.61560969  0.17382450  1
  H+  H33  1  0.11335593  0.39334614  0.33537657  1
  H+  H34  1  0.39611681  0.29289128  0.49807295  1
  H+  H35  1  0.19314558  0.07906736  -0.00259321  1
  H+  H36  1  1.03253756  0.14919179  1.01226630  1
  H+  H37  1  0.35654284  0.49008021  0.34570203  1
  H+  H38  1  0.59582713  0.24802879  0.51588571  1
  H+  H39  1  0.12152804  0.73257254  0.15483065  1
  H+  H40  1  0.86343838  0.39668010  0.34496022  1
  H+  H41  1  0.75301105  0.32289605  0.97620343  1
  H+  H42  1  0.08210100  0.95913013  0.01803610  1
  H+  H43  1  0.10572304  0.08548165  0.69591372  1
  H+  H44  1  0.11302825  0.13696778  0.48177488  1
  H+  H45  1  0.89714034  0.36107808  0.26947010  1
  H+  H46  1  0.38225716  0.52719578  0.82594555  1
  H+  H47  1  0.70252753  0.59790320  0.60997468  1
  H+  H48  1  0.88677970  0.52790880  0.32930515  1
  H+  H49  1  0.86405000  0.60289863  0.85453246  1
  H+  H50  1  0.26504912  0.91378881  0.65406338  1
  H+  H51  1  0.96799850  0.22695770  0.76347973  1
  H+  H52  1  0.53351069  0.40604954  0.35408443  1
  H+  H53  1  0.52468902  0.13543764  0.33679809  1
  H+  H54  1  0.37870640  0.61580449  0.34758825  1
  H+  H55  1  0.13962460  0.12024364  0.16845091  1
  H+  H56  1  0.02874157  0.38383132  0.48049283  1
  H+  H57  1  0.33353096  0.98336862  0.48566535  1
  H+  H58  1  0.58259366  -0.09219265  0.48227322  1
  H+  H59  1  0.37362581  0.09844569  0.16868413  1
  H+  H60  1  0.36208985  0.38611729  0.19143476  1
  H+  H61  1  0.00764681  0.88505119  0.44314323  1
  H+  H62  1  0.14428892  0.36946161  0.50741870  1
  H+  H63  1  0.95679309  0.61681540  0.86964721  1
  H+  H64  1  0.13368273  0.52261706  0.49430285  1
  H+  H65  1  0.39745908  0.13236450  0.31247349  1
  H+  H66  1  0.47742528  0.59783201  0.00677765  1
  H+  H67  1  0.59855507  0.58728682  0.00540914  1
  H+  H68  1  0.84458145  -0.04950736  0.51877843  1
  H+  H69  1  0.32517658  0.93798685  0.00985164  1
  H+  H70  1  0.97930413  0.11375616  0.16528667  1
  H+  H71  1  0.86043649  0.88350837  -0.00203690  1
  H+  H72  1  0.36322137  0.63841578  0.16507163  1
  H+  H73  1  -0.01448992  0.13398896  0.67426487  1
  H+  H74  1  0.41451740  0.59445162  0.24556793  1
  H+  H75  1  0.87658511  0.64442307  0.69269798  1
  H+  H76  1  0.74324872  0.48842810  0.54846533  1
  H+  H77  1  0.62324401  0.94083665  0.67806375  1
  H+  H78  1  0.61019958  0.38259510  0.17251842  1
  H+  H79  1  0.28469978  0.95449220  0.92573554  1
  H+  H80  1  0.89798877  0.36312913  0.98480189  1
  H+  H81  1  0.91397748  0.14488464  0.83545501  1
  H+  H82  1  0.11169946  0.63792880  0.33338891  1
  H+  H83  1  0.52843442  0.87962146  0.16703284  1
  H+  H84  1  0.49930413  0.87393259  0.84303266  1
  H+  H85  1  0.34310370  0.21715540  -0.01379558  1
  H+  H86  1  0.27417136  0.13546566  0.84372670  1
  H+  H87  1  0.84096357  0.86033349  0.52091588  1
  H+  H88  1  0.29063100  0.16531883  0.30395654  1
  H+  H89  1  1.03907766  0.38742704  0.99613707  1
  H+  H90  1  0.47091705  0.41484023  0.04748033  1
  H+  H91  1  0.24410454  0.84984762  0.02255241  1
  H+  H92  1  0.21132062  0.61623059  0.99738889  1
  H+  H93  1  0.74160996  0.62451886  1.01034750  1
  H+  H94  1  0.35238847  0.72435367  0.00903089  1
  H+  H95  1  0.47045568  0.34516473  0.19280554  1
  H+  H96  1  0.40522845  0.15136224  0.64314320  1
  H+  H97  1  0.48405532  0.87467161  0.47633195  1
  H+  H98  1  0.59440844  0.25668424  0.48265749  1
  H+  H99  1  0.51151947  0.73923161  -0.00460574  1
  H+  H100  1  0.87054907  0.86572365  0.32691100  1
  H+  H101  1  0.88804172  0.29145374  0.31955869  1
  H+  H102  1  0.90645780  0.73791627  0.86299141  1
  H+  H103  1  1.03644602  0.41238552  0.81868544  1
  H+  H104  1  0.11698296  0.64027248  0.48190287  1
  H+  H105  1  0.23947162  0.34200166  0.93808960  1
  H+  H106  1  0.13957500  0.28205428  0.32853765  1
  H+  H107  1  0.14150961  0.78482240  0.63827182  1
  H+  H108  1  0.85949821  0.74350810  0.17940019  1
  H+  H109  1  0.52163588  0.13552059  0.02358936  1
  H+  H110  1  0.74564344  0.84499974  0.58502523  1
  H+  H111  1  0.60576348  0.63745670  0.35325522  1
  H+  H112  1  0.37075785  0.85321738  0.17645297  1
  H+  H113  1  0.12419575  0.50104853  0.81892327  1
  H+  H114  1  0.38352313  0.76648250  0.83887441  1
  H+  H115  1  0.77158206  0.39193017  0.34712400  1
  H+  H116  1  0.63058071  1.01700596  0.01342711  1
  H+  H117  1  0.23006560  0.82713869  0.88786096  1
  H+  H118  1  0.64158970  0.53447664  0.33784153  1
  H+  H119  1  0.14644023  0.88063233  0.84809207  1
  H+  H120  1  0.13983841  0.90301133  0.33686183  1
  H+  H121  1  0.86112324  0.98045914  0.14600598  1
  H+  H122  1  0.37496615  0.26164925  0.65809475  1
  H+  H123  1  0.85066801  0.44151547  -0.00419565  1
  H+  H124  1  0.85437614  0.71240990  0.52225273  1
  H+  H125  1  -0.02204321  0.61727742  0.32846562  1
  H+  H126  1  0.29919846  0.39478508  0.84141784  1
  H+  H127  1  0.28349610  0.15384726  0.46848665  1
  H+  H128  1  0.16556427  0.37652945  0.00704443  1
  H+  H129  1  0.36830935  0.88959469  0.81103129  1
  H+  H130  1  0.39281512  0.26998371  0.23433975  1
  H+  H131  1  0.92651696  0.26562841  0.80994430  1
  H+  H132  1  0.11632572  0.22763623  0.49289151  1
  H+  H133  1  0.58626580  0.78027954  0.50319646  1
  H+  H134  1  1.00396488  0.81756450  0.86676116  1
  H+  H135  1  0.62701841  0.52559633  0.84566365  1
  H+  H136  1  0.12264224  0.15025187  0.33663532  1
  H+  H137  1  0.40254810  1.03034340  0.82322267  1
  H+  H138  1  0.23981451  0.89914986  0.48225162  1
  H+  H139  1  0.63859385  0.28455156  0.82571406  1
  H+  H140  1  0.93560766  0.58760483  1.01464664  1
  H+  H141  1  0.13606776  1.00539521  0.84907349  1
  H+  H142  1  0.36941115  0.61715783  0.66734047  1
  H+  H143  1  0.39547460  0.75166863  0.64825719  1
  H+  H144  1  0.09945435  0.26018882  0.69657758  1
  H+  H145  1  0.87746368  0.15688331  0.33062793  1
  H+  H146  1  0.63366400  0.27295537  0.34088081  1
  H+  H147  1  0.97594588  0.41859023  0.10742069  1
  H+  H148  1  0.86647849  0.22603658  0.65452128  1
  H+  H149  1  0.11619835  0.48092824  0.15241280  1
  H+  H150  1  0.63808730  0.29757906  0.65365881  1
  H+  H151  1  0.23862638  0.36800431  0.65982303  1
  H+  H152  1  0.12832143  0.02142225  0.17594218  1
  H+  H153  1  0.50205415  0.61813548  0.65395838  1
  H+  H154  1  0.91209783  0.89654403  0.88084472  1
  H+  H155  1  0.75974033  0.63050586  0.83901206  1
  H+  H156  1  0.07037276  0.59056301  1.02091171  1
  H+  H157  1  0.28670697  0.88907185  0.11018388  1
  H+  H158  1  0.51711298  0.12432301  0.16935586  1
  H+  H159  1  0.02821703  0.63467300  0.78231550  1
  H+  H160  1  0.00413101  0.62564481  0.48858671  1
  H+  H161  1  0.25691823  0.11772732  0.15654691  1
  H+  H162  1  0.36735835  0.40860126  0.79409195  1
  H+  H163  1  0.79568320  0.41714893  0.50206155  1
  H+  H164  1  0.78102587  0.13506123  0.16032293  1
  H+  H165  1  0.10885670  0.12314667  0.83080963  1
  H+  H166  1  0.11057141  0.95603342  0.70327250  1
  H+  H167  1  0.73550299  0.12296630  0.32552182  1
  H+  H168  1  0.46237529  0.08756049  0.49033748  1
  H+  H169  1  0.36609787  0.00776119  0.17687719  1
  H+  H170  1  0.35074593  0.30368904  1.00989985  1
  H+  H171  1  0.39002611  0.39053464  0.34613573  1
  H+  H172  1  0.32483865  0.66391760  0.06759126  1
  H+  H173  1  0.88534526  0.36185138  0.66852036  1
  H+  H174  1  0.45433340  0.59099001  0.59132566  1
  H+  H175  1  0.39167985  0.87515998  0.32507934  1
  H+  H176  1  0.97642858  0.10255464  0.50338615  1
  H+  H177  1  0.12059023  0.40458164  0.67014175  1
  H+  H178  1  0.60235104  0.88408311  0.84334746  1
  H+  H179  1  0.89676577  0.37155258  0.83923679  1
  H+  H180  1  0.53839680  0.41679029  0.49556819  1
  H+  H181  1  0.86492180  0.64128828  0.34531888  1
  H+  H182  1  0.38393472  0.74750441  0.49315993  1
  H+  H183  1  0.77201253  0.64563186  0.17992616  1
  H+  H184  1  1.02376605  0.88332316  0.17677412  1
  H+  H185  1  0.63918771  0.01907659  0.17561894  1
  H+  H186  1  0.70750107  0.57498818  0.50415404  1
  H+  H187  1  0.84297103  0.17092012  0.56805924  1
  H+  H188  1  0.46945167  0.61875262  0.33942401  1
  H+  H189  1  0.36260891  0.72723876  0.16323844  1
  H+  H190  1  0.89518011  0.35681690  0.48223152  1
  H+  H191  1  0.08777229  0.87241027  0.02096588  1
  H+  H192  1  0.52487122  0.15624335  0.64480340  1
  H+  H193  1  0.65484427  0.24824687  0.98230056  1
  H+  H194  1  0.62126368  0.98058571  0.33472399  1
  H+  H195  1  0.31181392  0.07240533  -0.00915630  1
  H+  H196  1  0.34692801  0.20349526  0.14686305  1
  H+  H197  1  0.77213853  0.38587263  0.82946435  1
  H+  H198  1  0.27888833  0.64591962  0.82421086  1
  H+  H199  1  0.47404095  0.61713106  0.82676026  1
  H+  H200  1  0.84062691  0.71894723  0.01031820  1
  H+  H201  1  0.11398705  0.78434439  0.49489329  1
  H+  H202  1  0.61085167  0.73265601  0.82394343  1
  H+  H203  1  0.76555499  0.10359195  0.78500029  1
  H+  H204  1  0.61859035  0.49258074  0.67999211  1
  H+  H205  1  0.61969792  0.87802939  0.16222389  1
  H+  H206  1  0.60893257  0.12765840  0.16972776  1
  H+  H207  1  0.29243484  0.90731703  0.82208200  1
  H+  H208  1  0.16013926  0.58550946  0.26579406  1
  H+  H209  1  0.70331871  0.83878362  0.20814646  1
  H+  H210  1  0.89466076  0.41213624  0.06651903  1
  H+  H211  1  0.76938366  0.88995897  0.13977093  1
  H+  H212  1  0.16054358  0.04540647  0.32550962  1
  H+  H213  1  0.78060918  0.64911477  0.34932364  1
  H+  H214  1  0.21966154  0.36663600  0.18247150  1
  H+  H215  1  0.90699047  0.03463161  0.66718812  1
  H+  H216  1  0.11054349  0.87451811  0.67289284  1
  H+  H217  1  0.37394441  0.40728245  0.49131666  1
  H+  H218  1  0.53467989  0.66069855  0.43824306  1
  H+  H219  1  0.90686650  0.27786986  0.98376519  1
  H+  H220  1  0.48636994  0.83492088  0.65029801  1
  H+  H221  1  0.89473340  0.26876465  0.49449214  1
  H+  H222  1  -0.02469747  0.36570245  0.66356630  1
  H+  H223  1  0.63047717  0.86028148  0.32541594  1
  H+  H224  1  0.40620940  0.82555398  0.90181353  1
  H+  H225  1  0.59715136  0.10377977  0.49477999  1
  H+  H226  1  0.67341063  0.42460059  0.00205220  1
  H+  H227  1  0.26893592  0.39744450  0.34324164  1
  H+  H228  1  0.60276564  0.72447708  0.34768766  1
  H+  H229  1  0.63388697  0.61714740  0.17990462  1
  H+  H230  1  0.60003890  0.43775175  0.40892140  1
  H+  H231  1  0.78890399  0.36459676  0.20389005  1
  H+  H232  1  0.38864938  0.27553896  0.83315838  1
  H+  H233  1  0.14031890  0.52943351  0.64658616  1
  H+  H234  1  0.89110863  0.11593566  0.16543939  1
  H+  H235  1  0.87505575  0.04288001  0.84162083  1
  H+  H236  1  0.09137090  0.44073390  0.72621395  1
  H+  H237  1  0.48013887  0.87434914  0.31945222  1
  H+  H238  1  0.11573414  0.09945779  1.00105357  1
  H+  H239  1  0.88412274  0.77229000  0.68193202  1
  H+  H240  1  0.86385033  0.12909330  0.51390529  1
  H+  H241  1  0.36282476  0.98568371  0.34060929  1
  H+  H242  1  0.95172193  0.93783087  0.87165439  1
  H+  H243  1  0.96261635  0.85124685  0.52080534  1
  H+  H244  1  0.59204916  -0.02547413  0.85374620  1
  H+  H245  1  0.65761185  0.62710156  0.66148409  1
  H+  H246  1  0.43251450  0.54444006  0.49621431  1
  H+  H247  1  0.24002544  0.87006956  0.32513422  1
  H+  H248  1  0.67748464  0.10095125  0.86431132  1
  H+  H249  1  0.98934320  0.62283750  0.66306500  1
  H+  H250  1  0.61914190  0.15461610  0.79367247  1
  H+  H251  1  0.72987305  0.14894629  0.53181192  1
  H+  H252  1  -0.00997543  0.86640574  0.35143489  1
  H+  H253  1  0.10208575  0.75550396  -0.00411867  1
  H+  H254  1  0.37108540  0.15573578  0.47911133  1
  H+  H255  1  0.85930198  0.47442722  0.83634228  1
  H+  H256  1  0.52383029  0.39070879  0.82648494  1
  H+  H257  1  0.64937177  0.07294604  0.67925304  1
  H+  H258  1  0.21805982  0.02252888  0.61195354  1
  H+  H259  1  0.87688734  0.64948551  0.18402394  1
  H+  H260  1  0.13586994  0.64864553  0.65038721  1
  H+  H261  1  0.95407031  0.84066762  1.01252932  1
  H+  H262  1  0.40808697  0.47544285  0.65090144  1
  H+  H263  1  0.18650008  0.22203311  0.12738791  1
  H+  H264  1  0.11350533  0.93550767  0.39638457  1
  H+  H265  1  0.77857777  0.40254140  0.67968720  1
  H+  H266  1  0.61106570  0.88941443  1.01367209  1
  H+  H267  1  0.14682439  0.63471115  0.84161659  1
  H+  H268  1  0.64122241  0.73653892  0.66232341  1
  H+  H269  1  0.68342507  0.85456966  0.50166840  1
  H+  H270  1  0.48500018  0.12246941  0.82928697  1
  H+  H271  1  0.13233791  0.53039627  0.32673545  1
  H+  H272  1  0.36776561  0.47951545  0.18664133  1
  H+  H273  1  0.38982164  0.05507974  0.64617660  1
  H+  H274  1  0.61880950  0.17244405  0.62635802  1
  H+  H275  1  0.26028910  0.61812680  0.47053372  1
  H+  H276  1  0.14868673  0.11625941  0.71006433  1
  H+  H277  1  0.64322373  0.11713616  0.32556128  1
  H+  H278  1  0.09716439  0.42356779  0.42941760  1
  H+  H279  1  0.63545726  0.52842264  0.18340047  1
  H+  H280  1  0.02557766  0.39737960  0.33686206  1
  H+  H281  1  0.29233973  0.29819788  0.92097060  1
  H+  H282  1  0.23514170  0.60971112  0.64448567  1
  H+  H283  1  0.86785972  0.13964565  0.00720369  1
  H+  H284  1  0.11165131  1.00977789  0.48053447  1
  H+  H285  1  0.48186579  0.40090300  0.66414893  1
  H+  H286  1  0.10593385  0.38781289  0.15371380  1
  H+  H287  1  0.31959884  0.40503456  1.03417785  1
  H+  H288  1  0.67144519  0.08242621  0.23299419  1
  H+  H289  1  0.41157600  0.83603171  0.23535924  1
  H+  H290  1  0.92411044  0.09860093  0.93599146  1
  H+  H291  1  0.40825862  0.35115864  0.87773797  1
  H+  H292  1  0.88519385  0.57364477  0.95096502  1
  H+  H293  1  0.16991185  0.88172740  0.16661157  1
  H+  H294  1  0.92354333  0.10021076  0.26291780  1
  H+  H295  1  0.66520182  0.59429161  0.27938639  1
  H+  H296  1  0.97838822  0.64005219  0.18238216  1
  H+  H297  1  0.08555782  0.67066698  0.42127672  1
  H+  H298  1  0.66359351  0.84186356  0.90042853  1
  H+  H299  1  0.11633638  0.73078219  0.33450352  1
  H+  H300  1  0.58225669  0.43176075  0.73926989  1
  H+  H301  1  0.63622203  0.38445878  0.66951660  1
  H+  H302  1  0.56425695  0.40550708  0.11813221  1
  H+  H303  1  0.41831961  0.09763981  0.55054164  1
  H+  H304  1  0.57925012  0.16248670  0.08385885  1
  H+  H305  1  0.32210609  0.92433993  0.39939457  1
  H+  H306  1  0.17592818  0.34242325  0.60336466  1
  H+  H307  1  0.18635026  0.84105259  0.26345390  1
  H+  H308  1  0.13630836  0.27500943  0.17450485  1
  H+  H309  1  0.11946139  0.68899212  0.70965015  1
  H+  H310  1  0.07057571  0.90707567  0.11331851  1
  H+  H311  1  0.83874884  0.42768854  0.43511545  1
  H+  H312  1  0.41386935  0.80428426  0.55366673  1
  H+  H313  1  0.77905226  0.14034380  0.00951207  1
  H+  H314  1  0.33624040  0.65042527  0.72352433  1
  H+  H315  1  0.93630332  0.34414864  0.89548063  1
  H+  H316  1  0.09810759  0.88498334  0.78518709  1
  H+  H317  1  0.16097495  0.06182257  0.63186464  1
  H+  H318  1  0.42207076  0.35425335  0.55711917  1
  H+  H319  1  0.56437908  0.65301441  0.11152835  1
  H+  H320  1  0.91927741  0.80018618  0.94787407  1
  H+  H321  1  0.58763285  0.18402177  0.73692834  1
  H+  H322  1  0.87969015  0.40761671  0.17144555  1
  H+  H323  1  0.78434655  0.63955555  0.68802924  1
  H+  H324  1  0.63454079  0.06403931  0.92815710  1
  H+  H325  1  0.49287777  0.35512017  0.01300714  1
  H+  H326  1  0.16777656  0.59887047  0.90223678  1
  H+  H327  1  0.54063943  0.01838328  0.46013677  1
  H+  H328  1  0.08799030  0.17610570  0.39602278  1
  H+  H329  1  0.09523643  0.42302614  0.05739063  1
  H+  H330  1  0.64872858  0.78996645  0.99276975  1
  H+  H331  1  0.09575263  0.17249802  0.07255464  1
  H+  H332  1  0.81789401  0.93081018  0.76256314  1
  H+  H333  1  0.07207903  0.19463119  0.75440044  1
  H+  H334  1  0.83680898  0.42346463  0.73885029  1
  H+  H335  1  0.57095658  0.91753446  0.39052797  1
  H+  H336  1  0.85327662  0.19316193  0.38987399  1
  H+  H337  1  0.57227026  0.89529139  0.73662888  1
  H+  H338  1  0.70112126  0.39885279  0.58336733  1
  H+  H339  1  0.74032483  0.09264435  0.65421285  1
  H+  H340  1  0.66449208  0.08987555  0.58034504  1
  H+  H341  1  0.63242612  0.10766678  1.01398587  1
  H+  H342  1  0.90166969  0.61563578  0.50638654  1
  H+  H343  1  0.02412509  0.13004321  0.83827442  1
  H+  H344  1  0.37797341  0.03728978  0.92141178  1
  H+  H345  1  0.90353828  0.77897190  0.36928776  1
  H+  H346  1  0.57947328  0.90915087  0.07706552  1
  H+  H347  1  0.17475604  0.07506930  0.52926249  1
  H+  H348  1  0.62642274  0.80878247  0.26673140  1
  H+  H349  1  0.14627679  0.06189601  0.90701000  1
  H+  H350  1  0.87759126  0.14028889  0.65067189  1
  H+  H351  1  0.66234448  0.84295434  0.60130655  1
  H+  H352  1  0.91695956  0.60099076  0.24270543  1
  H+  H353  1  0.83697261  0.92277447  0.05575580  1
  H+  H354  1  0.32719227  0.93889102  0.71157627  1
  H+  H355  1  0.13363101  0.52125512  0.98883991  1
  H+  H356  1  0.57308847  0.13488662  0.39696342  1
  H+  H357  1  0.30766992  0.11559968  0.05568400  1
  H+  H358  1  0.78480742  0.89811942  0.66817878  1
  H+  H359  1  0.61633792  0.39563779  0.83128430  1
  H+  H360  1  0.61132060  0.50894472  1.00078702  1
  H+  H361  1  0.41808025  0.08228411  0.26399140  1
  H+  H362  1  0.06568493  0.65096197  0.11033634  1
  H+  H363  1  0.17018325  0.09363866  0.26277599  1
  H+  H364  1  0.67466902  0.31757526  0.89264860  1
  H+  H365  1  0.16348036  0.33884917  0.26800089  1
  H+  H366  1  0.47306030  0.53233072  0.05246462  1
  H+  H367  1  0.89915793  0.53517529  0.67528505  1
  H+  H368  1  0.93231924  0.07911277  0.56802126  1
  H+  H369  1  0.17221571  0.58835563  0.55013578  1
  H+  H370  1  0.82553652  0.65811924  0.78076269  1
  H+  H371  1  0.36445212  0.13915473  0.83790093  1
  H+  H372  1  0.91085061  0.82135354  0.58540756  1
  H+  H373  1  0.60411684  0.68400639  0.72584503  1
  H+  H374  1  0.33647321  0.43808652  0.43761644  1
  H+  H375  1  0.46990653  0.86240674  0.99952202  1
  H+  H376  1  0.84045201  0.16992124  0.10186058  1
  H+  H377  1  0.16285589  0.83603397  0.95136329  1
  H+  H378  1  0.64790947  0.58180437  0.90627442  1
  H+  H379  1  0.35589657  0.41483338  0.10090564  1
  H+  H380  1  0.40391116  0.58796346  0.92074702  1
  H+  H381  1  0.14649004  0.84480593  0.58156761  1
  H+  H382  1  0.88189158  0.85223497  0.23217852  1
  H+  H383  1  0.43093474  0.37295294  0.28833948  1
  O2-  O384  1  0.12652008  0.18809394  0.14015140  1
  O2-  O385  1  0.08235599  0.17017273  0.47378266  1
  O2-  O386  1  0.08159095  0.15706657  0.81894273  1
  O2-  O387  1  0.08542190  0.42326782  0.13267466  1
  O2-  O388  1  0.09319903  0.42068583  0.47498347  1
  O2-  O389  1  0.09384790  0.44466768  0.79860637  1
  O2-  O390  1  0.07914491  0.67064283  0.15378804  1
  O2-  O391  1  0.08388162  0.66908871  0.46804786  1
  O2-  O392  1  0.08563395  0.67733145  0.79608903  1
  O2-  O393  1  0.08182819  0.91033823  0.15821535  1
  O2-  O394  1  0.04679784  0.90703790  0.47833466  1
  O2-  O395  1  0.09851916  0.88805085  0.83010250  1
  O2-  O396  1  0.31671390  0.14184663  0.13737676  1
  O2-  O397  1  0.34611242  0.19225643  0.46767984  1
  O2-  O398  1  0.33464247  0.17190149  0.83088929  1
  O2-  O399  1  0.33544347  0.41770211  0.17342856  1
  O2-  O400  1  0.34674231  0.44307939  0.48263501  1
  O2-  O401  1  0.32948882  0.43108740  0.80518003  1
  O2-  O402  1  0.33309411  0.66699211  0.14680802  1
  O2-  O403  1  0.32038774  0.63666978  0.45419727  1
  O2-  O404  1  0.33839417  0.67538765  0.80715521  1
  O2-  O405  1  0.28776073  0.89556107  0.15610736  1
  O2-  O406  1  0.30014773  0.92495896  0.46799045  1
  O2-  O407  1  0.34315458  0.92383920  0.79565219  1
  O2-  O408  1  0.57833096  0.15935402  0.15688759  1
  O2-  O409  1  0.54981865  0.07781732  0.46396372  1
  O2-  O410  1  0.58727353  0.18315254  0.78232368  1
  O2-  O411  1  0.57495947  0.41029757  0.16249700  1
  O2-  O412  1  0.59974044  0.45111989  0.48258403  1
  O2-  O413  1  0.58738165  0.42724595  0.81625396  1
  O2-  O414  1  0.57996141  0.66737867  0.15473392  1
  O2-  O415  1  0.50747084  0.66838432  0.47602666  1
  O2-  O416  1  0.58653469  0.67526063  0.80480512  1
  O2-  O417  1  0.58762406  0.91064848  0.15069922  1
  O2-  O418  1  0.54299554  0.92179164  0.46031382  1
  O2-  O419  1  0.56703409  0.91402887  0.83228253  1
  O2-  O420  1  0.84160797  0.16389278  0.14676413  1
  O2-  O421  1  0.83913244  0.16695246  0.52245549  1
  O2-  O422  1  0.91771672  0.21215554  0.78949909  1
  O2-  O423  1  0.85005707  0.38440386  0.21083612  1
  O2-  O424  1  0.85044470  0.43190955  0.48043845  1
  O2-  O425  1  0.83413780  0.41761912  0.81627821  1
  O2-  O426  1  0.83455742  0.67992741  0.16810031  1
  O2-  O427  1  0.83209434  0.65162292  0.50487860  1
  O2-  O428  1  0.82090075  0.65238815  0.82656567  1
  O2-  O429  1  0.83266590  0.92191232  0.12694470  1
  O2-  O430  1  0.80426319  0.88755435  0.52004628  1
  O2-  O431  1  0.80915239  0.93273616  0.80836812  1
  O2-  O432  1  0.16452568  0.08294648  0.18725740  1
  O2-  O433  1  0.15578155  0.07368237  0.48712712  1
  O2-  O434  1  0.15858940  0.06540051  0.86247733  1
  O2-  O435  1  0.15706834  0.33511851  0.19137432  1
  O2-  O436  1  0.17450181  0.34004659  0.52476829  1
  O2-  O437  1  0.26405728  0.32733815  0.90250230  1
  O2-  O438  1  0.16642429  0.58277457  0.18584849  1
  O2-  O439  1  0.16607976  0.58606210  0.50475280  1
  O2-  O440  1  0.17765946  0.60637840  0.85707592  1
  O2-  O441  1  0.19732546  0.84634016  0.17650670  1
  O2-  O442  1  0.13423113  0.84238942  0.51099049  1
  O2-  O443  1  0.21583908  0.87263812  0.89044454  1
  O2-  O444  1  0.40454376  0.06939445  0.18536558  1
  O2-  O445  1  0.41075219  0.08897302  0.50569420  1
  O2-  O446  1  0.42803514  0.08439601  0.84735974  1
  O2-  O447  1  0.40802317  0.31645530  0.20362714  1
  O2-  O448  1  0.42708423  0.35438172  0.51245073  1
  O2-  O449  1  0.42205225  0.34061653  0.83686585  1
  O2-  O450  1  0.41558937  0.58778493  0.20038972  1
  O2-  O451  1  0.48801506  0.59302264  0.51328247  1
  O2-  O452  1  0.41373520  0.58958843  0.84131383  1
  O2-  O453  1  0.40835633  0.83073310  0.18865010  1
  O2-  O454  1  0.40319125  0.80515026  0.50916539  1
  O2-  O455  1  0.41227244  0.82791601  0.85634280  1
  O2-  O456  1  0.66723476  0.08087472  0.18750883  1
  O2-  O457  1  0.67316611  0.13382601  0.54963509  1
  O2-  O458  1  0.62248836  0.05894168  0.88183405  1
  O2-  O459  1  0.66351165  0.33075273  0.19999861  1
  O2-  O460  1  0.71862501  0.42615466  0.54184942  1
  O2-  O461  1  0.66805932  0.33750432  0.85036309  1
  O2-  O462  1  0.66657451  0.58948907  0.19638623  1
  O2-  O463  1  0.75117251  0.59568448  0.53688943  1
  O2-  O464  1  0.65497312  0.58654517  0.86140093  1
  O2-  O465  1  0.67274149  0.83119608  0.17001773  1
  O2-  O466  1  0.62534122  0.84124312  0.51392782  1
  O2-  O467  1  0.65333164  0.84086954  0.85535649  1
  O2-  O468  1  0.91979072  0.08169700  0.17930638  1
  O2-  O469  1  0.91930526  0.06948961  0.52374890  1
  O2-  O470  1  0.91608665  0.09786713  0.86076964  1
  O2-  O471  1  0.93885132  0.44374464  0.10203739  1
  O2-  O472  1  0.92442976  0.32444336  0.47215600  1
  O2-  O473  1  0.93714232  0.35092206  0.84961640  1
  O2-  O474  1  0.91775192  0.61350128  0.19734392  1
  O2-  O475  1  0.93898280  0.58858936  0.50946187  1
  O2-  O476  1  0.89592857  0.57496535  0.87394277  1
  O2-  O477  1  0.90353624  0.84252184  0.19201571  1
  O2-  O478  1  0.90341167  0.81287495  0.54059666  1
  O2-  O479  1  0.95458883  0.77359580  0.89106479  1
  O2-  O480  1  0.18159018  0.10368191  0.30768623  1
  O2-  O481  1  0.20984498  0.07184677  0.60669878  1
  O2-  O482  1  0.13137435  0.05559324  0.98598475  1
  O2-  O483  1  0.16850796  0.34314546  0.31354717  1
  O2-  O484  1  0.17856776  0.34746490  0.64887288  1
  O2-  O485  1  0.20212312  0.34906421  1.00781564  1
  O2-  O486  1  0.15519399  0.58955315  0.31043511  1
  O2-  O487  1  0.17600151  0.58877163  0.62822986  1
  O2-  O488  1  0.15239458  0.58344653  0.97934331  1
  O2-  O489  1  0.17905534  0.83876234  0.30791976  1
  O2-  O490  1  0.15732532  0.84498081  0.62755230  1
  O2-  O491  1  0.14046843  0.81753022  0.99539660  1
  O2-  O492  1  0.42125786  0.09287100  0.30861798  1
  O2-  O493  1  0.42862912  0.11366076  0.62846067  1
  O2-  O494  1  0.33167967  0.00405043  0.95114395  1
  O2-  O495  1  0.42817320  0.36679911  0.33270235  1
  O2-  O496  1  0.42614886  0.37574011  0.64016314  1
  O2-  O497  1  0.36871666  0.27969115  0.97674392  1
  O2-  O498  1  0.40922883  0.59165604  0.32344416  1
  O2-  O499  1  0.44386145  0.58145836  0.63579008  1
  O2-  O500  1  0.39817100  0.58168548  0.96563298  1
  O2-  O501  1  0.41959184  0.84573591  0.30524270  1
  O2-  O502  1  0.42911083  0.81003378  0.63099704  1
  O2-  O503  1  0.41146454  0.83276502  0.98055287  1
  O2-  O504  1  0.67501535  0.08816626  0.31067182  1
  O2-  O505  1  0.67591313  0.04901817  0.65316208  1
  O2-  O506  1  0.65996336  0.07650969  0.99553216  1
  O2-  O507  1  0.66423880  0.33289876  0.32482370  1
  O2-  O508  1  0.67249373  0.36157552  0.65224415  1
  O2-  O509  1  0.69838389  0.28359847  0.95211265  1
  O2-  O510  1  0.66623273  0.59573825  0.32451033  1
  O2-  O511  1  0.68738716  0.59294916  0.65345494  1
  O2-  O512  1  0.64056455  0.57026397  0.98859999  1
  O2-  O513  1  0.64972989  0.82038882  0.30808511  1
  O2-  O514  1  0.70558763  0.83211319  0.62056419  1
  O2-  O515  1  0.67574833  0.84799093  0.97626278  1
  O2-  O516  1  0.92424938  0.11010282  0.30722222  1
  O2-  O517  1  0.93738690  0.09166927  0.64714293  1
  O2-  O518  1  0.92586183  0.09463898  0.98154717  1
  O2-  O519  1  0.91646417  0.35418551  0.31085097  1
  O2-  O520  1  0.91322097  0.32948335  0.65421032  1
  O2-  O521  1  0.93838375  0.33785939  0.96869781  1
  O2-  O522  1  0.91687470  0.58833655  0.31369031  1
  O2-  O523  1  0.92680972  0.59831583  0.66814342  1
  O2-  O524  1  0.87923204  0.57454107  0.99610699  1
  O2-  O525  1  0.93464354  0.84353074  0.37271638  1
  O2-  O526  1  0.91366272  0.83262513  0.66529278  1
  O2-  O527  1  0.89830030  0.80873565  0.98922519  1
  O2-  O528  1  0.09312755  0.17251209  0.02555190  1
  O2-  O529  1  0.09076204  0.17946988  0.35053627  1
  O2-  O530  1  0.05024281  0.21305253  0.71830093  1
  O2-  O531  1  0.09998890  0.42219695  0.01179187  1
  O2-  O532  1  0.08568155  0.42539658  0.35226730  1
  O2-  O533  1  0.08874013  0.43479112  0.68001447  1
  O2-  O534  1  0.02548101  0.59241674  0.04679974  1
  O2-  O535  1  0.08254859  0.67097465  0.35042523  1
  O2-  O536  1  0.10863092  0.68280563  0.66571851  1
  O2-  O537  1  0.05537315  0.89988577  0.03701414  1
  O2-  O538  1  0.11620514  0.93964815  0.35170640  1
  O2-  O539  1  0.08102344  0.89358025  0.70447065  1
  O2-  O540  1  0.29708652  0.11334756  0.01130100  1
  O2-  O541  1  0.35479575  0.19976199  0.29812481  1
  O2-  O542  1  0.35486344  0.20049788  0.66652308  1
  O2-  O543  1  0.37201185  0.41630418  0.05681949  1
  O2-  O544  1  0.32814772  0.42932130  0.36144571  1
  O2-  O545  1  0.37756767  0.41414234  0.66614388  1
  O2-  O546  1  0.31739068  0.66372067  0.02247026  1
  O2-  O547  1  0.31576166  0.63978465  0.39287724  1
  O2-  O548  1  0.33408091  0.64323604  0.67880514  1
  O2-  O549  1  0.30538677  0.88537714  0.03564425  1
  O2-  O550  1  0.33362528  0.92470332  0.35367167  1
  O2-  O551  1  0.32055367  0.95838807  0.67125680  1
  O2-  O552  1  0.58063961  0.16049033  0.03762914  1
  O2-  O553  1  0.58333753  0.16074411  0.35525182  1
  O2-  O554  1  0.58874008  0.18694760  0.65728827  1
  O2-  O555  1  0.52038358  0.40602579  0.03950339  1
  O2-  O556  1  0.59584395  0.43057484  0.36328622  1
  O2-  O557  1  0.57924006  0.43206048  0.69359211  1
  O2-  O558  1  0.51578390  0.59005149  0.03757770  1
  O2-  O559  1  0.57242140  0.66585489  0.36632289  1
  O2-  O560  1  0.60710665  0.67843033  0.68084800  1
  O2-  O561  1  0.57632381  0.91308198  0.03097994  1
  O2-  O562  1  0.58729118  0.91875749  0.34635090  1
  O2-  O563  1  0.58614479  0.88330779  0.69621394  1
  O2-  O564  1  0.84016818  0.17288138  0.02161646  1
  O2-  O565  1  0.84341134  0.18554452  0.34615097  1
  O2-  O566  1  0.83708728  0.16259454  0.64398350  1
  O2-  O567  1  0.84090452  0.38623819  0.01046426  1
  O2-  O568  1  0.83250425  0.42645061  0.36139525  1
  O2-  O569  1  0.83910891  0.42695456  0.69338885  1
  O2-  O570  1  0.80402133  0.65458703  0.02422028  1
  O2-  O571  1  0.83984733  0.67334205  0.36497084  1
  O2-  O572  1  0.84210379  0.67163529  0.70794132  1
  O2-  O573  1  0.83617364  0.92073322  0.00920419  1
  O2-  O574  1  0.84116416  0.87532471  0.29168323  1
  O2-  O575  1  0.83880346  0.92743590  0.69306591  1
