# generated using pymatgen
data_H2O
_symmetry_space_group_name_H-M   'P 1'
_cell_length_a   17.97942737
_cell_length_b   17.97455455
_cell_length_c   22.00028169
_cell_angle_alpha   90.02537980
_cell_angle_beta   89.96000259
_cell_angle_gamma   120.00115072
_symmetry_Int_Tables_number   1
_chemical_formula_structural   H2O
_chemical_formula_sum   'H384 O192'
_cell_volume   6157.26323624
_cell_formula_units_Z   192
loop_
 _symmetry_equiv_pos_site_id
 _symmetry_equiv_pos_as_xyz
  1  'x, y, z'
loop_
 _atom_type_symbol
 _atom_type_oxidation_number
  H+  1.0
  O2-  -2.0
loop_
 _atom_site_type_symbol
 _atom_site_label
 _atom_site_symmetry_multiplicity
 _atom_site_fract_x
 _atom_site_fract_y
 _atom_site_fract_z
 _atom_site_occupancy
  H+  H0  1  0.14271981  0.27819712  0.49620883  1
  H+  H1  1  0.47749238  0.11239733  0.99622001  1
  H+  H2  1  0.76339275  0.07967075  0.68090140  1
  H+  H3  1  0.60907036  0.85966391  0.48628326  1
  H+  H4  1  0.62839224  0.77314717  0.84621140  1
  H+  H5  1  0.10878786  0.37875240  0.33861835  1
  H+  H6  1  0.63964238  0.36719419  0.17222662  1
  H+  H7  1  0.89174690  0.41445345  0.47666522  1
  H+  H8  1  0.35902477  0.08701371  0.48863098  1
  H+  H9  1  0.24341795  0.90911639  0.53164233  1
  H+  H10  1  0.32764086  0.45746430  0.79050093  1
  H+  H11  1  0.86978466  0.96976462  0.67457768  1
  H+  H12  1  0.47497602  0.08623067  0.66697637  1
  H+  H13  1  0.26972184  0.46812659  0.38041793  1
  H+  H14  1  0.15027547  0.78335727  0.18363623  1
  H+  H15  1  0.36365835  0.73644532  0.00318297  1
  H+  H16  1  0.11334408  0.25518583  0.68144003  1
  H+  H17  1  0.23540931  0.61872874  0.17393648  1
  H+  H18  1  0.86244080  0.47591871  0.15393499  1
  H+  H19  1  0.60707446  0.23293098  0.16347015  1
  H+  H20  1  0.52546763  0.12912665  0.33010224  1
  H+  H21  1  0.39424637  0.10635925  0.83414629  1
  H+  H22  1  0.54701146  0.90650424  0.03198726  1
  H+  H23  1  0.38306220  0.83169669  0.91869031  1
  H+  H24  1  0.67535406  0.78804017  0.26628065  1
  H+  H25  1  0.00833958  0.69937792  0.53209442  1
  H+  H26  1  0.08909170  0.38191815  0.68583739  1
  H+  H27  1  0.62496107  0.38339624  0.34797261  1
  H+  H28  1  0.16427235  0.32390298  0.23097612  1
  H+  H29  1  0.65357137  0.33071068  0.98176063  1
  H+  H30  1  0.15777784  0.87663813  0.17518757  1
  H+  H31  1  0.72533850  0.61604521  0.49010900  1
  H+  H32  1  0.87163978  0.24087259  0.15446624  1
  H+  H33  1  0.11716213  0.63960118  0.00724667  1
  H+  H34  1  0.87075969  0.89562321  1.00940829  1
  H+  H35  1  0.41915759  0.60193126  0.92360219  1
  H+  H36  1  0.88969189  0.02334614  0.32319612  1
  H+  H37  1  0.62305636  0.65083331  1.00547748  1
  H+  H38  1  0.52602914  0.64939294  0.01053430  1
  H+  H39  1  0.10898374  0.20540513  0.83019671  1
  H+  H40  1  0.70989247  0.10650532  0.49945033  1
  H+  H41  1  0.13048986  0.27400843  0.16688069  1
  H+  H42  1  0.88601291  0.77683410  -0.00402500  1
  H+  H43  1  0.60852160  0.09390053  0.50151807  1
  H+  H44  1  0.61465851  1.00789666  0.35834436  1
  H+  H45  1  0.39678726  0.35194047  0.31309871  1
  H+  H46  1  0.62744103  0.51884091  0.18590990  1
  H+  H47  1  0.64228243  0.86816615  0.99808497  1
  H+  H48  1  0.87792911  0.60641727  0.84039229  1
  H+  H49  1  0.78145254  0.63923784  0.83244200  1
  H+  H50  1  0.14499571  0.86390667  0.33296807  1
  H+  H51  1  0.03207897  0.39347395  0.16246823  1
  H+  H52  1  0.49390023  0.12600302  0.47606301  1
  H+  H53  1  0.49134652  0.87238381  0.18188746  1
  H+  H54  1  0.91904164  0.82321833  0.60102551  1
  H+  H55  1  0.61989338  -0.00040826  0.67378595  1
  H+  H56  1  0.61187008  0.88328955  0.67486033  1
  H+  H57  1  0.78330534  0.89570829  0.00778461  1
  H+  H58  1  0.65868405  0.36098946  0.66697815  1
  H+  H59  1  0.38531554  0.74912320  0.50825547  1
  H+  H60  1  0.91033204  0.86947174  0.15864165  1
  H+  H61  1  0.76266124  0.38797936  0.81373317  1
  H+  H62  1  0.86120534  0.63709961  0.15929984  1
  H+  H63  1  0.65544153  0.16454677  0.31781801  1
  H+  H64  1  0.60088740  0.64674377  0.69974548  1
  H+  H65  1  0.56359898  0.38396501  0.43293994  1
  H+  H66  1  0.18114772  0.63664594  0.50801918  1
  H+  H67  1  0.28486477  0.89059904  0.16431341  1
  H+  H68  1  0.60376991  0.49733004  0.01009913  1
  H+  H69  1  0.46828639  0.83856353  0.32646152  1
  H+  H70  1  0.11149130  0.10951510  0.67650680  1
  H+  H71  1  0.43485036  0.35893323  0.65870830  1
  H+  H72  1  0.62693381  0.63630210  0.33531715  1
  H+  H73  1  0.89772426  0.52980961  0.99164313  1
  H+  H74  1  0.59121287  0.40352048  1.00350297  1
  H+  H75  1  0.04708806  0.40191306  0.01420050  1
  H+  H76  1  0.12358363  0.88503532  0.82095056  1
  H+  H77  1  0.41406983  0.61289485  0.49282749  1
  H+  H78  1  0.46217284  0.86659701  0.95941718  1
  H+  H79  1  0.67368012  0.60135648  0.94074382  1
  H+  H80  1  0.61781468  0.13085102  0.68226180  1
  H+  H81  1  -0.01951274  0.62208109  -0.01280624  1
  H+  H82  1  0.46509780  0.37769263  0.98685462  1
  H+  H83  1  0.34966287  0.20838626  0.48999710  1
  H+  H84  1  0.64532512  0.53076461  0.85345258  1
  H+  H85  1  0.12044236  0.39026092  0.16597714  1
  H+  H86  1  0.28548440  0.61582220  0.49596512  1
  H+  H87  1  1.03392055  0.88454119  0.82021124  1
  H+  H88  1  0.84921079  0.52315616  0.31542088  1
  H+  H89  1  0.75158992  0.88233635  0.15251796  1
  H+  H90  1  0.62249701  0.75431498  0.51023115  1
  H+  H91  1  0.61875002  0.27986466  0.50675425  1
  H+  H92  1  0.65317500  0.92918279  0.17263992  1
  H+  H93  1  0.88360517  0.34116167  0.32792090  1
  H+  H94  1  0.14695343  0.52768082  0.17307485  1
  H+  H95  1  0.87138744  0.76206617  0.50973694  1
  H+  H96  1  0.64419778  0.78074506  0.65469717  1
  H+  H97  1  0.64729820  0.65985016  0.19028915  1
  H+  H98  1  0.86136609  -0.02808086  0.49489827  1
  H+  H99  1  0.62516572  0.51971165  0.70088341  1
  H+  H100  1  0.53934815  0.34581976  0.70920343  1
  H+  H101  1  0.01838838  0.21732305  0.11044832  1
  H+  H102  1  0.17765328  0.34026343  0.65014287  1
  H+  H103  1  0.60973411  0.84599539  0.32395968  1
  H+  H104  1  0.84799459  0.50013494  0.50772381  1
  H+  H105  1  0.23259995  0.36518580  0.49688430  1
  H+  H106  1  0.82463910  0.90321219  0.76567012  1
  H+  H107  1  0.36504972  0.14543795  0.99659479  1
  H+  H108  1  0.89637194  0.77318759  0.84223763  1
  H+  H109  1  0.12367536  0.23198765  0.99728677  1
  H+  H110  1  0.32779359  0.92033546  0.76674039  1
  H+  H111  1  1.14775869  0.12448937  0.98475711  1
  H+  H112  1  0.87456959  0.88323963  0.67107222  1
  H+  H113  1  0.11552334  0.88274620  0.00760641  1
  H+  H114  1  0.11278724  0.12975407  0.33580247  1
  H+  H115  1  0.12151266  0.72767023  0.82416440  1
  H+  H116  1  0.45060750  0.87002224  0.82690728  1
  H+  H117  1  0.85766384  0.63744386  0.00940722  1
  H+  H118  1  0.37703594  0.73522662  0.16374452  1
  H+  H119  1  0.10505771  0.42904773  0.07380874  1
  H+  H120  1  0.46486899  0.34582504  0.50119982  1
  H+  H121  1  0.26976156  0.38064784  0.15941207  1
  H+  H122  1  0.77380780  0.88049824  0.49165613  1
  H+  H123  1  0.13009182  0.10670457  0.50400447  1
  H+  H124  1  0.87232505  0.11814176  0.17002232  1
  H+  H125  1  0.34987010  0.62336230  0.67329844  1
  H+  H126  1  0.89439279  0.37004155  0.16754179  1
  H+  H127  1  0.37585836  0.89238848  0.16256284  1
  H+  H128  1  0.10165943  0.47567035  0.67731556  1
  H+  H129  1  0.71853817  0.88330510  0.24932656  1
  H+  H130  1  0.36173931  0.46629403  0.16151532  1
  H+  H131  1  0.80716110  0.97987333  0.17577020  1
  H+  H132  1  0.27895451  0.89055959  0.34633164  1
  H+  H133  1  0.55810177  0.26851867  0.96314668  1
  H+  H134  1  0.88289223  0.85566139  0.50638415  1
  H+  H135  1  0.36124152  0.23414424  0.99507187  1
  H+  H136  1  0.62188331  0.74832549  0.00109377  1
  H+  H137  1  0.84836365  0.11004093  0.33553163  1
  H+  H138  1  0.88939789  0.11375770  0.49999877  1
  H+  H139  1  0.17965681  0.58631100  0.56820004  1
  H+  H140  1  0.56920015  0.91082680  0.76647245  1
  H+  H141  1  0.36481746  0.40215947  0.00253826  1
  H+  H142  1  0.63913477  0.57866383  0.64602817  1
  H+  H143  1  0.75232137  0.11531764  0.83103882  1
  H+  H144  1  0.14303475  0.00237406  0.65267787  1
  H+  H145  1  0.60124766  0.38617158  0.49871196  1
  H+  H146  1  0.63660091  0.12925678  0.17189370  1
  H+  H147  1  0.62832287  0.02500343  0.39008702  1
  H+  H148  1  0.89343156  1.02913647  0.00191253  1
  H+  H149  1  0.39559687  0.63132257  0.00987937  1
  H+  H150  1  0.02415909  0.13257752  0.33419007  1
  H+  H151  1  0.38828385  0.62031248  0.17256475  1
  H+  H152  1  0.16204013  0.31729606  0.89391881  1
  H+  H153  1  0.84500292  0.18354000  0.05537114  1
  H+  H154  1  0.22656526  0.10852659  0.32882392  1
  H+  H155  1  0.58614801  0.16327275  0.76789429  1
  H+  H156  1  0.98404643  0.84559468  0.65672324  1
  H+  H157  1  0.99255889  0.20367319  0.63199860  1
  H+  H158  1  0.24906283  0.76564631  0.46629421  1
  H+  H159  1  0.59109670  0.69553774  0.10943579  1
  H+  H160  1  0.85872636  0.74210946  0.30929763  1
  H+  H161  1  0.36222530  0.89521567  0.00341568  1
  H+  H162  1  0.14599213  0.36930875  0.99327296  1
  H+  H163  1  0.58040323  0.42749689  0.10485221  1
  H+  H164  1  0.46207920  0.60186743  0.65516396  1
  H+  H165  1  0.05541768  0.90442786  0.16473606  1
  H+  H166  1  0.17590660  0.08487426  0.92424301  1
  H+  H167  1  0.60658100  0.38756546  0.83055637  1
  H+  H168  1  0.13128368  0.26135330  0.32415911  1
  H+  H169  1  0.84425884  0.12458647  0.84128949  1
  H+  H170  1  0.23386680  0.37072415  0.99003844  1
  H+  H171  1  0.47635284  0.11431544  0.17880331  1
  H+  H172  1  0.46737281  0.61853741  0.32495184  1
  H+  H173  1  0.35985478  0.25766937  0.65656366  1
  H+  H174  1  0.37006238  0.35814162  0.82351685  1
  H+  H175  1  0.97595296  0.37308804  0.65824585  1
  H+  H176  1  1.03008024  0.12404633  0.67348191  1
  H+  H177  1  0.99262056  0.38235999  0.49725580  1
  H+  H178  1  0.38546837  0.02958063  0.99473288  1
  H+  H179  1  1.02218827  0.87571002  0.49530616  1
  H+  H180  1  0.14111801  0.10113032  0.83704350  1
  H+  H181  1  0.11767316  0.89010173  0.50223521  1
  H+  H182  1  0.55756321  0.37821151  0.64192571  1
  H+  H183  1  0.20806528  0.33736785  0.82926552  1
  H+  H184  1  0.94944368  0.60107589  0.31204909  1
  H+  H185  1  0.34995510  0.63815499  0.33126407  1
  H+  H186  1  0.90127791  0.29698687  0.49337922  1
  H+  H187  1  0.14497238  0.77802559  0.98624080  1
  H+  H188  1  0.71705549  0.86063526  0.83965250  1
  H+  H189  1  0.51590232  0.37668596  0.15636274  1
  H+  H190  1  0.36115245  0.22047667  0.82217271  1
  H+  H191  1  0.36114127  0.65105172  0.83654432  1
  H+  H192  1  0.98555916  0.37796324  0.32563073  1
  H+  H193  1  0.39521461  0.53929622  0.00851805  1
  H+  H194  1  0.73877919  0.11957402  -0.01135703  1
  H+  H195  1  0.71803206  0.63897856  0.32798014  1
  H+  H196  1  0.18328569  0.05484909  0.17037473  1
  H+  H197  1  0.87436432  0.14614402  0.00024091  1
  H+  H198  1  0.13659048  0.62152448  0.65639912  1
  H+  H199  1  0.39084932  0.76375207  0.66109421  1
  H+  H200  1  0.38846711  1.01504796  0.17632871  1
  H+  H201  1  0.41939265  0.58059301  0.59093335  1
  H+  H202  1  0.27018173  0.13027531  0.66823602  1
  H+  H203  1  0.84267158  0.64660889  0.30439316  1
  H+  H204  1  0.90223723  0.12682834  0.65779346  1
  H+  H205  1  0.24837508  0.13035450  -0.01412769  1
  H+  H206  1  0.62703244  0.22412692  0.67585826  1
  H+  H207  1  0.14977323  0.53523562  0.00151691  1
  H+  H208  1  0.12700853  0.01497428  0.50370110  1
  H+  H209  1  0.02748946  0.88268743  0.01433422  1
  H+  H210  1  0.36932023  0.89355322  0.34738102  1
  H+  H211  1  0.63525621  -0.01064757  1.01391807  1
  H+  H212  1  0.14474055  1.01345559  0.83665040  1
  H+  H213  1  0.62815686  0.26484496  0.82242121  1
  H+  H214  1  0.74770713  0.15444533  0.31690170  1
  H+  H215  1  0.91803321  0.49414346  0.43338009  1
  H+  H216  1  0.99412137  0.08199197  0.84713824  1
  H+  H217  1  0.62993288  0.21091043  0.02110729  1
  H+  H218  1  0.61612220  0.11978222  1.01189244  1
  H+  H219  1  0.88580421  0.51851870  0.65902140  1
  H+  H220  1  0.78291674  0.15586118  0.48901134  1
  H+  H221  1  0.61884953  0.01547368  0.84137594  1
  H+  H222  1  0.38528483  0.10866541  0.32464881  1
  H+  H223  1  0.87994660  0.60653375  0.66132402  1
  H+  H224  1  0.22094964  0.61410643  0.66303655  1
  H+  H225  1  0.58549013  0.14646076  0.49938259  1
  H+  H226  1  0.52404158  0.34706024  0.33808653  1
  H+  H227  1  0.90478505  0.88063248  0.32180883  1
  H+  H228  1  0.97169366  0.61111277  0.17343447  1
  H+  H229  1  0.90118977  0.40102111  -0.00057905  1
  H+  H230  1  0.52414844  0.13560510  0.82830988  1
  H+  H231  1  0.23161539  0.86886918  -0.00913396  1
  H+  H232  1  1.03416334  0.14103067  0.99784224  1
  H+  H233  1  0.13132268  0.61562590  0.84553932  1
  H+  H234  1  1.00160668  0.67139941  0.50495712  1
  H+  H235  1  0.08401363  0.16239353  0.42996640  1
  H+  H236  1  0.27804758  0.12816284  0.82277937  1
  H+  H237  1  0.60676687  0.50761502  0.46578303  1
  H+  H238  1  0.87003044  0.50629787  0.83898574  1
  H+  H239  1  0.59218139  0.88304907  0.82915411  1
  H+  H240  1  0.92710798  0.09852434  0.56051544  1
  H+  H241  1  0.13865893  0.01994483  0.32809539  1
  H+  H242  1  0.77271328  0.63808798  0.68940178  1
  H+  H243  1  1.01681222  0.38848917  0.84398996  1
  H+  H244  1  0.51376955  0.86897234  0.67055892  1
  H+  H245  1  0.89823890  0.57488299  0.22312830  1
  H+  H246  1  0.85910761  0.95639351  0.82785683  1
  H+  H247  1  0.13230752  0.51853102  0.32660697  1
  H+  H248  1  0.85272895  0.25234587  0.82966279  1
  H+  H249  1  0.10329668  0.72087089  0.32010287  1
  H+  H250  1  0.32361984  0.36504515  0.64889029  1
  H+  H251  1  0.88509283  0.85467019  0.83720241  1
  H+  H252  1  0.92058173  0.28998246  0.98095836  1
  H+  H253  1  0.73580319  0.86615450  0.65500043  1
  H+  H254  1  0.27779709  0.64632929  0.00986100  1
  H+  H255  1  0.89661568  0.77690954  0.17012485  1
  H+  H256  1  0.33197958  0.45784022  0.65130703  1
  H+  H257  1  0.78606709  0.88814460  0.33379303  1
  H+  H258  1  0.08795901  0.91280620  0.40147458  1
  H+  H259  1  1.03335074  0.88828842  0.33927878  1
  H+  H260  1  0.74659510  0.36295881  0.65757768  1
  H+  H261  1  0.95982956  0.00111823  0.88970492  1
  H+  H262  1  0.37162792  0.52510959  0.31888486  1
  H+  H263  1  0.57355064  0.40649785  0.88952427  1
  H+  H264  1  0.72676088  0.36385573  0.16342103  1
  H+  H265  1  0.30777781  0.19488347  0.18621128  1
  H+  H266  1  0.81136086  0.57047214  0.52464640  1
  H+  H267  1  0.46757784  0.83841856  0.50167363  1
  H+  H268  1  0.54828383  0.72940909  0.35659840  1
  H+  H269  1  0.51461832  0.63135912  0.85283006  1
  H+  H270  1  0.25497301  0.91054704  0.72211105  1
  H+  H271  1  0.77541012  0.64078329  0.16839832  1
  H+  H272  1  0.37576250  0.53607547  0.87077171  1
  H+  H273  1  0.09834994  0.89500625  0.72266375  1
  H+  H274  1  0.07531769  0.66692820  0.23170183  1
  H+  H275  1  0.36352001  0.21384840  0.34032382  1
  H+  H276  1  0.02465522  0.13592524  0.48902000  1
  H+  H277  1  0.64284862  0.57862419  0.41193230  1
  H+  H278  1  0.21514370  0.35582190  0.32518496  1
  H+  H279  1  0.12814328  0.48644119  0.49197228  1
  H+  H280  1  0.36936779  0.37815712  0.48406276  1
  H+  H281  1  0.38627206  0.01882714  0.32575023  1
  H+  H282  1  0.72815968  0.62759704  1.00299833  1
  H+  H283  1  0.80924589  0.38946129  -0.00442598  1
  H+  H284  1  0.23497556  0.85243944  0.83472369  1
  H+  H285  1  0.76292700  0.64909259  0.55574109  1
  H+  H286  1  0.21515183  0.60640308  0.84698298  1
  H+  H287  1  0.64373142  0.61855512  0.85177325  1
  H+  H288  1  0.82966871  0.66725350  0.07041510  1
  H+  H289  1  0.93673357  0.85474293  0.26095603  1
  H+  H290  1  0.90866520  0.57394762  0.90366911  1
  H+  H291  1  0.87693455  0.39191002  0.66328358  1
  H+  H292  1  0.08981718  0.66679029  0.76700254  1
  H+  H293  1  0.48048446  0.62585949  0.17596160  1
  H+  H294  1  0.42396075  0.08490842  0.89654701  1
  H+  H295  1  0.12427428  0.39426334  0.49004217  1
  H+  H296  1  0.92009027  0.83523762  0.93638017  1
  H+  H297  1  0.34454632  0.67876669  0.10282348  1
  H+  H298  1  0.83860081  0.91789682  0.39746984  1
  H+  H299  1  0.09030890  0.41785313  0.39993020  1
  H+  H300  1  0.16730277  0.57913877  0.26708921  1
  H+  H301  1  0.38539756  0.01216906  0.68643169  1
  H+  H302  1  0.37167207  0.76962259  0.32708790  1
  H+  H303  1  0.84280825  0.41675078  0.09555632  1
  H+  H304  1  0.94827887  0.09932941  0.16432096  1
  H+  H305  1  0.71573528  0.35491537  0.26499046  1
  H+  H306  1  0.18145063  0.77104220  0.50674297  1
  H+  H307  1  0.18215766  0.84394984  0.27298303  1
  H+  H308  1  0.90048670  0.68677728  0.41835149  1
  H+  H309  1  0.09805375  0.62908869  0.31790656  1
  H+  H310  1  0.09057220  0.47445931  0.87301779  1
  H+  H311  1  0.17095990  0.59351471  0.94086225  1
  H+  H312  1  0.56129650  0.63392996  0.79247971  1
  H+  H313  1  0.53215433  0.65525683  0.40443072  1
  H+  H314  1  0.66360399  0.83650247  0.93357600  1
  H+  H315  1  0.84709786  0.38068147  0.81946371  1
  H+  H316  1  0.40147226  0.29185316  0.26196524  1
  H+  H317  1  0.08287054  0.67512228  0.06052076  1
  H+  H318  1  0.56879925  0.84833882  0.38950968  1
  H+  H319  1  0.65163554  0.06168682  0.61505464  1
  H+  H320  1  0.86691394  0.55160305  0.58122023  1
  H+  H321  1  0.34976067  0.96323948  0.43913393  1
  H+  H322  1  0.55941774  0.70345568  0.72429625  1
  H+  H323  1  0.87714846  0.31264683  0.88721006  1
  H+  H324  1  0.77858054  0.15695716  0.15142537  1
  H+  H325  1  0.11660471  0.63964782  0.18026997  1
  H+  H326  1  0.46225348  0.36736100  0.83554852  1
  H+  H327  1  0.84180637  0.66562250  0.77250300  1
  H+  H328  1  0.66249186  0.33193415  0.56708743  1
  H+  H329  1  0.92518559  0.35277258  0.59389797  1
  H+  H330  1  0.83262544  0.16331983  0.42674647  1
  H+  H331  1  0.64705172  0.04485305  0.18013621  1
  H+  H332  1  0.10575779  0.92378703  0.10289356  1
  H+  H333  1  0.17405003  0.86466759  0.58675964  1
  H+  H334  1  0.69593898  0.14287425  0.25103485  1
  H+  H335  1  0.10481850  0.74268498  0.67411926  1
  H+  H336  1  0.75525278  0.05911112  0.36427398  1
  H+  H337  1  0.33141209  0.16675820  0.72667278  1
  H+  H338  1  0.33895360  0.72395081  0.81926949  1
  H+  H339  1  0.92529570  0.07822995  0.93955509  1
  H+  H340  1  0.65450677  0.32911124  0.87751050  1
  H+  H341  1  0.30148833  0.39113378  0.73821619  1
  H+  H342  1  0.16213394  0.06714724  0.59719824  1
  H+  H343  1  0.32775675  0.43165609  0.40174716  1
  H+  H344  1  0.32636925  0.65641556  0.73468679  1
  H+  H345  1  0.60360140  0.94173777  0.46486650  1
  H+  H346  1  0.62842393  0.10975131  0.84265856  1
  H+  H347  1  0.33434415  0.64917279  0.43191054  1
  H+  H348  1  0.92585624  0.34381627  0.22750766  1
  H+  H349  1  0.65885225  0.57160402  0.24821110  1
  H+  H350  1  0.56485605  0.60824664  0.47894833  1
  H+  H351  1  0.60855500  0.94008314  0.11566609  1
  H+  H352  1  0.41410747  0.58508934  0.24729029  1
  H+  H353  1  0.17891604  0.83932374  0.89419246  1
  H+  H354  1  0.57356051  0.16392212  0.10789534  1
  H+  H355  1  0.58146577  0.16462327  0.39135405  1
  H+  H356  1  0.07027081  0.17559667  0.08677608  1
  H+  H357  1  0.38932907  0.47612008  0.48731697  1
  H+  H358  1  0.99000637  0.37179529  0.93547251  1
  H+  H359  1  0.86508431  0.72322329  0.67727058  1
  H+  H360  1  0.07943371  0.14101779  0.77094439  1
  H+  H361  1  0.36979356  0.33699812  0.15065324  1
  H+  H362  1  0.87889462  0.63888291  0.42179098  1
  H+  H363  1  0.42268969  0.81775950  0.59892373  1
  H+  H364  1  0.33399322  0.42437838  0.06503062  1
  H+  H365  1  0.64424398  0.05919574  0.56128097  1
  H+  H366  1  0.18840230  0.09762948  0.23325766  1
  H+  H367  1  0.90973962  0.08279085  0.26334805  1
  H+  H368  1  0.25938495  0.63271354  0.34027448  1
  H+  H369  1  0.40435078  0.34278462  0.92668011  1
  H+  H370  1  0.82057660  0.10822714  0.73922818  1
  H+  H371  1  1.02495893  0.64770764  0.66563917  1
  H+  H372  1  0.39858671  0.31581920  0.55803218  1
  H+  H373  1  0.66733914  0.07866852  0.93456220  1
  H+  H374  1  0.32799442  0.15132159  0.39863277  1
  H+  H375  1  0.41374999  0.07609129  0.24360043  1
  H+  H376  1  0.33830615  0.92273465  0.06679167  1
  H+  H377  1  0.84395786  0.42139868  0.72505352  1
  H+  H378  1  0.61707798  0.62778018  0.58091679  1
  H+  H379  1  0.76173686  0.41075860  0.37881837  1
  H+  H380  1  0.66525565  0.82443144  0.56343094  1
  H+  H381  1  0.58179363  0.58125355  0.58201451  1
  H+  H382  1  0.42240516  0.83668447  0.23606003  1
  H+  H383  1  0.25712217  0.12137302  0.49015317  1
  O2-  O384  1  0.04709029  0.18683996  0.12513477  1
  O2-  O385  1  0.08554408  0.16478748  0.47534743  1
  O2-  O386  1  0.08116799  0.14240782  0.81678509  1
  O2-  O387  1  0.09418322  0.42404941  0.14991357  1
  O2-  O388  1  0.09475938  0.42655241  0.47545432  1
  O2-  O389  1  0.05274253  0.41145884  0.88018687  1
  O2-  O390  1  0.08310612  0.66983771  0.18622626  1
  O2-  O391  1  0.19032345  0.73068390  0.48093637  1
  O2-  O392  1  0.09088160  0.66617621  0.81193909  1
  O2-  O393  1  0.11443364  0.93167250  0.14862024  1
  O2-  O394  1  0.08195137  0.91080234  0.48047118  1
  O2-  O395  1  0.09315502  0.91451124  0.80374497  1
  O2-  O396  1  0.36889229  0.24168335  0.19641464  1
  O2-  O397  1  0.31773446  0.14820923  0.47395350  1
  O2-  O398  1  0.33767740  0.16143275  0.80640364  1
  O2-  O399  1  0.32994534  0.40921699  0.14247306  1
  O2-  O400  1  0.34927514  0.41877892  0.47015912  1
  O2-  O401  1  0.31027382  0.39732368  0.78411674  1
  O2-  O402  1  0.34575432  0.67458378  0.14812620  1
  O2-  O403  1  0.34346890  0.64072608  0.47545887  1
  O2-  O404  1  0.32164709  0.66271888  0.81282629  1
  O2-  O405  1  0.34597312  0.92351540  0.14812413  1
  O2-  O406  1  0.34744393  0.96997292  0.48410676  1
  O2-  O407  1  0.32801205  0.83085762  0.80742266  1
  O2-  O408  1  0.57346240  0.16928921  0.15284247  1
  O2-  O409  1  0.55852399  0.16638011  0.46953422  1
  O2-  O410  1  0.58724557  0.16756176  0.81394366  1
  O2-  O411  1  0.57813891  0.41733832  0.14928551  1
  O2-  O412  1  0.56462956  0.40519751  0.47616754  1
  O2-  O413  1  0.57925817  0.42099260  0.84625336  1
  O2-  O414  1  0.57505405  0.70205277  0.15125788  1
  O2-  O415  1  0.53636184  0.64485597  0.48086337  1
  O2-  O416  1  0.57357912  0.65601890  0.83393683  1
  O2-  O417  1  0.60691729  0.94145452  0.16077471  1
  O2-  O418  1  0.57403028  0.87939924  0.46251190  1
  O2-  O419  1  0.56421740  0.91380229  0.81201802  1
  O2-  O420  1  0.83872361  0.18081018  0.13686155  1
  O2-  O421  1  0.84141758  0.17871733  0.47120969  1
  O2-  O422  1  0.81382417  0.14488313  0.81566053  1
  O2-  O423  1  0.83413378  0.41426293  0.14009647  1
  O2-  O424  1  0.87066290  0.45265614  0.45846675  1
  O2-  O425  1  0.82623558  0.42093842  0.80597434  1
  O2-  O426  1  0.83192028  0.67028869  0.14757292  1
  O2-  O427  1  0.78061018  0.64092110  0.51556366  1
  O2-  O428  1  0.84215215  0.66398191  0.81826051  1
  O2-  O429  1  0.74968581  0.92568853  0.17816696  1
  O2-  O430  1  0.83448668  0.91234974  0.47787870  1
  O2-  O431  1  0.81840088  0.89845091  0.81072662  1
  O2-  O432  1  0.20723381  0.11144254  0.19026350  1
  O2-  O433  1  0.15943904  0.07544509  0.51939805  1
  O2-  O434  1  0.17399998  0.07360914  0.85365132  1
  O2-  O435  1  0.16853155  0.33126509  0.18555564  1
  O2-  O436  1  0.17161534  0.33971511  0.50791756  1
  O2-  O437  1  0.15311432  0.30166518  0.85033367  1
  O2-  O438  1  0.17556131  0.58779136  0.18965103  1
  O2-  O439  1  0.18817600  0.58770597  0.52283173  1
  O2-  O440  1  0.15849712  0.58454203  0.86703593  1
  O2-  O441  1  0.18739700  0.84580187  0.19265066  1
  O2-  O442  1  0.18347573  0.86552545  0.54097486  1
  O2-  O443  1  0.17663300  0.83665806  0.84876761  1
  O2-  O444  1  0.41543606  0.07630760  0.19446514  1
  O2-  O445  1  0.39869371  0.06275325  0.49537500  1
  O2-  O446  1  0.43100074  0.08543538  0.85203315  1
  O2-  O447  1  0.39963812  0.30297755  0.14541833  1
  O2-  O448  1  0.40206253  0.31398837  0.51280159  1
  O2-  O449  1  0.40081372  0.33409338  0.84675522  1
  O2-  O450  1  0.41852192  0.58880288  0.18896008  1
  O2-  O451  1  0.45133034  0.58868557  0.50908623  1
  O2-  O452  1  0.41559146  0.59705672  0.87756153  1
  O2-  O453  1  0.42877122  0.83952446  0.19048901  1
  O2-  O454  1  0.41101709  0.80947427  0.52164959  1
  O2-  O455  1  0.39371780  0.83733559  0.84786255  1
  O2-  O456  1  0.67637319  0.10899126  0.18682451  1
  O2-  O457  1  0.64342270  0.06343239  0.51264664  1
  O2-  O458  1  0.65453095  0.07498880  0.85850838  1
  O2-  O459  1  0.66913293  0.33474029  0.18366987  1
  O2-  O460  1  0.65290960  0.33813951  0.52344254  1
  O2-  O461  1  0.65744889  0.32987398  0.83285648  1
  O2-  O462  1  0.66255847  0.57758596  0.20348271  1
  O2-  O463  1  0.63395399  0.57165277  0.45737109  1
  O2-  O464  1  0.67941301  0.59312754  0.86443720  1
  O2-  O465  1  0.65044035  0.71779898  0.18765429  1
  O2-  O466  1  0.66117750  0.81625424  0.51806908  1
  O2-  O467  1  0.65822271  0.83431430  0.85844908  1
  O2-  O468  1  0.89269664  0.07846354  0.18545116  1
  O2-  O469  1  0.91576638  0.08121122  0.51653682  1
  O2-  O470  1  0.94031829  0.03741304  0.87054250  1
  O2-  O471  1  0.92566705  0.34027494  0.18176776  1
  O2-  O472  1  0.92977570  0.35695990  0.50774699  1
  O2-  O473  1  0.87600989  0.31328364  0.84280913  1
  O2-  O474  1  0.90777156  0.57858688  0.17770074  1
  O2-  O475  1  0.82889029  0.52835298  0.54049003  1
  O2-  O476  1  0.90108963  0.56828666  0.85712871  1
  O2-  O477  1  0.93311664  0.83904430  0.18167373  1
  O2-  O478  1  0.90929622  0.82211187  0.52251934  1
  O2-  O479  1  0.92290069  0.83445383  0.85474795  1
  O2-  O480  1  0.16627829  0.08070447  0.31331991  1
  O2-  O481  1  0.16412944  0.06358334  0.64256268  1
  O2-  O482  1  0.18114423  0.09586829  0.97033830  1
  O2-  O483  1  0.15704932  0.32172983  0.30751873  1
  O2-  O484  1  0.11590864  0.30445239  0.65980595  1
  O2-  O485  1  0.17293159  0.33658070  0.97662843  1
  O2-  O486  1  0.16126913  0.57975953  0.31240649  1
  O2-  O487  1  0.16265596  0.58622547  0.64416049  1
  O2-  O488  1  0.17526314  0.59613513  0.98698124  1
  O2-  O489  1  0.17681183  0.83468177  0.31792479  1
  O2-  O490  1  0.14891170  0.85180597  0.66127356  1
  O2-  O491  1  0.17380552  0.83814126  0.97146939  1
  O2-  O492  1  0.41596201  0.07871552  0.30715628  1
  O2-  O493  1  0.42578048  0.03345006  0.65171351  1
  O2-  O494  1  0.41928561  0.09034134  0.97956102  1
  O2-  O495  1  0.41915963  0.31362505  0.30487925  1
  O2-  O496  1  0.38400061  0.31916194  0.63569977  1
  O2-  O497  1  0.40494041  0.34242001  0.97210222  1
  O2-  O498  1  0.40835596  0.58332507  0.29925857  1
  O2-  O499  1  0.40576156  0.57109485  0.63479895  1
  O2-  O500  1  0.42930547  0.60263349  0.99657621  1
  O2-  O501  1  0.41150994  0.82989694  0.31339110  1
  O2-  O502  1  0.43003942  0.82156956  0.64413021  1
  O2-  O503  1  0.39981210  0.83575732  0.96344611  1
  O2-  O504  1  0.71188779  0.17300037  0.29305646  1
  O2-  O505  1  0.65760927  0.06343366  0.65965988  1
  O2-  O506  1  0.67548510  0.08256255  0.98018766  1
  O2-  O507  1  0.74756870  0.42467405  0.33870211  1
  O2-  O508  1  0.68314924  0.32956459  0.64663078  1
  O2-  O509  1  0.60673641  0.32650739  0.95686550  1
  O2-  O510  1  0.65409311  0.60056962  0.33592376  1
  O2-  O511  1  0.65107102  0.58101241  0.68985335  1
  O2-  O512  1  0.66763848  0.60367867  0.98612601  1
  O2-  O513  1  0.69594112  0.84459967  0.28549568  1
  O2-  O514  1  0.67581298  0.84035281  0.63925171  1
  O2-  O515  1  0.66483517  0.83236441  0.97961697  1
  O2-  O516  1  0.91400295  0.08433418  0.30877017  1
  O2-  O517  1  0.95410740  0.14104351  0.63145258  1
  O2-  O518  1  0.92432221  0.08925975  0.98385517  1
  O2-  O519  1  0.93243091  0.35913642  0.30101483  1
  O2-  O520  1  0.91681009  0.34545714  0.63826919  1
  O2-  O521  1  0.94994348  0.35279150  0.97279906  1
  O2-  O522  1  0.88991136  0.57934082  0.29715606  1
  O2-  O523  1  0.90654420  0.57742957  0.63896103  1
  O2-  O524  1  0.91879731  0.58824284  0.97402041  1
  O2-  O525  1  0.93536579  0.85115644  0.30613056  1
  O2-  O526  1  0.92215358  0.82353400  0.64655552  1
  O2-  O527  1  0.91766996  0.83726158  0.98156089  1
  O2-  O528  1  0.09567661  0.17036415  0.01132937  1
  O2-  O529  1  0.08358027  0.16200951  0.35058550  1
  O2-  O530  1  0.08290920  0.13866649  0.69676071  1
  O2-  O531  1  0.10776409  0.43183567  0.02812660  1
  O2-  O532  1  0.08662831  0.41612541  0.35414802  1
  O2-  O533  1  0.06361670  0.41840761  0.69533991  1
  O2-  O534  1  0.08316037  0.66958632  0.01640376  1
  O2-  O535  1  0.06514923  0.65910296  0.30922918  1
  O2-  O536  1  0.08356948  0.67981766  0.68212963  1
  O2-  O537  1  0.08631289  0.90817477  0.03067373  1
  O2-  O538  1  0.09307055  0.91589363  0.35614058  1
  O2-  O539  1  0.09359726  0.88970462  0.67732667  1
  O2-  O540  1  0.33006721  0.17257930  0.00736935  1
  O2-  O541  1  0.33233789  0.15234825  0.35291706  1
  O2-  O542  1  0.32907319  0.17341532  0.68186091  1
  O2-  O543  1  0.33910113  0.43580662  0.02015675  1
  O2-  O544  1  0.30544905  0.44630585  0.36350084  1
  O2-  O545  1  0.29535333  0.39733025  0.66451340  1
  O2-  O546  1  0.33981647  0.67959040  0.02355101  1
  O2-  O547  1  0.32152251  0.66418236  0.35406001  1
  O2-  O548  1  0.32524766  0.65769528  0.68933580  1
  O2-  O549  1  0.33489630  0.92627865  0.02175509  1
  O2-  O550  1  0.34049547  0.92613003  0.36002952  1
  O2-  O551  1  0.30293131  0.95248543  0.74727692  1
  O2-  O552  1  0.58685022  0.15119661  0.02853912  1
  O2-  O553  1  0.58477986  0.15715215  0.34689131  1
  O2-  O554  1  0.59261011  0.16657721  0.69490635  1
  O2-  O555  1  0.56662592  0.43602378  0.02249338  1
  O2-  O556  1  0.56798752  0.35110591  0.36680740  1
  O2-  O557  1  0.57273086  0.39692828  0.68413802  1
  O2-  O558  1  0.59134251  0.68353001  0.02014526  1
  O2-  O559  1  0.53998839  0.66927929  0.35982008  1
  O2-  O560  1  0.56974468  0.67754599  0.68864433  1
  O2-  O561  1  0.60905981  0.93133124  0.03518899  1
  O2-  O562  1  0.55548477  0.82241325  0.34776364  1
  O2-  O563  1  0.57542996  0.90558375  0.69113194  1
  O2-  O564  1  0.84622395  0.18107255  0.01001896  1
  O2-  O565  1  0.80137729  0.11785355  0.35647301  1
  O2-  O566  1  0.81531869  0.08238000  0.69860204  1
  O2-  O567  1  0.86483833  0.42596353  0.01448793  1
  O2-  O568  1  0.74760501  0.35540145  0.30216002  1
  O2-  O569  1  0.84460861  0.42357329  0.68002395  1
  O2-  O570  1  0.82753139  0.66733920  0.02459623  1
  O2-  O571  1  0.81398134  0.68124104  0.30272230  1
  O2-  O572  1  0.83522000  0.66392809  0.69585737  1
  O2-  O573  1  0.84195542  0.92753660  0.02413231  1
  O2-  O574  1  0.84413414  0.92323278  0.35223689  1
  O2-  O575  1  0.83931369  0.90892752  0.68557619  1
