# generated using pymatgen
data_H2O
_symmetry_space_group_name_H-M   'P 1'
_cell_length_a   18.00482395
_cell_length_b   18.00176778
_cell_length_c   22.00733523
_cell_angle_alpha   89.98387744
_cell_angle_beta   90.01596082
_cell_angle_gamma   120.00793942
_symmetry_Int_Tables_number   1
_chemical_formula_structural   H2O
_chemical_formula_sum   'H384 O192'
_cell_volume   6176.85422459
_cell_formula_units_Z   192
loop_
 _symmetry_equiv_pos_site_id
 _symmetry_equiv_pos_as_xyz
  1  'x, y, z'
loop_
 _atom_type_symbol
 _atom_type_oxidation_number
  H+  1.0
  O2-  -2.0
loop_
 _atom_site_type_symbol
 _atom_site_label
 _atom_site_symmetry_multiplicity
 _atom_site_fract_x
 _atom_site_fract_y
 _atom_site_fract_z
 _atom_site_occupancy
  H+  H0  1  1.00706824  0.12249712  0.49365941  1
  H+  H1  1  0.12290138  0.26623652  0.32951766  1
  H+  H2  1  0.08824803  0.66473272  0.43318872  1
  H+  H3  1  0.47322557  0.27932383  0.62155249  1
  H+  H4  1  0.70251679  0.69254348  0.54120752  1
  H+  H5  1  0.50736968  0.11657027  0.49531997  1
  H+  H6  1  0.49441024  0.87234911  0.83518495  1
  H+  H7  1  0.89781939  0.60507337  0.82835446  1
  H+  H8  1  0.14509882  0.51473387  0.83943462  1
  H+  H9  1  0.20540274  0.70235097  0.70975263  1
  H+  H10  1  0.43784509  0.36486361  0.17177526  1
  H+  H11  1  0.46505266  0.84284138  0.99253621  1
  H+  H12  1  0.65780836  0.52022059  0.99636759  1
  H+  H13  1  0.86577473  0.38267294  0.83972592  1
  H+  H14  1  0.12352482  0.27751864  0.99133241  1
  H+  H15  1  0.78520895  0.64365022  0.00452209  1
  H+  H16  1  0.12399986  0.48413640  0.49196009  1
  H+  H17  1  0.20704250  0.85690722  0.17148341  1
  H+  H18  1  0.14321753  0.07836536  0.00897734  1
  H+  H19  1  0.85769312  0.22558709  0.35051535  1
  H+  H20  1  0.02994042  0.63239676  0.00412496  1
  H+  H21  1  0.25157841  0.42372917  0.81611560  1
  H+  H22  1  0.89206279  0.61465758  0.32381491  1
  H+  H23  1  0.10085115  0.25635223  0.16187312  1
  H+  H24  1  0.58732668  0.88271803  0.83550281  1
  H+  H25  1  0.87304228  1.01497681  0.34285724  1
  H+  H26  1  0.36988126  0.55968435  0.82812032  1
  H+  H27  1  0.58886412  0.17775101  0.77113610  1
  H+  H28  1  0.45646157  0.35798108  0.32065061  1
  H+  H29  1  0.56461976  0.88200028  0.19079606  1
  H+  H30  1  0.84567158  0.11142389  0.84508503  1
  H+  H31  1  0.62669814  0.84482305  0.51699700  1
  H+  H32  1  0.61167066  1.01538323  0.84753471  1
  H+  H33  1  0.52431052  0.89561567  0.34912997  1
  H+  H34  1  0.88145745  0.27462001  0.99842548  1
  H+  H35  1  0.84143391  0.38957618  0.99675490  1
  H+  H36  1  0.86303582  0.89030580  0.67649159  1
  H+  H37  1  0.62513156  0.61883220  0.33772024  1
  H+  H38  1  0.27155832  0.88477061  0.49888966  1
  H+  H39  1  0.80426279  0.66009684  0.49615462  1
  H+  H40  1  0.13656548  0.10122769  0.65741326  1
  H+  H41  1  0.36886013  0.88939419  0.67578711  1
  H+  H42  1  0.49289352  0.35951856  1.00149733  1
  H+  H43  1  0.89161757  0.38283086  0.66040334  1
  H+  H44  1  0.88060042  0.87848251  0.84111307  1
  H+  H45  1  0.33127532  -0.03358095  0.15630955  1
  H+  H46  1  0.61958722  0.62693969  0.00498305  1
  H+  H47  1  0.09335789  0.38224634  0.15922963  1
  H+  H48  1  0.24128683  0.11232772  -0.00602908  1
  H+  H49  1  0.13879003  0.52612350  0.17664794  1
  H+  H50  1  0.12247022  1.02368037  0.32711648  1
  H+  H51  1  0.65795212  0.58450620  0.38977514  1
  H+  H52  1  0.65497987  0.61054978  0.16508006  1
  H+  H53  1  0.89642597  0.53190584  0.50348317  1
  H+  H54  1  0.89000107  0.61668240  0.66151615  1
  H+  H55  1  0.52504940  0.14250287  0.67776087  1
  H+  H56  1  0.67546836  1.07959163  0.23747654  1
  H+  H57  1  0.89568762  0.07578936  0.28523927  1
  H+  H58  1  0.61554783  0.47798154  0.33830294  1
  H+  H59  1  0.00727665  0.12178833  0.12647709  1
  H+  H60  1  0.45587623  0.34180213  0.49763451  1
  H+  H61  1  0.12320660  0.10991802  0.14238643  1
  H+  H62  1  0.14524822  0.03034373  0.83479003  1
  H+  H63  1  0.87201996  -0.02093025  0.17339632  1
  H+  H64  1  0.65415558  0.10895322  0.17235112  1
  H+  H65  1  0.14501561  0.31972805  0.26750106  1
  H+  H66  1  0.50635034  0.26584876  0.44128508  1
  H+  H67  1  0.10577241  0.88282048  0.15536647  1
  H+  H68  1  0.63955389  0.10647563  0.32640676  1
  H+  H69  1  0.85666494  0.13437335  0.01596002  1
  H+  H70  1  0.10640124  0.38509015  0.33874885  1
  H+  H71  1  0.93446469  0.11642200  0.85381816  1
  H+  H72  1  0.11873291  0.72086793  0.49524722  1
  H+  H73  1  0.85694665  0.13710640  0.35711556  1
  H+  H74  1  0.51493323  0.64018402  0.33029486  1
  H+  H75  1  0.42666820  0.32451353  0.59364727  1
  H+  H76  1  0.08270506  0.42393554  0.06259133  1
  H+  H77  1  0.98008696  0.61238150  0.32748627  1
  H+  H78  1  0.36803930  0.38646444  -0.00099507  1
  H+  H79  1  0.66147236  0.86502947  0.16010518  1
  H+  H80  1  0.93596358  0.36077851  0.59580411  1
  H+  H81  1  1.02947532  0.13093462  0.66856351  1
  H+  H82  1  0.34846349  0.72568873  1.00702459  1
  H+  H83  1  0.74351749  0.13566855  0.83177049  1
  H+  H84  1  1.02466959  0.88202956  0.67272900  1
  H+  H85  1  0.34840572  0.22299417  0.50170563  1
  H+  H86  1  0.39926545  0.86079397  0.51651843  1
  H+  H87  1  0.64304257  0.26790241  0.83868431  1
  H+  H88  1  0.64947474  0.51348900  0.84510796  1
  H+  H89  1  0.37646642  0.02111083  0.50888597  1
  H+  H90  1  0.63802265  0.87113084  0.33600719  1
  H+  H91  1  0.66320216  0.82349518  0.61137253  1
  H+  H92  1  0.36964465  0.13652907  0.00609692  1
  H+  H93  1  0.45726468  0.62363491  0.50618470  1
  H+  H94  1  0.11373927  0.63460913  0.33951342  1
  H+  H95  1  0.72893455  0.10850120  0.33135396  1
  H+  H96  1  0.98747362  0.61866067  0.50413444  1
  H+  H97  1  0.39504470  0.62679504  0.16944831  1
  H+  H98  1  0.39453514  0.02585269  0.99679423  1
  H+  H99  1  0.88611488  1.02596182  0.66323177  1
  H+  H100  1  0.85659120  0.97285763  0.00272822  1
  H+  H101  1  0.47206118  0.59883146  -0.01702386  1
  H+  H102  1  0.35492642  0.64232978  0.34686503  1
  H+  H103  1  0.09411798  0.15554697  -0.01166609  1
  H+  H104  1  0.11964703  0.63891840  0.16220077  1
  H+  H105  1  0.48039262  0.12007475  -0.00957954  1
  H+  H106  1  0.34680053  0.39386972  0.68466520  1
  H+  H107  1  0.61567243  -0.02270019  0.35103523  1
  H+  H108  1  0.71471901  0.39552388  0.00086701  1
  H+  H109  1  0.40894313  0.85121418  0.22774121  1
  H+  H110  1  0.88937200  0.77868553  0.66498695  1
  H+  H111  1  0.35163469  0.13422199  0.50190839  1
  H+  H112  1  0.76675220  0.88464107  0.34304551  1
  H+  H113  1  0.78181537  0.64499958  0.69148825  1
  H+  H114  1  0.59556477  0.66502277  0.09424633  1
  H+  H115  1  0.44648494  0.86559097  0.16046340  1
  H+  H116  1  0.12220071  0.11172592  0.50616822  1
  H+  H117  1  0.90851215  0.78158448  0.50437979  1
  H+  H118  1  0.15867454  0.77955952  0.66828030  1
  H+  H119  1  0.35285627  0.72264092  0.16033199  1
  H+  H120  1  0.11547365  0.71346888  0.84341391  1
  H+  H121  1  0.21413039  0.83986828  0.86505683  1
  H+  H122  1  0.84126481  -0.01981219  0.82864283  1
  H+  H123  1  0.36622685  0.88902238  0.00447312  1
  H+  H124  1  0.35417892  0.64312971  0.49846142  1
  H+  H125  1  0.53596022  0.39234086  0.67858061  1
  H+  H126  1  0.74328223  0.36450368  0.84564192  1
  H+  H127  1  0.56978149  0.16391624  0.13959922  1
  H+  H128  1  0.34618597  0.38939713  0.33870487  1
  H+  H129  1  0.61207648  0.63539408  0.68372159  1
  H+  H130  1  0.62683765  0.84736158  0.98968005  1
  H+  H131  1  0.36561362  0.73870162  0.50325034  1
  H+  H132  1  0.31210821  0.40267999  0.07822738  1
  H+  H133  1  0.89941932  0.62550797  0.98843161  1
  H+  H134  1  0.37669446  0.52691744  0.32595027  1
  H+  H135  1  0.64198568  0.59930430  0.84288467  1
  H+  H136  1  0.12600999  0.85586375  0.32631109  1
  H+  H137  1  0.71658568  0.86320307  0.82432374  1
  H+  H138  1  0.18907203  0.34008971  0.16502247  1
  H+  H139  1  0.61553975  0.71342739  0.00109101  1
  H+  H140  1  0.62920591  0.81401995  0.78887344  1
  H+  H141  1  0.90527065  0.38280999  0.51221773  1
  H+  H142  1  0.11065162  0.39196259  1.00295912  1
  H+  H143  1  0.61718312  0.14728252  0.67741584  1
  H+  H144  1  0.90446116  0.50986370  0.18291296  1
  H+  H145  1  0.14017670  0.85947273  0.66344068  1
  H+  H146  1  0.29786739  0.44984951  0.13459292  1
  H+  H147  1  0.25958085  0.87536703  0.34306993  1
  H+  H148  1  0.89179862  0.12483977  0.18470814  1
  H+  H149  1  0.13269581  0.61326828  0.99261701  1
  H+  H150  1  0.87716486  0.88961185  0.16590608  1
  H+  H151  1  0.61913137  0.48397815  0.49273478  1
  H+  H152  1  0.15285570  0.15245647  0.81886704  1
  H+  H153  1  0.25775466  0.38846265  0.33830527  1
  H+  H154  1  0.88407534  0.37278820  0.11120799  1
  H+  H155  1  0.33442146  0.87904643  0.15677233  1
  H+  H156  1  0.63033566  0.19925754  -0.02894194  1
  H+  H157  1  0.63796007  0.27573494  0.67280169  1
  H+  H158  1  0.10119575  0.13275174  0.34327236  1
  H+  H159  1  0.37529065  0.77540271  0.66681343  1
  H+  H160  1  0.88298833  0.79105941  0.83925785  1
  H+  H161  1  0.12609146  1.02108161  0.14708877  1
  H+  H162  1  0.11516859  0.83436447  0.52259575  1
  H+  H163  1  0.34377981  0.95164647  0.83672818  1
  H+  H164  1  0.35827864  0.21396992  0.67204007  1
  H+  H165  1  -0.00438880  0.38385175  0.51203235  1
  H+  H166  1  0.66848155  0.44123413  0.36522437  1
  H+  H167  1  0.38533620  0.10689954  0.66359045  1
  H+  H168  1  0.23516562  0.62229942  0.50735214  1
  H+  H169  1  0.60841503  0.95753133  0.01179230  1
  H+  H170  1  0.41706209  0.38976060  0.76642398  1
  H+  H171  1  0.38402250  0.36945292  0.50496624  1
  H+  H172  1  -0.00976227  0.38110612  0.66776047  1
  H+  H173  1  0.14181028  0.27839449  0.83664751  1
  H+  H174  1  0.25702560  0.38348548  0.65925163  1
  H+  H175  1  0.54615828  0.65276847  0.15744050  1
  H+  H176  1  0.37830500  0.52890994  0.65647786  1
  H+  H177  1  0.34698487  0.35520315  0.16744709  1
  H+  H178  1  0.88167795  0.77763298  -0.00788045  1
  H+  H179  1  0.89022845  0.77306933  0.16996613  1
  H+  H180  1  0.86741986  0.67976238  0.87008411  1
  H+  H181  1  0.57091885  0.62734849  0.48065422  1
  H+  H182  1  0.25816726  0.63382793  0.68746981  1
  H+  H183  1  0.98705958  0.60753155  0.83631556  1
  H+  H184  1  -0.01013762  0.87448498  0.50851401  1
  H+  H185  1  0.22005563  0.36225369  0.98726628  1
  H+  H186  1  0.63078063  0.08839967  1.00912586  1
  H+  H187  1  0.13946001  0.60290932  0.65557011  1
  H+  H188  1  0.16421365  0.07305461  0.59765504  1
  H+  H189  1  0.13017819  0.35825879  0.50069350  1
  H+  H190  1  0.61103324  0.07157227  0.51140081  1
  H+  H191  1  0.43281874  0.09757564  0.18553686  1
  H+  H192  1  0.77525435  0.63495607  0.84001159  1
  H+  H193  1  0.78818886  0.63894751  0.15430961  1
  H+  H194  1  0.01989273  0.88455755  0.14883508  1
  H+  H195  1  0.78018862  0.38777686  0.33904861  1
  H+  H196  1  1.01993441  0.07143465  0.89479528  1
  H+  H197  1  0.20876083  0.11224904  0.33521812  1
  H+  H198  1  0.12258039  0.76613369  0.17365083  1
  H+  H199  1  0.78614854  0.39223273  0.67781687  1
  H+  H200  1  0.89156959  0.27879532  0.84352850  1
  H+  H201  1  0.85217849  0.96092088  0.49753197  1
  H+  H202  1  0.41281442  0.58025852  0.92427228  1
  H+  H203  1  -0.08212079  0.58968557  0.60016786  1
  H+  H204  1  0.89428515  0.11776149  0.64587308  1
  H+  H205  1  0.72517198  0.10264808  1.00533042  1
  H+  H206  1  0.73152727  0.13422469  0.64936291  1
  H+  H207  1  0.14052257  0.61073638  0.50659164  1
  H+  H208  1  0.15071009  0.92975557  0.47029930  1
  H+  H209  1  0.64841576  0.36525717  0.84283391  1
  H+  H210  1  0.08371732  0.92502332  0.76490028  1
  H+  H211  1  1.01489654  0.88436222  0.33445335  1
  H+  H212  1  0.02662565  0.90573323  0.82482771  1
  H+  H213  1  0.12105395  0.26532696  0.50139921  1
  H+  H214  1  0.10995072  0.72226818  0.33972688  1
  H+  H215  1  0.97465575  0.12266689  0.20772599  1
  H+  H216  1  0.13628881  0.52309569  -0.00867355  1
  H+  H217  1  0.58260294  0.37695208  0.16072547  1
  H+  H218  1  0.21536671  0.11636665  0.50640785  1
  H+  H219  1  0.92440181  0.58027625  0.23180306  1
  H+  H220  1  0.85591021  0.48376938  0.99879137  1
  H+  H221  1  0.58073783  0.49057736  0.49245479  1
  H+  H222  1  0.96955856  0.36481018  0.99650286  1
  H+  H223  1  0.64313537  0.34631417  0.30809143  1
  H+  H224  1  0.67591891  0.39040330  0.15879714  1
  H+  H225  1  0.10820369  0.47239104  0.67193276  1
  H+  H226  1  0.66560319  0.52758629  0.16618027  1
  H+  H227  1  0.26808869  0.12544634  0.67149055  1
  H+  H228  1  0.86735509  0.87091118  0.99153989  1
  H+  H229  1  0.41416169  0.54942913  0.17330729  1
  H+  H230  1  0.11623542  0.39082841  0.83144491  1
  H+  H231  1  0.62455341  0.39409480  0.68328850  1
  H+  H232  1  0.51353475  0.86609376  0.67586832  1
  H+  H233  1  0.69671906  0.42882734  0.53991473  1
  H+  H234  1  0.50379907  0.85808024  0.51250402  1
  H+  H235  1  0.12302101  0.84627766  -0.05218009  1
  H+  H236  1  0.37143061  0.48614940  0.49510126  1
  H+  H237  1  0.34486214  0.22284963  0.34697739  1
  H+  H238  1  0.78557135  0.39579856  0.49526794  1
  H+  H239  1  0.81759568  0.15780293  0.45775778  1
  H+  H240  1  0.26909834  0.63027944  0.16370271  1
  H+  H241  1  0.01113238  0.13288789  0.34668470  1
  H+  H242  1  0.84120133  0.17767633  0.58169087  1
  H+  H243  1  0.39290380  0.02229198  0.66471717  1
  H+  H244  1  0.24787434  0.62929379  0.00488808  1
  H+  H245  1  0.28216315  0.89299187  0.67436738  1
  H+  H246  1  0.88371720  0.77476848  0.32348180  1
  H+  H247  1  1.03167589  0.39919623  0.83666018  1
  H+  H248  1  0.17845406  0.08601390  0.89647625  1
  H+  H249  1  0.69270178  0.28375407  0.16446826  1
  H+  H250  1  0.34077541  0.21859069  0.15805186  1
  H+  H251  1  0.63026427  0.85225769  0.67049911  1
  H+  H252  1  0.86778832  0.08978034  0.51142759  1
  H+  H253  1  0.38812941  0.89474961  0.32093340  1
  H+  H254  1  0.60528325  0.18966221  0.49840814  1
  H+  H255  1  0.11543265  0.96826262  0.66962172  1
  H+  H256  1  0.61214086  0.70310474  0.83357459  1
  H+  H257  1  -0.03206862  0.11942174  -0.00321611  1
  H+  H258  1  0.33941868  -0.02905259  0.34433610  1
  H+  H259  1  0.41367872  0.25526012  0.84724698  1
  H+  H260  1  0.14473362  0.26589389  0.64529129  1
  H+  H261  1  0.66148394  0.77295909  0.15590353  1
  H+  H262  1  0.15423966  0.96200402  -0.00002680  1
  H+  H263  1  0.35597134  0.83653029  0.84617822  1
  H+  H264  1  0.74691119  0.10246174  0.50812367  1
  H+  H265  1  0.86372273  0.23857202  0.16018911  1
  H+  H266  1  0.60788565  0.14160316  0.83295646  1
  H+  H267  1  0.28669645  0.13106803  0.82913885  1
  H+  H268  1  0.35486531  0.10005724  0.33380526  1
  H+  H269  1  0.76988839  0.87804760  0.16077562  1
  H+  H270  1  0.77735934  0.64067134  0.34081173  1
  H+  H271  1  0.88721246  0.36674192  0.33362182  1
  H+  H272  1  0.47032086  0.61261762  0.66089718  1
  H+  H273  1  0.29710353  0.45363081  0.75189559  1
  H+  H274  1  0.34934937  0.10335653  0.17143546  1
  H+  H275  1  0.62791218  0.35024135  0.50310782  1
  H+  H276  1  0.64613569  0.52883022  0.67561776  1
  H+  H277  1  0.78378706  0.14343073  0.17036720  1
  H+  H278  1  0.86081734  0.87725587  0.49750815  1
  H+  H279  1  0.22724870  0.61714543  0.33187560  1
  H+  H280  1  0.76661301  0.88176528  0.99283092  1
  H+  H281  1  0.39227608  0.39201188  0.79308990  1
  H+  H282  1  0.03172037  0.11773697  0.89777898  1
  H+  H283  1  0.53942813  0.37372311  0.83887103  1
  H+  H284  1  0.62291408  0.21460182  0.33802637  1
  H+  H285  1  0.87953424  0.86200678  0.32516279  1
  H+  H286  1  0.47097109  0.61096699  0.83504914  1
  H+  H287  1  0.63683691  0.78455624  0.32192191  1
  H+  H288  1  0.13775741  0.52610020  0.32775342  1
  H+  H289  1  0.32588844  0.91493295  0.43782503  1
  H+  H290  1  0.10239628  0.16882018  0.72114276  1
  H+  H291  1  0.38903224  0.32692858  0.26722340  1
  H+  H292  1  0.11772134  0.68126376  0.74077283  1
  H+  H293  1  0.16701428  0.82356920  0.57633914  1
  H+  H294  1  0.64979517  0.81854744  0.92745824  1
  H+  H295  1  0.34151847  0.15674268  0.76868960  1
  H+  H296  1  0.01649977  0.40213471  0.15074720  1
  H+  H297  1  0.69242446  0.32301256  0.25876785  1
  H+  H298  1  0.84455956  0.67248926  0.39544664  1
  H+  H299  1  0.82554913  0.90424200  0.40315002  1
  H+  H300  1  0.38180749  0.08532258  0.83838474  1
  H+  H301  1  0.90958501  0.84079424  0.93023846  1
  H+  H302  1  0.92055945  0.33234019  0.90558584  1
  H+  H303  1  0.57284771  0.89419562  0.45303313  1
  H+  H304  1  0.56596973  0.90054234  0.73723605  1
  H+  H305  1  0.06912961  0.15747581  0.43496964  1
  H+  H306  1  0.07141993  0.17440253  0.07111850  1
  H+  H307  1  0.65032349  0.07610885  0.61131882  1
  H+  H308  1  0.68650509  0.60072912  0.62254476  1
  H+  H309  1  0.83016545  0.16902695  0.07401835  1
  H+  H310  1  0.61548181  -0.01454649  0.52115453  1
  H+  H311  1  0.33953710  0.42740729  0.43506960  1
  H+  H312  1  0.41183563  0.08008600  0.56910722  1
  H+  H313  1  0.11618100  0.62857325  0.82870230  1
  H+  H314  1  0.58410691  0.65079932  0.77200114  1
  H+  H315  1  0.61039500  0.26200951  0.00521364  1
  H+  H316  1  0.36711185  0.06200573  0.27202282  1
  H+  H317  1  0.67812531  0.57655604  0.93629622  1
  H+  H318  1  0.08841150  0.65819475  0.06397394  1
  H+  H319  1  0.66454193  0.59506998  0.52338566  1
  H+  H320  1  0.84961683  0.67873947  0.06146611  1
  H+  H321  1  0.91986108  0.83604874  0.60387684  1
  H+  H322  1  0.27985025  0.65915825  0.75779451  1
  H+  H323  1  0.32704957  0.91679275  0.05915860  1
  H+  H324  1  0.59512423  0.41434182  0.77699414  1
  H+  H325  1  0.02020819  0.38946547  0.33701261  1
  H+  H326  1  0.31264046  0.89379994  0.77699877  1
  H+  H327  1  0.61145839  0.72381575  0.68282979  1
  H+  H328  1  0.15459456  0.33018331  0.90044548  1
  H+  H329  1  0.34759573  0.74384260  0.85092050  1
  H+  H330  1  0.31820242  0.16542277  0.40790574  1
  H+  H331  1  0.62516838  0.18682066  0.08138264  1
  H+  H332  1  0.08433897  0.42365448  0.43278612  1
  H+  H333  1  0.91134757  0.06668210  0.56600802  1
  H+  H334  1  0.07626668  0.91811631  0.39293763  1
  H+  H335  1  0.65207692  0.07252655  0.90719477  1
  H+  H336  1  0.40570759  0.05884263  0.90039031  1
  H+  H337  1  0.63051024  0.97568644  0.16802191  1
  H+  H338  1  0.41122075  0.59208852  0.26914055  1
  H+  H339  1  0.87675466  0.24059526  0.63776361  1
  H+  H340  1  0.06354987  0.14365510  0.81074510  1
  H+  H341  1  0.85283393  0.68040814  0.74316449  1
  H+  H342  1  0.07618107  0.42173699  0.73599047  1
  H+  H343  1  0.58336059  0.15062362  0.39468958  1
  H+  H344  1  0.16637877  0.57204528  0.59516617  1
  H+  H345  1  0.84128358  0.42230961  0.43434304  1
  H+  H346  1  0.11859899  0.99314688  0.49023045  1
  H+  H347  1  0.88494672  0.64590012  0.48914619  1
  H+  H348  1  0.40786826  0.58901000  0.57006571  1
  H+  H349  1  0.62626417  0.40942813  0.06749250  1
  H+  H350  1  0.87211950  0.48436895  0.66825142  1
  H+  H351  1  0.57672190  0.89520564  0.06849964  1
  H+  H352  1  0.86426598  0.47059103  0.83558691  1
  H+  H353  1  0.91716111  0.83202731  0.23058937  1
  H+  H354  1  0.17801020  0.58269632  0.90219215  1
  H+  H355  1  0.15491392  0.82530791  0.26737459  1
  H+  H356  1  0.16751621  0.32716619  0.58658759  1
  H+  H357  1  0.17162649  0.58510806  0.23742092  1
  H+  H358  1  0.57294968  0.67921588  0.38836129  1
  H+  H359  1  0.80152642  0.16824790  0.77208635  1
  H+  H360  1  0.32445526  0.67281326  0.40493188  1
  H+  H361  1  0.92533641  0.58905199  0.93033119  1
  H+  H362  1  0.36404069  0.47424508  -0.00717336  1
  H+  H363  1  0.82940984  0.92471646  0.76734806  1
  H+  H364  1  0.87645438  0.63821413  0.15312974  1
  H+  H365  1  0.02694827  0.62964624  0.15901052  1
  H+  H366  1  0.44063285  0.31695317  0.90668347  1
  H+  H367  1  0.31411536  0.66347146  0.07070744  1
  H+  H368  1  0.40085577  0.27411435  1.00107860  1
  H+  H369  1  0.78759288  0.36321147  0.18922912  1
  H+  H370  1  0.86717319  0.48063994  0.33998405  1
  H+  H371  1  0.33451012  0.16490229  0.06475431  1
  H+  H372  1  0.60265061  0.72799856  0.49154761  1
  H+  H373  1  0.71884388  0.84769406  0.51220342  1
  H+  H374  1  0.39975769  0.81338270  0.93461909  1
  H+  H375  1  0.25039524  0.12995217  0.14676661  1
  H+  H376  1  0.90379715  0.34860115  0.26835946  1
  H+  H377  1  0.77180230  0.88647518  0.67734960  1
  H+  H378  1  0.41377219  0.82579812  0.60172128  1
  H+  H379  1  0.10646507  0.89542555  0.05181619  1
  H+  H380  1  0.89195130  0.08101553  0.94595791  1
  H+  H381  1  0.67038208  0.33785014  0.61455484  1
  H+  H382  1  0.47280929  0.96050506  0.28818234  1
  H+  H383  1  0.55663011  0.35975399  0.41492714  1
  O2-  O384  1  0.06763891  0.16482716  0.12133075  1
  O2-  O385  1  0.06846969  0.15458563  0.48064814  1
  O2-  O386  1  0.12296574  0.18201374  0.79926239  1
  O2-  O387  1  0.07841333  0.42483533  0.14247121  1
  O2-  O388  1  0.08727232  0.42314711  0.47799169  1
  O2-  O389  1  0.09150920  0.42913086  0.81995229  1
  O2-  O390  1  0.08740579  0.66529675  0.14421727  1
  O2-  O391  1  0.08671821  0.66133669  0.47880676  1
  O2-  O392  1  0.08680983  0.66047518  0.81689257  1
  O2-  O393  1  0.07918410  0.91167022  0.13244833  1
  O2-  O394  1  0.09810303  0.93268607  0.47270389  1
  O2-  O395  1  0.08539763  0.93819044  0.80894059  1
  O2-  O396  1  0.31706146  0.16063180  0.14064557  1
  O2-  O397  1  0.31993906  0.16262469  0.48587542  1
  O2-  O398  1  0.34663075  0.15545351  0.81358917  1
  O2-  O399  1  0.29717435  0.39689496  0.12441033  1
  O2-  O400  1  0.36583049  0.43362618  0.47543043  1
  O2-  O401  1  0.28878046  0.47460640  0.79167000  1
  O2-  O402  1  0.32865293  0.66312390  0.14445357  1
  O2-  O403  1  0.32840519  0.67764871  0.48338512  1
  O2-  O404  1  0.26437084  0.63214556  0.83240250  1
  O2-  O405  1  0.30424691  0.90724166  0.13905341  1
  O2-  O406  1  0.33033471  0.92083904  0.48309126  1
  O2-  O407  1  0.30829346  0.88920919  0.82194042  1
  O2-  O408  1  0.62695393  0.17817445  0.12614285  1
  O2-  O409  1  0.56629416  0.13622509  0.47782972  1
  O2-  O410  1  0.59399244  0.18433951  0.81636706  1
  O2-  O411  1  0.63865861  0.41432726  0.14272284  1
  O2-  O412  1  0.53865778  0.32604592  0.45338932  1
  O2-  O413  1  0.60105392  0.41291982  0.82187081  1
  O2-  O414  1  0.60379037  0.67358006  0.13978174  1
  O2-  O415  1  0.56275476  0.67414671  0.46703548  1
  O2-  O416  1  0.58696288  0.64443661  0.81746953  1
  O2-  O417  1  0.59823057  0.91301721  0.15521877  1
  O2-  O418  1  0.57217564  0.88770015  0.49763789  1
  O2-  O419  1  0.55544530  0.91163682  0.82321492  1
  O2-  O420  1  0.84353705  0.17681171  0.15367134  1
  O2-  O421  1  0.81037201  0.13814354  0.50043565  1
  O2-  O422  1  0.80482075  0.16837851  0.81632103  1
  O2-  O423  1  0.87542153  0.39444752  0.19772397  1
  O2-  O424  1  0.84496096  0.42583078  0.48000803  1
  O2-  O425  1  0.82983788  0.40784244  0.82737420  1
  O2-  O426  1  0.84959813  0.67146446  0.13877516  1
  O2-  O427  1  0.85803058  0.68036973  0.47318385  1
  O2-  O428  1  0.83930768  0.67462636  0.83106869  1
  O2-  O429  1  0.84667049  0.92241753  0.15288882  1
  O2-  O430  1  0.82298221  0.89936750  0.48332802  1
  O2-  O431  1  0.82109740  0.92118460  0.81298378  1
  O2-  O432  1  0.15694533  0.08358458  0.15706815  1
  O2-  O433  1  0.15444946  0.08177023  0.52049272  1
  O2-  O434  1  0.18269076  0.09111905  0.85161566  1
  O2-  O435  1  0.13098147  0.31405041  0.18255945  1
  O2-  O436  1  0.15767692  0.32542798  0.51475685  1
  O2-  O437  1  0.15391383  0.33365245  0.85482871  1
  O2-  O438  1  0.17358015  0.58646616  0.19129948  1
  O2-  O439  1  0.17303339  0.58300436  0.52150580  1
  O2-  O440  1  0.17516895  0.58121599  0.85532492  1
  O2-  O441  1  0.14838675  0.82589379  0.19015609  1
  O2-  O442  1  0.16037439  0.82053780  0.52988133  1
  O2-  O443  1  0.16759243  0.79417827  0.89091955  1
  O2-  O444  1  0.37080651  0.06513057  0.18970612  1
  O2-  O445  1  0.40875350  0.08267701  0.52357791  1
  O2-  O446  1  0.40024377  0.04641493  0.85633435  1
  O2-  O447  1  0.37989525  0.33063627  0.18782762  1
  O2-  O448  1  0.40413172  0.32808866  0.52129351  1
  O2-  O449  1  0.45191786  0.31432279  0.86296484  1
  O2-  O450  1  0.43444118  0.60779819  0.18737303  1
  O2-  O451  1  0.40019091  0.58604100  0.52382406  1
  O2-  O452  1  0.41826732  0.60621414  0.85193385  1
  O2-  O453  1  0.39477797  0.83025167  0.18419888  1
  O2-  O454  1  0.42107386  0.82432294  0.53214400  1
  O2-  O455  1  0.38651688  0.80552112  0.86118583  1
  O2-  O456  1  0.67988792  0.07720792  0.19128567  1
  O2-  O457  1  0.64416422  0.04887080  0.53218968  1
  O2-  O458  1  0.64796536  0.07594548  0.86248272  1
  O2-  O459  1  0.71860631  0.33886416  0.18651122  1
  O2-  O460  1  0.67832488  0.36909600  0.53052468  1
  O2-  O461  1  0.67680809  0.33126473  0.85782047  1
  O2-  O462  1  0.69078848  0.58719558  0.18057308  1
  O2-  O463  1  0.71228672  0.64382391  0.54410223  1
  O2-  O464  1  0.67812099  0.57531625  0.85912016  1
  O2-  O465  1  0.69405813  0.83533450  0.16994881  1
  O2-  O466  1  0.65934785  0.81348903  0.52904116  1
  O2-  O467  1  0.65234770  0.82624172  0.83025357  1
  O2-  O468  1  0.91267952  0.08684627  0.20225891  1
  O2-  O469  1  0.90363511  0.06251308  0.52087433  1
  O2-  O470  1  0.87371753  0.07994610  0.86299046  1
  O2-  O471  1  0.90057870  0.35464703  0.14852757  1
  O2-  O472  1  0.93743676  0.35821346  0.53236355  1
  O2-  O473  1  0.92720064  0.33716077  0.86001385  1
  O2-  O474  1  0.92371892  0.57198096  0.18680005  1
  O2-  O475  1  0.92576778  0.59280417  0.51768458  1
  O2-  O476  1  0.92533272  0.57835136  0.85095573  1
  O2-  O477  1  0.91755899  0.83371466  0.18496144  1
  O2-  O478  1  0.93048973  0.83932060  0.52349584  1
  O2-  O479  1  0.91210585  0.84956997  0.85672066  1
  O2-  O480  1  0.14944748  0.08614635  0.31925375  1
  O2-  O481  1  0.16740983  0.07061192  0.64292400  1
  O2-  O482  1  0.18052081  0.07482364  0.97847869  1
  O2-  O483  1  0.15259117  0.32613689  0.31213648  1
  O2-  O484  1  0.17227946  0.32644665  0.63255383  1
  O2-  O485  1  0.15903432  0.33965576  0.97582845  1
  O2-  O486  1  0.16741116  0.58640571  0.31237786  1
  O2-  O487  1  0.16180750  0.56586823  0.64091184  1
  O2-  O488  1  0.16787474  0.58416178  0.97555659  1
  O2-  O489  1  0.15614527  0.82461022  0.31304206  1
  O2-  O490  1  0.17601709  0.83578080  0.64692093  1
  O2-  O491  1  0.10866361  0.82563070  0.90441966  1
  O2-  O492  1  0.37664283  0.06362323  0.31628235  1
  O2-  O493  1  0.42053140  0.08241367  0.64756953  1
  O2-  O494  1  0.41900662  0.08682419  0.98045861  1
  O2-  O495  1  0.39508644  0.32812781  0.31231885  1
  O2-  O496  1  0.44500870  0.31120777  0.63386661  1
  O2-  O497  1  0.43347978  0.33520374  0.98679266  1
  O2-  O498  1  0.41127951  0.58892076  0.31399849  1
  O2-  O499  1  0.41377945  0.58881868  0.64123468  1
  O2-  O500  1  0.41202374  0.56799815  0.96932203  1
  O2-  O501  1  0.43783801  0.89889124  0.29564945  1
  O2-  O502  1  0.41333853  0.83225835  0.64885145  1
  O2-  O503  1  0.40376165  0.81499770  0.98081037  1
  O2-  O504  1  0.67097220  0.07564240  0.31177565  1
  O2-  O505  1  0.66832142  0.10246135  0.65225691  1
  O2-  O506  1  0.66399321  0.06554080  0.98992446  1
  O2-  O507  1  0.68067362  0.32166469  0.30393457  1
  O2-  O508  1  0.67062806  0.33825537  0.65930869  1
  O2-  O509  1  0.65031163  0.36489298  0.99155534  1
  O2-  O510  1  0.65700099  0.58573615  0.34545968  1
  O2-  O511  1  0.67761565  0.59224155  0.66677070  1
  O2-  O512  1  0.68105310  0.58011146  0.98187690  1
  O2-  O513  1  0.67132914  0.84740220  0.31609665  1
  O2-  O514  1  0.66709947  0.82668619  0.65648848  1
  O2-  O515  1  0.65999158  0.82173432  0.97136024  1
  O2-  O516  1  0.90073581  0.07713729  0.32995212  1
  O2-  O517  1  0.92349189  0.08301306  0.64400782  1
  O2-  O518  1  0.90215591  0.07986465  0.98999638  1
  O2-  O519  1  0.91220834  0.33623008  0.31102618  1
  O2-  O520  1  0.92750803  0.35309152  0.64442202  1
  O2-  O521  1  0.90928057  0.33344444  0.98100234  1
  O2-  O522  1  0.92003915  0.58168821  0.31050270  1
  O2-  O523  1  0.91419671  0.58240987  0.64484076  1
  O2-  O524  1  0.92398531  0.58922647  0.97561313  1
  O2-  O525  1  0.91188634  0.83477664  0.30780018  1
  O2-  O526  1  0.91741110  0.83873436  0.64904031  1
  O2-  O527  1  0.90531985  0.83893578  0.97638034  1
  O2-  O528  1  0.06505747  0.18092226  0.00980221  1
  O2-  O529  1  0.07262327  0.16607739  0.35888091  1
  O2-  O530  1  0.09223269  0.15783361  0.67683270  1
  O2-  O531  1  0.08035438  0.42317860  0.01722556  1
  O2-  O532  1  0.08012760  0.41954426  0.35288938  1
  O2-  O533  1  0.06913577  0.41482733  0.69148839  1
  O2-  O534  1  0.08971213  0.65498140  0.01879676  1
  O2-  O535  1  0.08100221  0.66207626  0.35603912  1
  O2-  O536  1  0.14678284  0.69366901  0.70049687  1
  O2-  O537  1  0.13595279  0.90285785  0.01254744  1
  O2-  O538  1  0.07617327  0.91302529  0.34807464  1
  O2-  O539  1  0.08528665  0.90871724  0.68693895  1
  O2-  O540  1  0.33958921  0.16858399  0.01935281  1
  O2-  O541  1  0.31602786  0.16333464  0.36253586  1
  O2-  O542  1  0.32797873  0.15505964  0.68855366  1
  O2-  O543  1  0.33243980  0.41241429  0.01008059  1
  O2-  O544  1  0.31896725  0.42282544  0.35165000  1
  O2-  O545  1  0.31577345  0.42479224  0.68064579  1
  O2-  O546  1  0.31102061  0.66439027  0.02462314  1
  O2-  O547  1  0.32072649  0.66870058  0.35952955  1
  O2-  O548  1  0.28922994  0.68331505  0.71519477  1
  O2-  O549  1  0.34632850  0.92894495  0.01636378  1
  O2-  O550  1  0.31962744  0.90980038  0.35866846  1
  O2-  O551  1  0.34048610  0.92103826  0.69293168  1
  O2-  O552  1  0.59954645  0.20108055  0.00698403  1
  O2-  O553  1  0.59118840  0.15352241  0.35014540  1
  O2-  O554  1  0.58492471  0.17622154  0.69382658  1
  O2-  O555  1  0.61419574  0.41215726  0.02274602  1
  O2-  O556  1  0.61085515  0.42140773  0.34917574  1
  O2-  O557  1  0.59387925  0.42516253  0.69697198  1
  O2-  O558  1  0.58740177  0.65536566  0.01952093  1
  O2-  O559  1  0.57686065  0.67228373  0.34371580  1
  O2-  O560  1  0.57936455  0.66310569  0.69812754  1
  O2-  O561  1  0.57560086  0.89568599  0.02373543  1
  O2-  O562  1  0.58125669  0.91792780  0.36789639  1
  O2-  O563  1  0.57096086  0.88556252  0.69510284  1
  O2-  O564  1  0.82477569  0.16472033  0.02883828  1
  O2-  O565  1  0.82603604  0.16800260  0.36938395  1
  O2-  O566  1  0.84581592  0.17876728  0.62657508  1
  O2-  O567  1  0.81601521  0.42343520  0.01200530  1
  O2-  O568  1  0.83748619  0.42180391  0.35875592  1
  O2-  O569  1  0.84908085  0.42342369  0.68308631  1
  O2-  O570  1  0.84712974  0.68159491  0.01581439  1
  O2-  O571  1  0.83939148  0.66963129  0.35002802  1
  O2-  O572  1  0.84513534  0.67829506  0.69888830  1
  O2-  O573  1  0.82637062  0.90888507  0.00902028  1
  O2-  O574  1  0.82848416  0.91071584  0.35801881  1
  O2-  O575  1  0.83284802  0.92042600  0.69208954  1
