# generated using pymatgen
data_H2O
_symmetry_space_group_name_H-M   'P 1'
_cell_length_a   17.95369022
_cell_length_b   17.93251981
_cell_length_c   21.93577657
_cell_angle_alpha   90.00494505
_cell_angle_beta   90.06286397
_cell_angle_gamma   120.05492157
_symmetry_Int_Tables_number   1
_chemical_formula_structural   H2O
_chemical_formula_sum   'H384 O192'
_cell_volume   6112.76496646
_cell_formula_units_Z   192
loop_
 _symmetry_equiv_pos_site_id
 _symmetry_equiv_pos_as_xyz
  1  'x, y, z'
loop_
 _atom_type_symbol
 _atom_type_oxidation_number
  H+  1.0
  O2-  -2.0
loop_
 _atom_site_type_symbol
 _atom_site_label
 _atom_site_symmetry_multiplicity
 _atom_site_fract_x
 _atom_site_fract_y
 _atom_site_fract_z
 _atom_site_occupancy
  H+  H0  1  0.31278297  0.44624431  -0.00143716  1
  H+  H1  1  0.87296840  0.40157029  0.83579439  1
  H+  H2  1  0.02230755  0.86705520  0.81501876  1
  H+  H3  1  0.73399273  0.21527594  0.55435433  1
  H+  H4  1  0.35860043  0.61345125  0.65740487  1
  H+  H5  1  0.87041756  0.90391927  0.83224649  1
  H+  H6  1  0.25291950  0.64487540  0.18515492  1
  H+  H7  1  0.89068022  0.35716792  0.65475584  1
  H+  H8  1  0.12667986  0.00854060  0.65654725  1
  H+  H9  1  0.47584375  0.35177813  0.35344024  1
  H+  H10  1  0.72732185  0.12263303  0.83682579  1
  H+  H11  1  0.39285091  0.86929852  0.17567393  1
  H+  H12  1  0.96772569  0.60751704  0.16745654  1
  H+  H13  1  0.85299440  0.47714226  0.34206888  1
  H+  H14  1  0.02393832  0.15757446  0.15214167  1
  H+  H15  1  0.12097234  0.47395513  0.82574618  1
  H+  H16  1  0.77660616  0.62975469  0.33689338  1
  H+  H17  1  0.78392863  0.63169133  0.49255200  1
  H+  H18  1  0.98090624  0.11228720  0.49180440  1
  H+  H19  1  0.74567477  0.85410323  0.15988240  1
  H+  H20  1  0.61886767  0.89617637  0.83069836  1
  H+  H21  1  0.27608563  0.25276534  0.68521296  1
  H+  H22  1  0.61425278  1.01237744  0.16594914  1
  H+  H23  1  0.33101130  0.39611493  0.74105852  1
  H+  H24  1  0.62654512  0.27672058  0.50524609  1
  H+  H25  1  0.58959783  0.90464081  0.38857482  1
  H+  H26  1  0.32911154  0.32730590  0.78604982  1
  H+  H27  1  0.62817192  0.16398505  0.81533566  1
  H+  H28  1  0.10914363  0.71956144  0.49708721  1
  H+  H29  1  -0.02359164  0.10106628  0.32270167  1
  H+  H30  1  0.90298421  0.62387813  0.84936547  1
  H+  H31  1  0.65037160  0.29347619  0.84166653  1
  H+  H32  1  0.36969801  0.11502301  0.50509153  1
  H+  H33  1  0.78797784  0.53661288  0.73878752  1
  H+  H34  1  0.87813851  0.76517456  0.64444459  1
  H+  H35  1  0.88460531  0.03385188  0.83750029  1
  H+  H36  1  0.32504077  0.41691080  0.40039391  1
  H+  H37  1  0.92030162  0.04697827  0.99292561  1
  H+  H38  1  0.08464340  0.42081166  0.42947660  1
  H+  H39  1  0.20513653  0.69163797  0.21077757  1
  H+  H40  1  0.86438044  0.23643238  0.83205096  1
  H+  H41  1  0.87296338  0.38638760  0.15592329  1
  H+  H42  1  0.18828960  0.43110516  0.97621686  1
  H+  H43  1  0.62365994  0.72411630  0.15219977  1
  H+  H44  1  0.88901232  0.60860232  0.50853443  1
  H+  H45  1  0.89684478  0.53049076  0.84444325  1
  H+  H46  1  0.64802846  0.38117882  0.84138307  1
  H+  H47  1  0.86252327  0.14624908  0.82876248  1
  H+  H48  1  0.77469929  0.88380568  0.67253002  1
  H+  H49  1  0.25715746  0.27122883  0.91668948  1
  H+  H50  1  0.27109020  0.87834573  0.82535727  1
  H+  H51  1  0.63508576  0.36033340  0.16960239  1
  H+  H52  1  0.38221127  0.86006574  0.99781848  1
  H+  H53  1  0.22171909  0.22764722  0.21928982  1
  H+  H54  1  0.64341096  0.60725043  0.32208143  1
  H+  H55  1  0.10312410  0.62925425  0.15561412  1
  H+  H56  1  0.47869439  0.37608690  0.99930270  1
  H+  H57  1  0.38122383  0.73598232  1.01388213  1
  H+  H58  1  0.38426450  0.11372784  0.17088169  1
  H+  H59  1  -0.14088434  0.22550780  0.67165088  1
  H+  H60  1  0.37201711  0.90211024  0.67111661  1
  H+  H61  1  0.91034725  0.87830817  0.16576086  1
  H+  H62  1  0.12232941  0.38551632  0.82397533  1
  H+  H63  1  0.13485257  0.52140169  0.50420381  1
  H+  H64  1  0.97742789  0.61146015  0.32369265  1
  H+  H65  1  0.91783355  0.08492541  0.22999119  1
  H+  H66  1  0.61624747  0.86381677  -0.00577122  1
  H+  H67  1  0.72584456  0.37028247  0.99901474  1
  H+  H68  1  0.25401360  0.64307211  0.52307538  1
  H+  H69  1  0.14930400  0.77313929  0.66001855  1
  H+  H70  1  0.64506686  0.76633874  0.31884491  1
  H+  H71  1  0.35585355  0.23236808  0.48638633  1
  H+  H72  1  0.11514428  0.13223892  0.66905101  1
  H+  H73  1  0.63759771  0.60825126  0.16642760  1
  H+  H74  1  0.62396413  0.97613643  0.68187225  1
  H+  H75  1  0.98224610  0.60089929  0.66392463  1
  H+  H76  1  0.39137755  0.52154370  0.64002624  1
  H+  H77  1  0.34702329  0.47001184  0.49301781  1
  H+  H78  1  0.37868287  0.63844562  0.82566678  1
  H+  H79  1  0.38356506  0.26217635  0.35407018  1
  H+  H80  1  0.08082658  0.14552173  0.38809013  1
  H+  H81  1  0.61030492  0.21592651  0.34077162  1
  H+  H82  1  0.23367322  0.37126069  0.32002328  1
  H+  H83  1  0.07442195  0.88837564  0.75109399  1
  H+  H84  1  0.69784085  0.18253684  0.21968833  1
  H+  H85  1  0.26941552  0.88106282  0.00774676  1
  H+  H86  1  0.37131288  0.12374807  1.01430813  1
  H+  H87  1  0.13969335  0.26998564  0.65559394  1
  H+  H88  1  0.47732687  0.10918188  0.32406937  1
  H+  H89  1  0.21620310  0.35606410  0.50129759  1
  H+  H90  1  0.71846237  0.58263130  0.67212026  1
  H+  H91  1  0.61347533  0.62599859  0.66830497  1
  H+  H92  1  0.27895088  0.39421643  0.16425735  1
  H+  H93  1  0.89385150  0.01881716  0.64529001  1
  H+  H94  1  0.15584628  0.38985138  0.17122069  1
  H+  H95  1  0.64310149  0.85464842  0.31487723  1
  H+  H96  1  0.36212564  -0.03228801  1.01090265  1
  H+  H97  1  -0.06679475  0.32976647  0.12038603  1
  H+  H98  1  0.11865158  0.63137253  0.67628229  1
  H+  H99  1  0.99715965  0.94406079  0.86718387  1
  H+  H100  1  0.64587364  0.51710790  0.50723579  1
  H+  H101  1  0.36029672  0.08778316  0.86180815  1
  H+  H102  1  0.27976529  0.87351118  0.16775012  1
  H+  H103  1  0.35183332  0.67908720  1.07583159  1
  H+  H104  1  1.06126286  0.16455627  0.99525007  1
  H+  H105  1  0.11184130  0.13214075  0.49131570  1
  H+  H106  1  0.48236301  0.36843526  0.15420584  1
  H+  H107  1  0.39761594  0.77829670  0.83872334  1
  H+  H108  1  0.33409182  0.91965324  0.43009284  1
  H+  H109  1  0.48520598  0.61975965  0.18111472  1
  H+  H110  1  0.61216085  0.39466843  -0.00079392  1
  H+  H111  1  0.27740354  0.14042723  0.15383781  1
  H+  H112  1  0.88866101  0.85539234  0.32141510  1
  H+  H113  1  0.01681911  0.14446370  0.81844186  1
  H+  H114  1  0.41186033  0.03787471  0.65817205  1
  H+  H115  1  0.13797897  0.85617494  0.32733795  1
  H+  H116  1  0.35821928  0.38407026  0.48865506  1
  H+  H117  1  0.36493739  0.39261612  0.64111990  1
  H+  H118  1  0.50248554  0.13966561  0.49053654  1
  H+  H119  1  0.09193943  0.12344948  0.81739412  1
  H+  H120  1  0.49477857  0.07784433  0.61689609  1
  H+  H121  1  0.86186326  0.23243028  0.16496577  1
  H+  H122  1  0.47745341  0.10273005  -0.00292375  1
  H+  H123  1  -0.01682811  0.10660588  0.64345113  1
  H+  H124  1  0.63052040  0.35168647  0.32789609  1
  H+  H125  1  0.32816184  0.53602887  0.90203765  1
  H+  H126  1  0.63325162  0.12129313  -0.00835080  1
  H+  H127  1  0.43873896  0.62192983  0.47977968  1
  H+  H128  1  0.86232028  0.38372155  1.01175753  1
  H+  H129  1  0.53083581  -0.00827541  0.57359412  1
  H+  H130  1  0.14146591  0.61706290  0.33999733  1
  H+  H131  1  0.77559598  0.87723807  0.33115448  1
  H+  H132  1  0.48309153  0.86760881  0.32612566  1
  H+  H133  1  0.90218105  0.27681582  1.00343096  1
  H+  H134  1  0.51807038  0.13310932  0.15720383  1
  H+  H135  1  0.13332843  0.50637975  0.66155460  1
  H+  H136  1  0.23258645  0.35349127  0.82343762  1
  H+  H137  1  0.85958911  0.46025592  0.66120097  1
  H+  H138  1  0.76634470  0.38385246  0.59838049  1
  H+  H139  1  0.22856281  0.61665826  0.83805524  1
  H+  H140  1  1.01878716  0.62911683  0.49901074  1
  H+  H141  1  0.24916924  0.60078672  0.66270898  1
  H+  H142  1  0.83456756  0.90951076  0.39177908  1
  H+  H143  1  0.38681694  0.87154854  0.49950875  1
  H+  H144  1  0.65002254  0.77058039  0.50599582  1
  H+  H145  1  0.40139148  0.52671106  0.33687416  1
  H+  H146  1  0.72892140  0.61274672  0.16714241  1
  H+  H147  1  0.88463496  0.14219779  0.48201154  1
  H+  H148  1  0.25688136  0.22798512  0.23795089  1
  H+  H149  1  0.02752591  0.88569496  0.49043740  1
  H+  H150  1  0.03505705  0.39137555  0.33029294  1
  H+  H151  1  0.12002716  0.72183216  0.82869110  1
  H+  H152  1  0.39565947  0.53274268  0.18408316  1
  H+  H153  1  0.61253842  -0.01501998  1.00259234  1
  H+  H154  1  0.47050112  0.85803231  0.49626433  1
  H+  H155  1  0.90783817  0.27339545  0.30311449  1
  H+  H156  1  0.64103861  0.10442128  0.33327346  1
  H+  H157  1  0.13689851  1.02186591  0.50541734  1
  H+  H158  1  0.15596706  0.04743671  0.98791558  1
  H+  H159  1  0.12121774  0.48337955  0.34260890  1
  H+  H160  1  0.52370166  0.39516908  0.48936519  1
  H+  H161  1  0.67876010  0.82524273  1.00395139  1
  H+  H162  1  0.63940206  0.85948130  0.66095838  1
  H+  H163  1  0.11025270  0.22078985  0.48585292  1
  H+  H164  1  0.26653739  0.11983126  0.33157218  1
  H+  H165  1  0.64399732  0.53820291  0.83122391  1
  H+  H166  1  0.88979076  0.77139828  0.49740889  1
  H+  H167  1  0.61136388  0.87057234  0.48947978  1
  H+  H168  1  0.12418428  0.50081236  0.16726696  1
  H+  H169  1  0.48230691  0.86952011  0.84282849  1
  H+  H170  1  0.88741829  0.76528555  0.32121732  1
  H+  H171  1  0.88160061  0.23717409  0.48024619  1
  H+  H172  1  0.11364183  0.72412693  0.34443456  1
  H+  H173  1  0.72993849  0.86784342  0.84018005  1
  H+  H174  1  0.25919243  0.19153036  0.94353797  1
  H+  H175  1  0.11192400  0.24832226  0.15395637  1
  H+  H176  1  0.86755213  0.63333681  0.33589383  1
  H+  H177  1  0.88831011  0.58913137  0.67250905  1
  H+  H178  1  0.61082564  0.38789226  0.49540601  1
  H+  H179  1  0.27816594  0.66520281  0.37902676  1
  H+  H180  1  0.62667868  0.50258728  0.65896695  1
  H+  H181  1  0.55081975  0.21047401  0.66459372  1
  H+  H182  1  0.12598993  0.60769620  0.50980517  1
  H+  H183  1  0.61554708  0.73598363  0.82300406  1
  H+  H184  1  0.02304176  0.38146155  0.66889747  1
  H+  H185  1  0.10369338  -0.00574243  0.81716726  1
  H+  H186  1  0.87276462  0.74181245  0.83490303  1
  H+  H187  1  0.38350817  0.74179815  0.16639377  1
  H+  H188  1  -0.00833527  0.36740838  0.00082974  1
  H+  H189  1  0.92811044  0.33953339  0.90573887  1
  H+  H190  1  0.38582547  0.37001534  0.16062014  1
  H+  H191  1  0.82606058  0.41438858  0.43269736  1
  H+  H192  1  0.61314585  0.95909333  0.48363164  1
  H+  H193  1  0.63823745  0.10336200  0.70313862  1
  H+  H194  1  0.73113492  0.12267517  0.67756794  1
  H+  H195  1  0.13316832  0.00183782  0.31768160  1
  H+  H196  1  0.83119728  0.17720888  0.73629102  1
  H+  H197  1  0.90879915  0.90751190  0.99943275  1
  H+  H198  1  0.03605114  0.91017065  0.00614438  1
  H+  H199  1  0.36218742  0.88303812  0.82478107  1
  H+  H200  1  0.23027106  0.86092665  0.33272041  1
  H+  H201  1  0.11023018  0.38720464  0.48964574  1
  H+  H202  1  0.65001258  0.28537224  0.66347289  1
  H+  H203  1  0.22550650  0.85808273  0.50137872  1
  H+  H204  1  0.37870113  0.64901420  0.16944689  1
  H+  H205  1  0.36111819  0.75275871  0.37016629  1
  H+  H206  1  0.36505356  -0.02201704  0.33690692  1
  H+  H207  1  0.35330389  0.74285760  0.51983446  1
  H+  H208  1  0.81877674  0.94438978  0.00208200  1
  H+  H209  1  0.13682887  0.35825683  0.65710435  1
  H+  H210  1  0.12641854  0.49510650  1.00759681  1
  H+  H211  1  0.97725009  0.36624519  0.49728142  1
  H+  H212  1  0.15870394  0.05177846  0.25406523  1
  H+  H213  1  0.55656286  0.62544550  0.49657605  1
  H+  H214  1  0.64737372  0.63586736  0.49717355  1
  H+  H215  1  0.53114729  0.64251866  0.82521211  1
  H+  H216  1  0.35607381  -0.02221170  0.49084257  1
  H+  H217  1  0.92071333  0.08175709  0.55185286  1
  H+  H218  1  0.62891111  0.26873557  0.16946295  1
  H+  H219  1  0.66427324  0.83516510  0.89775744  1
  H+  H220  1  0.12330508  0.64903297  1.00736790  1
  H+  H221  1  0.61258868  0.14127835  0.16167295  1
  H+  H222  1  0.62211763  0.97111879  0.33291792  1
  H+  H223  1  0.77904208  0.88912468  0.48964109  1
  H+  H224  1  0.30438702  0.17959447  0.85866428  1
  H+  H225  1  0.78007505  0.13160710  0.33810902  1
  H+  H226  1  0.88381819  0.01467003  0.32100093  1
  H+  H227  1  0.36491954  0.38397401  0.35169413  1
  H+  H228  1  0.28872295  0.13693337  1.01350294  1
  H+  H229  1  0.61277983  0.47674244  0.15301557  1
  H+  H230  1  0.60539279  0.48297327  -0.00240110  1
  H+  H231  1  0.36915928  0.89058154  0.34002039  1
  H+  H232  1  0.44206914  0.71034206  0.78027555  1
  H+  H233  1  0.10361530  0.10951949  0.32833675  1
  H+  H234  1  0.17926660  0.35230221  0.23077536  1
  H+  H235  1  0.53011925  0.40083833  0.82265637  1
  H+  H236  1  0.86337350  0.63877425  0.15581555  1
  H+  H237  1  0.13597774  0.84926414  0.83445272  1
  H+  H238  1  0.60805363  0.21556071  0.76298583  1
  H+  H239  1  0.34541122  0.11181800  0.70554584  1
  H+  H240  1  0.22297254  0.11428911  0.50657960  1
  H+  H241  1  0.89706442  0.52151352  0.99920956  1
  H+  H242  1  0.11151887  0.87323437  0.66106840  1
  H+  H243  1  0.76450221  0.14854191  0.17336167  1
  H+  H244  1  0.87469723  0.98296079  0.15757720  1
  H+  H245  1  0.05211207  0.92520832  0.16310789  1
  H+  H246  1  0.86808449  0.97846333  0.48412046  1
  H+  H247  1  0.92920843  0.58180491  0.94022356  1
  H+  H248  1  0.14611867  0.37323314  0.32109905  1
  H+  H249  1  0.48726442  0.88279756  0.17852331  1
  H+  H250  1  0.39576490  0.40047128  1.00944110  1
  H+  H251  1  0.75625464  0.66943826  1.00932634  1
  H+  H252  1  0.38072856  0.02182795  0.17082249  1
  H+  H253  1  0.87925978  0.51846347  0.17033540  1
  H+  H254  1  0.01982305  0.87252445  0.33593455  1
  H+  H255  1  0.72856160  0.19477848  0.52365529  1
  H+  H256  1  0.24914314  0.08955739  0.69382516  1
  H+  H257  1  0.16877358  0.07118099  0.85530603  1
  H+  H258  1  0.87194174  0.73178423  0.15784886  1
  H+  H259  1  0.13863301  0.61293157  0.84003445  1
  H+  H260  1  0.83175137  0.41321689  0.07106224  1
  H+  H261  1  0.40581189  0.51958616  0.02528481  1
  H+  H262  1  0.64483004  0.62735226  0.83245882  1
  H+  H263  1  0.48715975  0.87562583  0.65963511  1
  H+  H264  1  0.34837273  0.64577594  0.51808393  1
  H+  H265  1  0.13962227  0.87103955  0.99140511  1
  H+  H266  1  0.23551645  0.86726501  0.65882239  1
  H+  H267  1  0.88085418  0.11453448  0.17483409  1
  H+  H268  1  0.29791777  0.22860069  0.69576828  1
  H+  H269  1  0.41668516  0.83401644  0.93805641  1
  H+  H270  1  0.83020515  0.11189360  0.02997892  1
  H+  H271  1  0.16225487  0.56973473  0.60072802  1
  H+  H272  1  0.42578659  0.60403771  0.91364548  1
  H+  H273  1  0.86100233  0.46981768  0.49456412  1
  H+  H274  1  0.78236659  0.65425811  0.83874420  1
  H+  H275  1  0.41779601  0.33883220  0.44704379  1
  H+  H276  1  0.76543114  0.38584674  0.34175659  1
  H+  H277  1  0.61117796  0.23297404  0.00676428  1
  H+  H278  1  0.58291368  0.13329525  0.50682687  1
  H+  H279  1  0.88875933  0.86165974  0.49658880  1
  H+  H280  1  0.14129210  0.27100825  0.83731584  1
  H+  H281  1  0.02962393  0.63359028  0.82894464  1
  H+  H282  1  0.88909525  0.80773916  -0.00026372  1
  H+  H283  1  0.77707825  0.37985137  0.16263980  1
  H+  H284  1  0.88329682  0.35833893  0.49760069  1
  H+  H285  1  0.61579563  0.47006128  0.33640357  1
  H+  H286  1  0.14499257  0.75332404  0.18034102  1
  H+  H287  1  0.50608368  0.37678605  0.65555684  1
  H+  H288  1  0.67114876  0.57591549  0.26228963  1
  H+  H289  1  0.41904746  0.34429942  0.56121900  1
  H+  H290  1  0.34259096  0.16803083  0.09580120  1
  H+  H291  1  0.93886935  0.14951169  0.98477036  1
  H+  H292  1  0.82239251  0.16664066  0.08327037  1
  H+  H293  1  0.82830985  0.63428153  0.75366971  1
  H+  H294  1  0.41681801  0.59275863  0.55158323  1
  H+  H295  1  0.32137521  0.16153272  0.43212260  1
  H+  H296  1  0.67357522  0.08797730  0.26991769  1
  H+  H297  1  0.11629859  0.88480913  0.49165986  1
  H+  H298  1  0.59784848  0.60697844  0.97718593  1
  H+  H299  1  0.07715818  0.66163581  0.40251080  1
  H+  H300  1  0.78559889  0.40406891  0.83701401  1
  H+  H301  1  0.63825264  0.76932839  0.65592001  1
  H+  H302  1  0.35803906  0.12488951  0.33707045  1
  H+  H303  1  0.42780743  0.85043916  0.59933231  1
  H+  H304  1  0.52242204  0.89633184  0.00861491  1
  H+  H305  1  0.65893083  0.32277289  0.26725772  1
  H+  H306  1  0.67040679  0.83191383  0.56423048  1
  H+  H307  1  0.91563673  0.57570853  0.56927358  1
  H+  H308  1  0.33325672  0.64387184  0.72191485  1
  H+  H309  1  0.56200613  0.65707093  0.10009230  1
  H+  H310  1  0.86898977  0.12736474  0.33433963  1
  H+  H311  1  0.15621627  0.32504287  0.55993230  1
  H+  H312  1  0.67006066  0.34595800  0.93766403  1
  H+  H313  1  0.08243712  0.41082691  0.73034026  1
  H+  H314  1  0.33674634  0.92609982  0.73037173  1
  H+  H315  1  0.60914054  0.06859576  0.60851267  1
  H+  H316  1  0.17066666  0.83023760  0.56297629  1
  H+  H317  1  0.85221000  0.17134791  0.41357664  1
  H+  H318  1  0.01851506  0.86865239  0.65871745  1
  H+  H319  1  0.91696151  0.58245067  0.26337021  1
  H+  H320  1  0.16540426  0.82890039  0.89921485  1
  H+  H321  1  0.16619569  0.07568304  0.60167952  1
  H+  H322  1  0.08117247  0.16526332  0.72482908  1
  H+  H323  1  0.21285096  0.39139184  0.91965980  1
  H+  H324  1  0.37827028  0.28316720  0.61832978  1
  H+  H325  1  0.86146858  0.93913453  0.09325766  1
  H+  H326  1  0.91221437  0.82819183  0.58736365  1
  H+  H327  1  0.84056793  0.66090698  0.43097282  1
  H+  H328  1  0.61612029  0.98510627  0.82779187  1
  H+  H329  1  0.58351434  0.42062532  0.09116968  1
  H+  H330  1  0.10557836  0.94673961  0.05965674  1
  H+  H331  1  0.41923342  0.83785199  0.26972583  1
  H+  H332  1  0.57204759  0.41773672  0.75744124  1
  H+  H333  1  0.15978200  0.13970162  1.00034276  1
  H+  H334  1  0.59299819  0.41964122  0.40010456  1
  H+  H335  1  -0.01659745  0.36640000  0.84412108  1
  H+  H336  1  0.07838725  0.66287513  0.09534706  1
  H+  H337  1  0.65310319  0.59023095  0.92933073  1
  H+  H338  1  0.83474734  0.91945579  0.76859259  1
  H+  H339  1  0.27464923  0.38959449  0.65213175  1
  H+  H340  1  0.28874204  0.11963546  0.79906530  1
  H+  H341  1  0.60605823  0.66590414  0.39538419  1
  H+  H342  1  0.18437089  0.59868123  0.93663764  1
  H+  H343  1  0.10488909  0.19354769  0.06011765  1
  H+  H344  1  0.57300566  0.34888695  0.67831345  1
  H+  H345  1  0.18186969  0.80336038  0.24461634  1
  H+  H346  1  0.48052639  0.61249792  0.64602564  1
  H+  H347  1  0.13306295  0.77770877  0.99477629  1
  H+  H348  1  0.58976527  0.95074640  0.10845261  1
  H+  H349  1  0.34258073  0.43179765  0.10579158  1
  H+  H350  1  0.82111809  0.68871053  0.06400477  1
  H+  H351  1  0.57606770  0.15740558  0.40062955  1
  H+  H352  1  0.68453024  0.82327959  0.21833911  1
  H+  H353  1  0.72114928  0.12053016  0.99521567  1
  H+  H354  1  0.41765082  0.08222844  0.26346771  1
  H+  H355  1  0.24446228  0.62728637  0.99652384  1
  H+  H356  1  0.03465220  0.41093528  0.15903156  1
  H+  H357  1  0.94100071  0.33235510  0.24410100  1
  H+  H358  1  0.32936911  0.91081857  0.10376651  1
  H+  H359  1  0.08100530  0.90684056  0.39589303  1
  H+  H360  1  0.19166217  0.60395627  0.28600752  1
  H+  H361  1  0.53395843  0.63214280  0.34212832  1
  H+  H362  1  0.37832021  1.01205209  0.84805338  1
  H+  H363  1  0.55681388  0.71440748  -0.02698214  1
  H+  H364  1  0.40879232  0.08779397  0.56239928  1
  H+  H365  1  0.37437629  0.31025323  0.96808549  1
  H+  H366  1  0.68062808  0.57417192  0.56910292  1
  H+  H367  1  0.02681176  0.63582117  0.00666229  1
  H+  H368  1  0.38393467  0.27025377  0.15714416  1
  H+  H369  1  0.58177095  0.66099615  0.72354429  1
  H+  H370  1  0.08944877  0.66280458  0.73479184  1
  H+  H371  1  0.41153850  0.06605365  0.93978556  1
  H+  H372  1  0.93619512  0.87221313  0.91352156  1
  H+  H373  1  0.58348131  0.17073942  0.06540032  1
  H+  H374  1  0.10655702  0.43719098  0.06617969  1
  H+  H375  1  0.93537702  0.84391170  0.22549221  1
  H+  H376  1  0.66356240  0.09409695  0.89340590  1
  H+  H377  1  0.92859645  0.09812800  0.89497462  1
  H+  H378  1  0.71785678  0.36253627  0.49943287  1
  H+  H379  1  0.58731924  0.91181455  0.73678679  1
  H+  H380  1  0.92041987  0.32931421  0.59432363  1
  H+  H381  1  0.43020767  0.65047909  1.02682439  1
  H+  H382  1  0.86235456  0.88275968  0.67166701  1
  H+  H383  1  0.43011096  0.59313368  0.28232596  1
  O2-  O384  1  0.08084172  0.19228900  0.13259694  1
  O2-  O385  1  0.08169364  0.15977621  0.47123741  1
  O2-  O386  1  0.07780576  0.16846743  0.80409650  1
  O2-  O387  1  0.09904214  0.44434904  0.14761564  1
  O2-  O388  1  0.08400491  0.42231682  0.47581717  1
  O2-  O389  1  0.09020616  0.41426225  0.80931844  1
  O2-  O390  1  0.07093216  0.65702083  0.14128956  1
  O2-  O391  1  0.07960848  0.65801259  0.48334162  1
  O2-  O392  1  0.09026130  0.66106419  0.81216583  1
  O2-  O393  1  0.11309769  0.95905124  0.14637519  1
  O2-  O394  1  0.08823535  0.91708431  0.47576314  1
  O2-  O395  1  0.07974155  0.88920154  0.79684970  1
  O2-  O396  1  0.33901107  0.17612584  0.14317616  1
  O2-  O397  1  0.32291657  0.16801965  0.47752909  1
  O2-  O398  1  0.28336765  0.12040565  0.84447195  1
  O2-  O399  1  0.34248970  0.42162744  0.15025876  1
  O2-  O400  1  0.31828169  0.40963530  0.47971989  1
  O2-  O401  1  0.32540341  0.37963306  0.78498652  1
  O2-  O402  1  0.35036944  0.68016266  0.15155791  1
  O2-  O403  1  0.31940528  0.67863423  0.53349352  1
  O2-  O404  1  0.38153441  0.67903759  0.79221803  1
  O2-  O405  1  0.33580598  0.91713098  0.14909998  1
  O2-  O406  1  0.33206142  0.91715510  0.47624059  1
  O2-  O407  1  0.33088560  0.91142494  0.80864388  1
  O2-  O408  1  0.57838548  0.16612712  0.14151935  1
  O2-  O409  1  0.56534263  0.16614376  0.48037365  1
  O2-  O410  1  0.60727772  0.20462340  0.80693033  1
  O2-  O411  1  0.57868702  0.41598399  0.13664066  1
  O2-  O412  1  0.58729170  0.42490119  0.47910555  1
  O2-  O413  1  0.58559009  0.43086106  0.80200443  1
  O2-  O414  1  0.58139729  0.66015593  0.14230807  1
  O2-  O415  1  0.61438060  0.66502131  0.48193809  1
  O2-  O416  1  0.58698523  0.67560791  0.80531862  1
  O2-  O417  1  0.58420470  0.95193279  0.15303072  1
  O2-  O418  1  0.57937405  0.89868419  0.47179802  1
  O2-  O419  1  0.58508773  0.92256992  0.81517582  1
  O2-  O420  1  0.82571122  0.17001533  0.15381543  1
  O2-  O421  1  0.85709148  0.17601852  0.46300685  1
  O2-  O422  1  0.83143331  0.17672182  0.81498142  1
  O2-  O423  1  0.83573992  0.41514917  0.14573313  1
  O2-  O424  1  0.82799031  0.40943026  0.47928439  1
  O2-  O425  1  0.84594615  0.43515717  0.82187247  1
  O2-  O426  1  0.83434149  0.67183449  0.14338456  1
  O2-  O427  1  0.84426369  0.66470518  0.47681323  1
  O2-  O428  1  0.84350346  0.68058499  0.82446253  1
  O2-  O429  1  0.85361495  0.92519795  0.13823232  1
  O2-  O430  1  0.83805782  0.91595001  0.47218677  1
  O2-  O431  1  0.83156421  0.92305995  0.81402172  1
  O2-  O432  1  0.15407204  0.04065779  0.17253651  1
  O2-  O433  1  0.16291377  0.08095709  0.52337594  1
  O2-  O434  1  0.10699919  0.04144153  0.84302122  1
  O2-  O435  1  0.18365898  0.35633796  0.18379486  1
  O2-  O436  1  0.15411162  0.32553505  0.51450024  1
  O2-  O437  1  0.17997471  0.33268207  0.84944670  1
  O2-  O438  1  0.19758050  0.63294399  0.20507882  1
  O2-  O439  1  0.15912265  0.57920034  0.52572079  1
  O2-  O440  1  0.17142663  0.58402149  0.85600169  1
  O2-  O441  1  0.19822833  0.78835788  0.20461015  1
  O2-  O442  1  0.16526196  0.82733332  0.51754271  1
  O2-  O443  1  0.16771691  0.82283365  0.85376253  1
  O2-  O444  1  0.41410167  0.08298566  0.18565109  1
  O2-  O445  1  0.40028496  0.08313904  0.51734262  1
  O2-  O446  1  0.40212447  0.06814430  0.86950327  1
  O2-  O447  1  0.41867950  0.33619908  0.16824654  1
  O2-  O448  1  0.41441841  0.34130072  0.49216812  1
  O2-  O449  1  0.29675514  0.24921818  0.92259142  1
  O2-  O450  1  0.42551292  0.59345209  0.19807497  1
  O2-  O451  1  0.39317698  0.58919842  0.50919028  1
  O2-  O452  1  0.38102940  0.57995232  0.88169872  1
  O2-  O453  1  0.42597684  0.84221690  0.19168152  1
  O2-  O454  1  0.41541550  0.84019026  0.51797281  1
  O2-  O455  1  0.42099734  0.83573606  0.85727086  1
  O2-  O456  1  0.68043817  0.12611038  0.20196100  1
  O2-  O457  1  0.56465655  0.05443234  0.57553520  1
  O2-  O458  1  0.66453213  0.09154732  0.84801370  1
  O2-  O459  1  0.66203453  0.32855068  0.18690264  1
  O2-  O460  1  0.66005695  0.33770148  0.51895201  1
  O2-  O461  1  0.67753566  0.35353484  0.86070147  1
  O2-  O462  1  0.66759028  0.57742414  0.18118558  1
  O2-  O463  1  0.68399690  0.57822497  0.52381004  1
  O2-  O464  1  0.67319967  0.59657860  0.85014853  1
  O2-  O465  1  0.68488563  0.81730659  0.17347053  1
  O2-  O466  1  0.67098098  0.83142685  0.51840940  1
  O2-  O467  1  0.66728353  0.83559438  0.85249462  1
  O2-  O468  1  0.91626397  0.08748766  0.18450408  1
  O2-  O469  1  0.91867414  0.08537539  0.50526509  1
  O2-  O470  1  0.91689857  0.09569275  0.84951326  1
  O2-  O471  1  0.93108859  0.34774133  0.16196359  1
  O2-  O472  1  0.91612298  0.32897518  0.51111772  1
  O2-  O473  1  0.92391651  0.34016665  0.86041087  1
  O2-  O474  1  0.90809285  0.58011593  0.18441532  1
  O2-  O475  1  0.91687409  0.57570456  0.52388371  1
  O2-  O476  1  0.93366220  0.59277484  0.85951518  1
  O2-  O477  1  0.94396637  0.85066431  0.18049135  1
  O2-  O478  1  0.91893054  0.83189418  0.51370547  1
  O2-  O479  1  0.94647918  0.88518556  0.86745140  1
  O2-  O480  1  0.16382300  0.06078028  0.29917679  1
  O2-  O481  1  0.16194963  0.07130140  0.64726796  1
  O2-  O482  1  0.19289283  0.11090542  0.98355670  1
  O2-  O483  1  0.17612947  0.34629147  0.30060685  1
  O2-  O484  1  0.16855572  0.33093805  0.63958475  1
  O2-  O485  1  0.23762704  0.43692026  0.95154762  1
  O2-  O486  1  0.17904587  0.59212388  0.33008773  1
  O2-  O487  1  0.16982125  0.56941420  0.64654703  1
  O2-  O488  1  0.18419949  0.60106401  0.98199713  1
  O2-  O489  1  0.16993668  0.82520006  0.31711342  1
  O2-  O490  1  0.17526780  0.83184466  0.64220223  1
  O2-  O491  1  0.16640093  0.83696689  0.97679109  1
  O2-  O492  1  0.41640076  0.08033997  0.30919255  1
  O2-  O493  1  0.45309388  0.09209037  0.63611984  1
  O2-  O494  1  0.41526129  0.06698971  0.98655293  1
  O2-  O495  1  0.41366808  0.32487195  0.36394248  1
  O2-  O496  1  0.41645950  0.34363012  0.60819578  1
  O2-  O497  1  0.41337626  0.35339942  1.00043718  1
  O2-  O498  1  0.43695361  0.58928424  0.32680333  1
  O2-  O499  1  0.42133810  0.58478690  0.62759926  1
  O2-  O500  1  0.47308198  0.62730656  1.02892865  1
  O2-  O501  1  0.42106585  0.84229845  0.31528380  1
  O2-  O502  1  0.42861540  0.85776858  0.64402227  1
  O2-  O503  1  0.41796307  0.83418204  0.98346631  1
  O2-  O504  1  0.67375139  0.07776636  0.31607920  1
  O2-  O505  1  0.66353938  0.08477191  0.67154590  1
  O2-  O506  1  0.66351534  0.09062186  0.97567334  1
  O2-  O507  1  0.65870129  0.31913632  0.31267152  1
  O2-  O508  1  0.75886606  0.34666642  0.63352302  1
  O2-  O509  1  0.66518529  0.34388575  0.98336266  1
  O2-  O510  1  0.67194206  0.57438082  0.30774501  1
  O2-  O511  1  0.66429539  0.56534155  0.64956522  1
  O2-  O512  1  0.63990460  0.58696786  0.97371366  1
  O2-  O513  1  0.67597953  0.82604720  0.30180915  1
  O2-  O514  1  0.66953867  0.83050003  0.64243249  1
  O2-  O515  1  0.63356242  0.82113230  0.97706133  1
  O2-  O516  1  0.91385596  0.07656582  0.30860464  1
  O2-  O517  1  0.92692224  0.07308414  0.62242092  1
  O2-  O518  1  0.95463479  0.10951388  0.96727563  1
  O2-  O519  1  0.94466834  0.33273952  0.28902068  1
  O2-  O520  1  0.92458229  0.33040133  0.63964121  1
  O2-  O521  1  0.93051801  0.33583494  0.98659748  1
  O2-  O522  1  0.91660388  0.58329933  0.30902429  1
  O2-  O523  1  0.92134991  0.56832611  0.64862349  1
  O2-  O524  1  0.93217361  0.58217385  0.98538856  1
  O2-  O525  1  0.92007357  0.82608971  0.30610330  1
  O2-  O526  1  0.91178532  0.82595003  0.63380795  1
  O2-  O527  1  0.93097336  0.86704416  0.98467581  1
  O2-  O528  1  0.11861188  0.19472571  0.01538939  1
  O2-  O529  1  0.07093681  0.13667520  0.34374379  1
  O2-  O530  1  0.08665530  0.16642024  0.67934556  1
  O2-  O531  1  0.10403531  0.43418097  0.02068009  1
  O2-  O532  1  0.08976640  0.42116326  0.35480066  1
  O2-  O533  1  0.08429179  0.41279558  0.68463265  1
  O2-  O534  1  0.08876870  0.67459684  0.02221949  1
  O2-  O535  1  0.07937989  0.66203591  0.35715451  1
  O2-  O536  1  0.08821429  0.66196785  0.68882645  1
  O2-  O537  1  0.09944891  0.93804015  0.01500758  1
  O2-  O538  1  0.08124184  0.90267113  0.35055587  1
  O2-  O539  1  0.07739771  0.89979576  0.67655364  1
  O2-  O540  1  0.34866155  0.16132629  0.02973086  1
  O2-  O541  1  0.32355354  0.15062028  0.35280416  1
  O2-  O542  1  0.29045888  0.09260987  0.72548363  1
  O2-  O543  1  0.36266923  0.45609786  0.02582435  1
  O2-  O544  1  0.33616505  0.41925738  0.35565180  1
  O2-  O545  1  0.33796777  0.42243910  0.66265317  1
  O2-  O546  1  0.35803265  0.67578979  0.03017554  1
  O2-  O547  1  0.32812500  0.70962225  0.40185298  1
  O2-  O548  1  0.31974930  0.63316598  0.67729364  1
  O2-  O549  1  0.32875353  0.90567207  0.02514394  1
  O2-  O550  1  0.33576827  0.91863335  0.35502438  1
  O2-  O551  1  0.33915858  0.93092929  0.68481679  1
  O2-  O552  1  0.58393375  0.17146920  0.01951602  1
  O2-  O553  1  0.57991448  0.15462833  0.35543364  1
  O2-  O554  1  0.59439130  0.26350232  0.68510840  1
  O2-  O555  1  0.57694427  0.42189952  0.01257491  1
  O2-  O556  1  0.58741768  0.41112675  0.35487331  1
  O2-  O557  1  0.55916970  0.39641360  0.68073568  1
  O2-  O558  1  0.51836758  0.64964176  -0.02996977  1
  O2-  O559  1  0.59930098  0.66376633  0.35072684  1
  O2-  O560  1  0.58226667  0.65757393  0.67835660  1
  O2-  O561  1  0.58464577  0.92567114  0.02059411  1
  O2-  O562  1  0.59077890  0.90800781  0.34354223  1
  O2-  O563  1  0.59188552  0.91303393  0.69123627  1
  O2-  O564  1  0.82481674  0.16282764  0.03613815  1
  O2-  O565  1  0.84240107  0.16225101  0.35072921  1
  O2-  O566  1  0.82266228  0.16879687  0.69133466  1
  O2-  O567  1  0.83053500  0.41283949  0.02479211  1
  O2-  O568  1  0.82223552  0.41986508  0.36189556  1
  O2-  O569  1  0.82822981  0.39888653  0.67673790  1
  O2-  O570  1  0.81660130  0.70534254  0.02164135  1
  O2-  O571  1  0.83669798  0.66274977  0.35321465  1
  O2-  O572  1  0.80934052  0.59242626  0.71883300  1
  O2-  O573  1  0.87622638  0.96870718  0.01917631  1
  O2-  O574  1  0.83675737  0.90852205  0.34642801  1
  O2-  O575  1  0.83468552  0.91392878  0.68891468  1
