# generated using pymatgen
data_H2O
_symmetry_space_group_name_H-M   'P 1'
_cell_length_a   17.99490418
_cell_length_b   17.99962321
_cell_length_c   22.01048821
_cell_angle_alpha   90.00726188
_cell_angle_beta   90.00846830
_cell_angle_gamma   120.00961825
_symmetry_Int_Tables_number   1
_chemical_formula_structural   H2O
_chemical_formula_sum   'H384 O192'
_cell_volume   6173.49560603
_cell_formula_units_Z   192
loop_
 _symmetry_equiv_pos_site_id
 _symmetry_equiv_pos_as_xyz
  1  'x, y, z'
loop_
 _atom_type_symbol
 _atom_type_oxidation_number
  H+  1.0
  O2-  -2.0
loop_
 _atom_site_type_symbol
 _atom_site_label
 _atom_site_symmetry_multiplicity
 _atom_site_fract_x
 _atom_site_fract_y
 _atom_site_fract_z
 _atom_site_occupancy
  H+  H0  1  0.87866717  0.84593326  0.15531370  1
  H+  H1  1  0.86215757  0.88133862  0.48171844  1
  H+  H2  1  0.77462843  0.63078619  0.16388458  1
  H+  H3  1  0.88333150  0.85761501  0.30987489  1
  H+  H4  1  0.22351756  0.86875430  0.51247636  1
  H+  H5  1  0.47188933  0.45298367  0.53979017  1
  H+  H6  1  0.36164565  0.39084482  0.48659770  1
  H+  H7  1  0.39495459  0.37089409  -0.01925340  1
  H+  H8  1  0.37040373  0.23353370  0.15862997  1
  H+  H9  1  0.63149937  0.13162612  0.34894167  1
  H+  H10  1  0.14235358  0.52035559  0.83894661  1
  H+  H11  1  0.54359726  0.15174440  0.16419958  1
  H+  H12  1  0.64614060  0.11746959  0.17878438  1
  H+  H13  1  0.13872844  0.85356813  0.98977068  1
  H+  H14  1  0.62157063  0.13153885  0.67497724  1
  H+  H15  1  0.86651692  0.39084740  0.00346138  1
  H+  H16  1  0.10293087  0.82557610  0.30582180  1
  H+  H17  1  0.63039376  0.60247917  0.97515387  1
  H+  H18  1  0.38361113  0.37058880  0.17344884  1
  H+  H19  1  0.61768988  0.73202962  0.15630939  1
  H+  H20  1  0.10970327  0.90123818  0.53495021  1
  H+  H21  1  0.18844056  0.12288568  0.68725450  1
  H+  H22  1  0.62006997  0.49782961  0.33337235  1
  H+  H23  1  0.42245971  0.57336059  0.92957063  1
  H+  H24  1  0.09630064  0.22680445  0.33772884  1
  H+  H25  1  0.17876519  1.02424673  0.83498692  1
  H+  H26  1  0.39080376  0.59516357  0.83945875  1
  H+  H27  1  0.10818707  0.22273894  0.82978146  1
  H+  H28  1  0.62435871  0.38608135  0.32228841  1
  H+  H29  1  0.85426799  0.20791850  0.76918766  1
  H+  H30  1  0.11452527  0.63720181  0.50564788  1
  H+  H31  1  0.13684348  0.36061180  0.84502905  1
  H+  H32  1  0.02814494  0.13322616  0.48603796  1
  H+  H33  1  0.36199849  0.63644170  0.67584268  1
  H+  H34  1  0.64607717  0.76622131  0.50315727  1
  H+  H35  1  0.37667154  0.35291268  0.32449280  1
  H+  H36  1  0.36344443  0.12623621  0.49775146  1
  H+  H37  1  0.61180587  0.87489829  0.49305502  1
  H+  H38  1  0.77347821  0.38608891  0.83406781  1
  H+  H39  1  0.83757590  0.71993927  0.67876305  1
  H+  H40  1  0.37252125  0.48525537  1.00341120  1
  H+  H41  1  0.53720058  0.88896939  0.33662013  1
  H+  H42  1  0.44253598  0.09280645  0.11079169  1
  H+  H43  1  0.87677772  0.71783868  0.00886040  1
  H+  H44  1  0.97816477  0.10364922  0.82775156  1
  H+  H45  1  0.88011891  0.22347255  0.48560098  1
  H+  H46  1  0.58476114  0.16579906  0.77355607  1
  H+  H47  1  -0.03687646  0.86300445  0.51891931  1
  H+  H48  1  0.87364462  0.73146337  0.82178436  1
  H+  H49  1  -0.02106242  0.85796563  0.83674680  1
  H+  H50  1  0.72858046  0.85889974  -0.00716858  1
  H+  H51  1  0.61310757  0.72787240  1.00130482  1
  H+  H52  1  0.37355545  0.21891786  0.49403250  1
  H+  H53  1  1.03116965  0.39681210  0.83459612  1
  H+  H54  1  0.22168717  0.35237801  0.84356444  1
  H+  H55  1  0.77944288  0.36666934  0.40497585  1
  H+  H56  1  0.72471979  0.35063948  0.34190543  1
  H+  H57  1  0.52925393  0.64342456  0.15676657  1
  H+  H58  1  0.14213366  0.03949654  0.53579053  1
  H+  H59  1  0.43379201  0.33653530  0.92758577  1
  H+  H60  1  0.85376861  0.15095776  1.00120402  1
  H+  H61  1  0.86747790  0.96694253  0.82201041  1
  H+  H62  1  0.08990341  0.97750592  0.67691499  1
  H+  H63  1  0.84347243  0.33574289  0.33338290  1
  H+  H64  1  0.64858635  0.61460610  0.32173616  1
  H+  H65  1  0.28916221  0.77895085  0.36073685  1
  H+  H66  1  0.37039095  0.72862818  0.16267459  1
  H+  H67  1  0.40412862  0.28621029  0.65623015  1
  H+  H68  1  0.88937164  0.52120814  0.98472903  1
  H+  H69  1  0.72859707  0.86012135  0.83954410  1
  H+  H70  1  0.03344023  0.83809125  0.37895818  1
  H+  H71  1  0.17312191  0.58354286  0.60663529  1
  H+  H72  1  0.37923313  0.86695007  0.84520467  1
  H+  H73  1  0.23950435  0.63307549  0.30683539  1
  H+  H74  1  0.36147020  0.62812754  -0.00354831  1
  H+  H75  1  0.89202652  0.37378351  0.16936293  1
  H+  H76  1  0.49154034  0.86231680  0.66113194  1
  H+  H77  1  0.88522124  0.13738756  0.17843986  1
  H+  H78  1  0.58670698  0.42391635  0.43010617  1
  H+  H79  1  0.88779129  0.29012526  0.81451993  1
  H+  H80  1  0.09962123  0.23563224  0.66852290  1
  H+  H81  1  0.25247158  0.15742589  0.30822874  1
  H+  H82  1  0.53046399  0.37995069  0.77786335  1
  H+  H83  1  0.60302663  0.36700852  0.69041598  1
  H+  H84  1  0.83655147  0.08285507  0.72133696  1
  H+  H85  1  0.11758329  0.72225528  0.31219274  1
  H+  H86  1  0.14930200  0.29243584  0.15931311  1
  H+  H87  1  0.35582659  0.96003113  0.49299600  1
  H+  H88  1  0.39676026  0.78836727  0.31510077  1
  H+  H89  1  0.61354563  0.23289084  1.01688689  1
  H+  H90  1  0.39972131  0.77554852  0.66654682  1
  H+  H91  1  0.12218090  0.14541363  0.49465166  1
  H+  H92  1  0.86418460  0.62989881  0.16447485  1
  H+  H93  1  0.64668469  0.61884662  0.17736394  1
  H+  H94  1  0.49946227  0.39714128  0.50209557  1
  H+  H95  1  0.52571548  0.40433119  0.33918844  1
  H+  H96  1  0.26008833  0.89445913  0.68247554  1
  H+  H97  1  0.31020736  0.14998940  0.66993212  1
  H+  H98  1  0.22562426  0.36612152  0.65758829  1
  H+  H99  1  0.02911003  0.87472671  0.00212653  1
  H+  H100  1  0.39599752  0.12758339  0.15287898  1
  H+  H101  1  0.61470662  0.46372717  0.84535449  1
  H+  H102  1  0.52786755  0.38409738  0.00785183  1
  H+  H103  1  0.85621986  0.22682143  0.34264577  1
  H+  H104  1  0.74155302  0.85591327  0.65347630  1
  H+  H105  1  0.61305959  0.48641441  0.15931387  1
  H+  H106  1  0.52424381  0.82575433  0.79192302  1
  H+  H107  1  0.25384440  0.12410871  0.83433462  1
  H+  H108  1  0.64616645  1.01652140  0.33067022  1
  H+  H109  1  0.53106563  0.39154255  0.68185391  1
  H+  H110  1  0.26710921  0.14573867  0.00373192  1
  H+  H111  1  0.38468150  0.85126153  0.51788662  1
  H+  H112  1  0.88234097  0.13173935  0.48071234  1
  H+  H113  1  0.52147884  0.40003515  0.15741100  1
  H+  H114  1  0.53391208  0.89431564  0.15518706  1
  H+  H115  1  0.88460354  0.84303498  -0.00665268  1
  H+  H116  1  0.61029375  0.21458382  0.67398322  1
  H+  H117  1  0.77103820  0.13024596  0.34393039  1
  H+  H118  1  0.89178366  0.01600965  0.48755070  1
  H+  H119  1  0.88254211  0.77378984  0.49543990  1
  H+  H120  1  0.23438238  0.61339906  0.50979625  1
  H+  H121  1  0.39709906  0.26206068  0.82180220  1
  H+  H122  1  0.87892442  0.52481319  0.83520751  1
  H+  H123  1  0.02239453  0.38864030  0.68127791  1
  H+  H124  1  0.69880298  0.60030880  0.65865013  1
  H+  H125  1  0.34371593  0.43797251  0.09373444  1
  H+  H126  1  0.13779222  0.53083230  0.16144440  1
  H+  H127  1  0.13396299  0.27296985  0.50435555  1
  H+  H128  1  0.16507299  0.16036134  0.31214585  1
  H+  H129  1  0.85338001  0.38400232  0.49031086  1
  H+  H130  1  0.92212584  0.07776011  0.54743474  1
  H+  H131  1  0.01912356  0.89136648  0.17002397  1
  H+  H132  1  0.20434994  0.85466748  0.30997723  1
  H+  H133  1  0.52219225  0.87390549  0.49592839  1
  H+  H134  1  0.11255821  0.87877399  0.82584394  1
  H+  H135  1  -0.01033659  0.11337666  0.33040901  1
  H+  H136  1  0.41924504  0.88854938  0.31365878  1
  H+  H137  1  0.88821718  0.76138303  0.16246031  1
  H+  H138  1  0.88952835  0.01190992  0.32666299  1
  H+  H139  1  0.98440318  0.61899307  0.17007949  1
  H+  H140  1  0.60307279  0.13902361  0.01368488  1
  H+  H141  1  0.62531378  0.02558111  0.99394529  1
  H+  H142  1  0.77512380  0.88523978  0.48070174  1
  H+  H143  1  0.48084656  0.59793593  0.84033195  1
  H+  H144  1  0.08730141  0.14191067  0.67204832  1
  H+  H145  1  0.40645130  0.58247532  0.33928627  1
  H+  H146  1  0.11482765  0.15868527  0.00242818  1
  H+  H147  1  0.67672291  0.82954077  0.56024631  1
  H+  H148  1  0.13042096  0.78604898  0.50982621  1
  H+  H149  1  0.46881810  0.10024705  0.50781077  1
  H+  H150  1  0.38613555  0.75883637  0.99593514  1
  H+  H151  1  0.37689570  0.72999064  0.51103966  1
  H+  H152  1  0.36041704  0.86774360  1.01158583  1
  H+  H153  1  0.78238297  0.89758736  0.32973962  1
  H+  H154  1  -0.02230193  0.13975622  -0.01827272  1
  H+  H155  1  0.25962636  0.88260779  0.83086711  1
  H+  H156  1  0.52414063  0.88080725  0.00635350  1
  H+  H157  1  0.65714004  0.78568954  0.32466825  1
  H+  H158  1  0.11401886  0.38746034  0.49423376  1
  H+  H159  1  -0.01829404  0.36679598  0.49598646  1
  H+  H160  1  0.13872434  0.37324928  0.99639760  1
  H+  H161  1  0.64800384  0.77718175  0.66028396  1
  H+  H162  1  0.89870185  0.52566675  0.32248422  1
  H+  H163  1  0.36660896  0.47645899  0.67611790  1
  H+  H164  1  0.87561472  0.95187222  0.13595906  1
  H+  H165  1  0.85118839  0.61844607  0.33851673  1
  H+  H166  1  0.87017738  0.63422891  0.82280025  1
  H+  H167  1  0.52401986  0.13855091  0.83048878  1
  H+  H168  1  0.22993955  0.61121145  0.84165583  1
  H+  H169  1  0.14411925  0.52530465  0.50886040  1
  H+  H170  1  0.26564033  0.37912009  0.48916432  1
  H+  H171  1  -0.00033365  0.88807686  0.67940800  1
  H+  H172  1  -0.02936297  0.11803066  0.64173882  1
  H+  H173  1  0.39252341  0.16026527  0.33428783  1
  H+  H174  1  0.61127638  0.87467818  0.82545907  1
  H+  H175  1  0.15336824  0.50974248  0.33830116  1
  H+  H176  1  0.12635131  0.86216048  0.66370148  1
  H+  H177  1  0.27267547  0.62866667  0.99894772  1
  H+  H178  1  0.92245016  0.09096312  0.26944390  1
  H+  H179  1  0.64263610  0.86765267  0.99243154  1
  H+  H180  1  0.40451879  0.11461444  0.66841690  1
  H+  H181  1  0.13783918  0.36970608  0.65851466  1
  H+  H182  1  0.88593136  0.30987907  0.72093721  1
  H+  H183  1  0.62919204  1.01494055  0.51292993  1
  H+  H184  1  0.69593557  0.10130392  0.89872446  1
  H+  H185  1  0.35979539  0.98303411  0.68353852  1
  H+  H186  1  0.11630823  0.24781993  0.00432518  1
  H+  H187  1  0.87082885  0.94571746  0.01000451  1
  H+  H188  1  0.11331156  0.47677626  0.67607902  1
  H+  H189  1  0.62915946  0.62768114  0.49418103  1
  H+  H190  1  0.66406375  0.28735255  0.17548607  1
  H+  H191  1  0.39545242  0.99037637  0.36014486  1
  H+  H192  1  0.37631790  0.10275404  0.84232705  1
  H+  H193  1  0.39352632  0.65756829  0.31513641  1
  H+  H194  1  0.27260944  0.87024569  0.00699403  1
  H+  H195  1  0.88973658  0.05545092  0.96789150  1
  H+  H196  1  0.01968254  0.62912402  -0.00377841  1
  H+  H197  1  0.35078713  0.97642256  0.83286713  1
  H+  H198  1  0.22607947  0.86799100  0.15308090  1
  H+  H199  1  0.27764994  0.64005658  0.16144803  1
  H+  H200  1  0.09695493  0.05120211  0.95254029  1
  H+  H201  1  0.10848193  0.47558636  0.00497853  1
  H+  H202  1  0.59351707  0.29146589  0.29849703  1
  H+  H203  1  -0.02711494  0.81191268  0.32024603  1
  H+  H204  1  0.77282810  0.64728658  0.48524456  1
  H+  H205  1  0.11158090  0.63034995  0.83084161  1
  H+  H206  1  0.19972390  0.75917076  0.38215136  1
  H+  H207  1  0.85147744  0.39518532  0.68053304  1
  H+  H208  1  0.33614939  0.44563255  0.32824968  1
  H+  H209  1  0.86073969  0.52509084  0.65908560  1
  H+  H210  1  0.35971414  0.44453161  0.82811145  1
  H+  H211  1  0.39309573  0.86560354  0.16302896  1
  H+  H212  1  0.36657483  0.38853408  0.67013655  1
  H+  H213  1  0.77794795  0.11324419  0.68753059  1
  H+  H214  1  0.84700447  0.46965473  0.48878699  1
  H+  H215  1  0.03733239  0.63715491  0.33440152  1
  H+  H216  1  0.17004946  0.34166275  0.93759913  1
  H+  H217  1  0.47810903  0.13271389  0.99195353  1
  H+  H218  1  0.13445556  0.76647248  0.83979794  1
  H+  H219  1  0.88737230  0.85429583  0.83720104  1
  H+  H220  1  0.53332629  0.64120098  0.70058130  1
  H+  H221  1  0.63176169  0.51734144  0.98882791  1
  H+  H222  1  0.36256024  -0.02823753  0.15139843  1
  H+  H223  1  0.11767234  0.01617909  0.17829687  1
  H+  H224  1  0.13277481  0.60708206  -0.00907709  1
  H+  H225  1  0.52591532  0.15934730  0.32077095  1
  H+  H226  1  0.06724836  -0.07935365  0.59073117  1
  H+  H227  1  0.36615914  0.72294006  0.83448781  1
  H+  H228  1  0.53996610  0.62642096  0.49200724  1
  H+  H229  1  0.38319442  0.51333851  0.49851047  1
  H+  H230  1  0.61959215  0.48019292  0.49425181  1
  H+  H231  1  0.75192185  0.60178557  0.33866522  1
  H+  H232  1  0.11531292  0.90280184  0.16308880  1
  H+  H233  1  0.13608599  0.76291065  0.98672944  1
  H+  H234  1  0.28092873  0.39767328  0.00834686  1
  H+  H235  1  0.58625024  0.66840457  0.06021552  1
  H+  H236  1  0.27467269  0.63756302  0.67977053  1
  H+  H237  1  0.66269935  0.37939216  0.86147545  1
  H+  H238  1  0.06993492  0.96626770  0.31290444  1
  H+  H239  1  0.19559402  0.33992715  0.31227933  1
  H+  H240  1  0.61286594  0.72049573  0.83867446  1
  H+  H241  1  0.27102760  0.40327629  0.15103037  1
  H+  H242  1  0.64563236  1.02756837  0.17408568  1
  H+  H243  1  0.48147204  0.61305238  0.98967819  1
  H+  H244  1  0.87429043  0.61027880  0.49714059  1
  H+  H245  1  0.07909611  0.67201394  0.55446081  1
  H+  H246  1  0.11890677  0.96161110  0.00224816  1
  H+  H247  1  0.39692436  0.60737322  0.50845109  1
  H+  H248  1  0.14404455  0.61470925  0.66625615  1
  H+  H249  1  0.77597026  0.14612373  0.16392103  1
  H+  H250  1  0.82799486  0.17680152  0.06400649  1
  H+  H251  1  0.41628361  0.57887803  0.59304208  1
  H+  H252  1  0.67494544  0.07868852  0.27102120  1
  H+  H253  1  0.65159139  0.87133485  0.32417655  1
  H+  H254  1  0.71036879  0.11674581  0.99729726  1
  H+  H255  1  0.64013203  0.36442937  1.00139173  1
  H+  H256  1  0.43930393  -0.00451160  0.35616641  1
  H+  H257  1  0.38105876  0.61940885  0.17148065  1
  H+  H258  1  0.11395810  0.73342433  0.14447392  1
  H+  H259  1  0.62502995  0.35746205  0.50670171  1
  H+  H260  1  0.84273136  0.63244322  0.67035224  1
  H+  H261  1  0.59936305  0.21823583  0.50045849  1
  H+  H262  1  1.01896794  0.38560944  1.00500658  1
  H+  H263  1  0.63724753  0.27891095  0.84683403  1
  H+  H264  1  0.09767931  0.01420296  0.31476522  1
  H+  H265  1  0.14469126  0.37930613  0.15931975  1
  H+  H266  1  0.65008720  0.02676041  0.66239792  1
  H+  H267  1  0.02220012  0.63183552  0.82796706  1
  H+  H268  1  0.86358524  0.23918599  0.16168012  1
  H+  H269  1  0.38855486  0.13129993  0.98758802  1
  H+  H270  1  0.39409564  0.27544189  0.32474570  1
  H+  H271  1  0.12367561  0.36114893  0.32524907  1
  H+  H272  1  0.12158348  0.72573950  0.67906540  1
  H+  H273  1  0.54284298  0.66406887  0.33972255  1
  H+  H274  1  0.77629337  0.38953077  0.00873840  1
  H+  H275  1  0.61381936  0.63826138  0.67152584  1
  H+  H276  1  0.11952881  0.11647630  0.16530965  1
  H+  H277  1  0.71501521  0.35635954  0.66504706  1
  H+  H278  1  0.14398055  0.61838413  0.31312403  1
  H+  H279  1  0.23380485  0.12220993  0.51982466  1
  H+  H280  1  0.63341828  0.89509919  0.66904867  1
  H+  H281  1  -0.04064071  0.60401539  0.50570077  1
  H+  H282  1  0.87703566  0.04623360  0.18141408  1
  H+  H283  1  0.94383945  0.36678282  0.33629478  1
  H+  H284  1  0.67967507  0.84136132  0.22499049  1
  H+  H285  1  0.47847457  0.65328327  0.63454217  1
  H+  H286  1  0.88284218  0.28081093  0.98805413  1
  H+  H287  1  0.89910883  0.52660644  0.17091264  1
  H+  H288  1  0.37147375  0.50646221  0.16128196  1
  H+  H289  1  0.31005247  0.87738585  0.44635260  1
  H+  H290  1  0.58900701  0.92032830  0.06243242  1
  H+  H291  1  0.91092072  0.33918876  0.23173297  1
  H+  H292  1  0.07566123  0.17536167  0.76643008  1
  H+  H293  1  0.89237039  0.61173048  0.99022912  1
  H+  H294  1  0.83673094  0.89783073  0.76829245  1
  H+  H295  1  0.67055879  0.32968590  0.94423906  1
  H+  H296  1  0.06464024  0.93141591  0.43187998  1
  H+  H297  1  0.58080624  0.15895235  0.44165768  1
  H+  H298  1  0.91213479  0.58531589  0.89473638  1
  H+  H299  1  0.73354397  0.86347295  0.16248549  1
  H+  H300  1  0.92981470  0.58340511  0.26282907  1
  H+  H301  1  0.84085136  0.92134109  0.39102881  1
  H+  H302  1  0.82460590  0.65269994  0.42511889  1
  H+  H303  1  0.47158736  0.13982983  0.25949397  1
  H+  H304  1  0.16695796  0.10250161  0.61495141  1
  H+  H305  1  0.67160380  0.58333679  0.23900245  1
  H+  H306  1  0.59860843  0.66485995  0.78092738  1
  H+  H307  1  0.03509126  0.94940665  0.42757875  1
  H+  H308  1  0.20566454  0.47735607  0.37645694  1
  H+  H309  1  0.41048800  0.06747217  0.56729541  1
  H+  H310  1  0.33265229  0.90664380  0.09382308  1
  H+  H311  1  0.09992396  0.43237725  0.43602231  1
  H+  H312  1  1.02492773  0.39301068  0.16007233  1
  H+  H313  1  0.83140889  0.66423202  0.75875359  1
  H+  H314  1  0.07561670  0.17630140  0.09546094  1
  H+  H315  1  0.07816542  0.41971306  0.09721360  1
  H+  H316  1  0.35215600  0.19941477  0.73336686  1
  H+  H317  1  0.84487170  0.65680947  0.06742958  1
  H+  H318  1  0.41332627  0.08497316  0.90228283  1
  H+  H319  1  0.58817640  0.91059616  0.40072281  1
  H+  H320  1  0.33569012  0.17615484  0.09920148  1
  H+  H321  1  0.35623076  0.23414558  0.00004748  1
  H+  H322  1  0.17512541  0.11375590  0.22471089  1
  H+  H323  1  0.41353081  0.33879192  0.23170089  1
  H+  H324  1  0.86856991  0.39965020  0.82888305  1
  H+  H325  1  0.31288705  0.39838197  0.39270652  1
  H+  H326  1  0.41479880  0.82688748  0.94119314  1
  H+  H327  1  0.66353099  0.22798890  0.36616185  1
  H+  H328  1  0.09145781  0.66326141  0.73581911  1
  H+  H329  1  0.84195595  0.16600792  0.41312404  1
  H+  H330  1  0.97259018  0.44430783  0.87304052  1
  H+  H331  1  0.92046645  0.33410289  0.55264606  1
  H+  H332  1  0.88591273  0.57886959  0.59747129  1
  H+  H333  1  0.67499800  0.51751784  0.89753814  1
  H+  H334  1  0.68006488  0.08730147  0.60498933  1
  H+  H335  1  0.84801894  0.42645096  0.09717800  1
  H+  H336  1  0.62373590  0.89491026  0.15673083  1
  H+  H337  1  0.74585985  0.15607779  0.84290408  1
  H+  H338  1  0.47065527  0.87331397  0.84631340  1
  H+  H339  1  0.07782791  0.66124001  0.05715849  1
  H+  H340  1  0.81911735  0.42335616  0.73743375  1
  H+  H341  1  0.65361850  0.32431726  0.60638857  1
  H+  H342  1  0.59778058  0.91781832  0.72880353  1
  H+  H343  1  0.41651205  0.58704821  0.22901482  1
  H+  H344  1  0.31515160  0.26681870  0.79583677  1
  H+  H345  1  0.31869241  0.92160334  0.75200174  1
  H+  H346  1  0.42415197  0.82878664  0.57728433  1
  H+  H347  1  0.71678144  0.56660002  0.53680294  1
  H+  H348  1  0.62306256  0.09978086  0.51547715  1
  H+  H349  1  0.16492769  0.33441610  0.56389156  1
  H+  H350  1  0.71143959  0.35411652  0.51023356  1
  H+  H351  1  0.87936190  0.28603555  0.65233106  1
  H+  H352  1  0.33946849  0.66641725  0.77405218  1
  H+  H353  1  0.91836043  0.81969568  0.93291886  1
  H+  H354  1  0.92625224  0.35024989  0.93094146  1
  H+  H355  1  0.90086216  0.82103128  0.24796096  1
  H+  H356  1  0.08281420  0.91064512  0.76735662  1
  H+  H357  1  0.16535434  0.84009012  0.60618674  1
  H+  H358  1  0.58445478  0.42052213  0.06891633  1
  H+  H359  1  0.34339287  0.16260370  0.39474504  1
  H+  H360  1  0.08828006  0.41482499  0.77233112  1
  H+  H361  1  0.16223739  0.83572277  0.20890646  1
  H+  H362  1  0.64535795  0.57759574  0.59634712  1
  H+  H363  1  0.79090251  0.39772172  0.15908831  1
  H+  H364  1  0.16379998  0.82612603  0.90016182  1
  H+  H365  1  0.48372676  0.09898041  0.66486093  1
  H+  H366  1  0.88102680  0.10808048  0.63097846  1
  H+  H367  1  0.90144027  0.08930621  0.87077160  1
  H+  H368  1  0.82483365  0.88700176  0.07327135  1
  H+  H369  1  0.18542739  0.07515788  0.92315894  1
  H+  H370  1  0.60023097  0.67585944  0.39841831  1
  H+  H371  1  0.36838813  0.67781682  0.45130527  1
  H+  H372  1  0.43084731  0.35213934  0.59918364  1
  H+  H373  1  0.08435698  0.16692379  0.39710457  1
  H+  H374  1  0.02067649  0.15306648  0.15739775  1
  H+  H375  1  0.16833534  0.58891516  0.22082013  1
  H+  H376  1  0.32186582  0.39879571  0.76598264  1
  H+  H377  1  0.60156256  0.17848442  0.10688900  1
  H+  H378  1  0.43133560  0.84402935  0.22171499  1
  H+  H379  1  0.32384248  0.68882161  0.37432504  1
  H+  H380  1  0.11739030  0.64540905  0.15012445  1
  H+  H381  1  0.68389107  0.35778010  0.22659599  1
  H+  H382  1  0.16289037  0.57618801  0.93235696  1
  H+  H383  1  0.67124421  0.83762887  0.90024029  1
  O2-  O384  1  0.07943149  0.17625655  0.14085876  1
  O2-  O385  1  0.09065027  0.17115656  0.47470438  1
  O2-  O386  1  0.08082381  0.16528229  0.81006162  1
  O2-  O387  1  0.08412354  0.42387907  0.14282550  1
  O2-  O388  1  0.08604703  0.42100666  0.48023584  1
  O2-  O389  1  0.09233935  0.41731029  0.81736321  1
  O2-  O390  1  0.08218455  0.67042323  0.13487615  1
  O2-  O391  1  0.08136825  0.66792681  0.51032527  1
  O2-  O392  1  0.08366762  0.66273979  0.81511639  1
  O2-  O393  1  0.08269984  0.93302889  0.17204378  1
  O2-  O394  1  0.07898272  0.93225903  0.54704694  1
  O2-  O395  1  0.08659742  0.91415303  0.81203826  1
  O2-  O396  1  0.34500654  0.17371611  0.14345020  1
  O2-  O397  1  0.33572568  0.15940675  0.48196341  1
  O2-  O398  1  0.33430202  0.22429876  0.79628134  1
  O2-  O399  1  0.33811881  0.43893458  0.14054098  1
  O2-  O400  1  0.32303618  0.41001872  0.46822206  1
  O2-  O401  1  0.31865376  0.38794027  0.81033571  1
  O2-  O402  1  0.34098072  0.66525647  0.15700375  1
  O2-  O403  1  0.35006637  0.66828688  0.49360000  1
  O2-  O404  1  0.33925923  0.66312236  0.81941278  1
  O2-  O405  1  0.33283150  0.91009706  0.14115042  1
  O2-  O406  1  0.32215850  0.89621579  0.48940193  1
  O2-  O407  1  0.32072723  0.91648571  0.81391208  1
  O2-  O408  1  0.60506298  0.17760369  0.15286061  1
  O2-  O409  1  0.56973391  0.15707141  0.48623273  1
  O2-  O410  1  0.58431187  0.17463541  0.81783518  1
  O2-  O411  1  0.57954736  0.42900090  0.13964353  1
  O2-  O412  1  0.58476004  0.41749869  0.47575652  1
  O2-  O413  1  0.50444131  0.39130548  0.81520024  1
  O2-  O414  1  0.58878726  0.67131399  0.14169599  1
  O2-  O415  1  0.60011113  0.65953901  0.47808170  1
  O2-  O416  1  0.58467342  0.66007191  0.82449357  1
  O2-  O417  1  0.59575100  0.92807673  0.14266422  1
  O2-  O418  1  0.58075263  0.90434208  0.47783778  1
  O2-  O419  1  0.56682264  0.88404498  0.80377686  1
  O2-  O420  1  0.83619559  0.17773560  0.14740009  1
  O2-  O421  1  0.85253773  0.16506557  0.46735691  1
  O2-  O422  1  0.84861308  0.25786985  0.78094396  1
  O2-  O423  1  0.85259247  0.42792620  0.14276629  1
  O2-  O424  1  0.81628669  0.40712212  0.47750979  1
  O2-  O425  1  0.83110507  0.42257850  0.81384897  1
  O2-  O426  1  0.83472888  0.65915104  0.14669287  1
  O2-  O427  1  0.83248165  0.67010117  0.47129309  1
  O2-  O428  1  0.84247393  0.66910155  0.80596954  1
  O2-  O429  1  0.82773623  0.89411102  0.13000409  1
  O2-  O430  1  0.83457016  0.91466227  0.46373615  1
  O2-  O431  1  0.83532095  0.90277552  0.81301688  1
  O2-  O432  1  0.15064688  0.08764604  0.18261130  1
  O2-  O433  1  0.17713257  0.10377567  0.53911293  1
  O2-  O434  1  0.22588011  0.07053798  0.85875516  1
  O2-  O435  1  0.18302105  0.35473510  0.16761499  1
  O2-  O436  1  0.16467634  0.33443193  0.51814869  1
  O2-  O437  1  0.16342247  0.32792248  0.86275720  1
  O2-  O438  1  0.16926935  0.59203745  0.17539082  1
  O2-  O439  1  0.17387617  0.58603853  0.52347193  1
  O2-  O440  1  0.16832903  0.58123125  0.85411173  1
  O2-  O441  1  0.16338119  0.84004472  0.16362156  1
  O2-  O442  1  0.16259378  0.84478561  0.52689740  1
  O2-  O443  1  0.16310873  0.82785658  0.85359758  1
  O2-  O444  1  0.42965122  0.09435037  0.15377531  1
  O2-  O445  1  0.40703297  0.06754845  0.52224437  1
  O2-  O446  1  0.40668844  0.07357927  0.85606075  1
  O2-  O447  1  0.41212124  0.33867759  0.18622774  1
  O2-  O448  1  0.44688311  0.39394492  0.52524192  1
  O2-  O449  1  0.46898778  0.31357282  0.85244312  1
  O2-  O450  1  0.41241109  0.58308381  0.18400551  1
  O2-  O451  1  0.42205575  0.57018668  0.51777242  1
  O2-  O452  1  0.41857456  0.56243578  0.85279589  1
  O2-  O453  1  0.42759555  0.83858375  0.17665291  1
  O2-  O454  1  0.41869398  0.82411080  0.53050366  1
  O2-  O455  1  0.41075255  0.83848344  0.86043420  1
  O2-  O456  1  0.67606002  0.08617350  0.19349707  1
  O2-  O457  1  0.65617647  0.07322538  0.53054374  1
  O2-  O458  1  0.73399766  0.10461548  0.86548589  1
  O2-  O459  1  0.69989693  0.34908097  0.18527670  1
  O2-  O460  1  0.65092899  0.32415100  0.52471037  1
  O2-  O461  1  0.67839245  0.33389412  0.86763021  1
  O2-  O462  1  0.67495332  0.58693233  0.19127320  1
  O2-  O463  1  0.66406381  0.56545692  0.52479406  1
  O2-  O464  1  0.67216449  0.48205155  0.86199718  1
  O2-  O465  1  0.67392754  0.83957880  0.18001124  1
  O2-  O466  1  0.67191477  0.82785663  0.51505214  1
  O2-  O467  1  0.66847400  0.83478800  0.85450620  1
  O2-  O468  1  0.91493087  0.10499246  0.19509459  1
  O2-  O469  1  0.92496903  0.07795089  0.50088270  1
  O2-  O470  1  0.91411535  0.06790940  0.83365383  1
  O2-  O471  1  0.91811972  0.33933195  0.18725602  1
  O2-  O472  1  0.91935548  0.33151900  0.50839373  1
  O2-  O473  1  0.94698583  0.38336690  0.86371306  1
  O2-  O474  1  0.92636170  0.58572527  0.18946764  1
  O2-  O475  1  0.89716601  0.57348887  0.51422510  1
  O2-  O476  1  0.91231044  0.58696814  0.84843936  1
  O2-  O477  1  0.91536610  0.82401548  0.17412841  1
  O2-  O478  1  0.90058437  0.83151870  0.51310542  1
  O2-  O479  1  0.91783502  0.82238671  0.85001128  1
  O2-  O480  1  0.21033526  0.16505761  0.28421126  1
  O2-  O481  1  0.14433831  0.08720078  0.65797000  1
  O2-  O482  1  0.15699009  0.07451640  0.96355987  1
  O2-  O483  1  0.13335705  0.31646030  0.30719323  1
  O2-  O484  1  0.16606503  0.33833812  0.64095237  1
  O2-  O485  1  0.17166212  0.34411576  0.98353236  1
  O2-  O486  1  0.17672828  0.58953185  0.29793578  1
  O2-  O487  1  0.17287447  0.58145143  0.65171119  1
  O2-  O488  1  0.16180522  0.57439390  0.97778305  1
  O2-  O489  1  0.15327791  0.82368389  0.28464344  1
  O2-  O490  1  0.16543889  0.84074894  0.65171030  1
  O2-  O491  1  0.16907516  0.82370317  0.97202595  1
  O2-  O492  1  0.48531526  0.17150265  0.29770294  1
  O2-  O493  1  0.42057080  0.07254683  0.65296128  1
  O2-  O494  1  0.42180124  0.10557372  0.97097818  1
  O2-  O495  1  0.41743966  0.33524941  0.30945160  1
  O2-  O496  1  0.42433268  0.34661899  0.64405453  1
  O2-  O497  1  0.42006711  0.33426466  0.97162927  1
  O2-  O498  1  0.42751447  0.62611688  0.30773221  1
  O2-  O499  1  0.42423203  0.59886976  0.63653430  1
  O2-  O500  1  0.42029634  0.57811379  0.97492068  1
  O2-  O501  1  0.44139390  0.85132010  0.30102921  1
  O2-  O502  1  0.43092746  0.83280974  0.64692263  1
  O2-  O503  1  0.41886367  0.82301356  0.98584883  1
  O2-  O504  1  0.67670723  0.07828980  0.31672258  1
  O2-  O505  1  0.68442019  0.08873753  0.65074692  1
  O2-  O506  1  0.65003787  0.08719471  0.98258343  1
  O2-  O507  1  0.64570186  0.34779764  0.30223145  1
  O2-  O508  1  0.65413615  0.31904271  0.65138461  1
  O2-  O509  1  0.67071348  0.33225400  0.98986372  1
  O2-  O510  1  0.66871105  0.57652746  0.30661707  1
  O2-  O511  1  0.64141783  0.58253087  0.64206307  1
  O2-  O512  1  0.65588038  0.56805837  0.96164675  1
  O2-  O513  1  0.68455053  0.84505717  0.30674645  1
  O2-  O514  1  0.68142071  0.83508593  0.64104244  1
  O2-  O515  1  0.66908374  0.83447595  0.97579994  1
  O2-  O516  1  0.92599716  0.07953787  0.31383653  1
  O2-  O517  1  0.91759387  0.08530812  0.61678629  1
  O2-  O518  1  0.91915468  0.11757991  0.96409559  1
  O2-  O519  1  0.89053917  0.32561059  0.31644102  1
  O2-  O520  1  0.90708300  0.33647888  0.67838774  1
  O2-  O521  1  0.92009153  0.34247889  0.97761364  1
  O2-  O522  1  0.93308784  0.58475320  0.30893839  1
  O2-  O523  1  0.88499731  0.58399258  0.64215602  1
  O2-  O524  1  0.92006081  0.58097750  0.96795143  1
  O2-  O525  1  0.89565823  0.81422629  0.29334948  1
  O2-  O526  1  0.88961988  0.83911264  0.67175426  1
  O2-  O527  1  0.92313244  0.82154720  0.97781053  1
  O2-  O528  1  0.08092337  0.18426308  0.01658716  1
  O2-  O529  1  0.07733402  0.16559031  0.35178245  1
  O2-  O530  1  0.06088311  0.17636022  0.68433444  1
  O2-  O531  1  0.07950813  0.41520351  0.02158899  1
  O2-  O532  1  0.14665774  0.45983143  0.36536529  1
  O2-  O533  1  0.08477592  0.41564698  0.69021281  1
  O2-  O534  1  0.08064288  0.65915864  0.01179065  1
  O2-  O535  1  0.10122861  0.67147318  0.33901365  1
  O2-  O536  1  0.09851028  0.66542721  0.69081139  1
  O2-  O537  1  0.09010516  0.90164128  0.01572081  1
  O2-  O538  1  0.02322302  0.80896087  0.34009992  1
  O2-  O539  1  0.06383268  0.91417998  0.68049849  1
  O2-  O540  1  0.32640702  0.17521295  0.01841385  1
  O2-  O541  1  0.34606007  0.16967926  0.35016341  1
  O2-  O542  1  0.36507655  0.18471882  0.69003744  1
  O2-  O543  1  0.34157508  0.42559706  0.02285560  1
  O2-  O544  1  0.30646033  0.38933957  0.34726483  1
  O2-  O545  1  0.33216341  0.41508584  0.68533725  1
  O2-  O546  1  0.33386329  0.66057011  0.01122488  1
  O2-  O547  1  0.33475795  0.69921584  0.33112043  1
  O2-  O548  1  0.33552263  0.66742208  0.69503539  1
  O2-  O549  1  0.33028887  0.89830421  0.02617669  1
  O2-  O550  1  0.26008973  0.80613371  0.38116508  1
  O2-  O551  1  0.31925612  0.92357167  0.70208042  1
  O2-  O552  1  0.57849608  0.17258444  0.03328090  1
  O2-  O553  1  0.61120417  0.17026974  0.36576834  1
  O2-  O554  1  0.58271030  0.15346203  0.68810819  1
  O2-  O555  1  0.58757037  0.41420051  0.02301247  1
  O2-  O556  1  0.58547654  0.43336482  0.35438578  1
  O2-  O557  1  0.57557271  0.39668654  0.71038116  1
  O2-  O558  1  0.58167642  0.66688586  0.01509103  1
  O2-  O559  1  0.60214917  0.68638989  0.35378105  1
  O2-  O560  1  0.59497109  0.67720660  0.69464900  1
  O2-  O561  1  0.58653399  0.91765754  0.01717099  1
  O2-  O562  1  0.59583138  0.91634650  0.35533742  1
  O2-  O563  1  0.60079990  0.92296547  0.68360820  1
  O2-  O564  1  0.82127617  0.17680297  0.01926017  1
  O2-  O565  1  0.83257043  0.16699625  0.35898293  1
  O2-  O566  1  0.83723789  0.13251698  0.70372519  1
  O2-  O567  1  0.83870813  0.42288219  0.02038020  1
  O2-  O568  1  0.76285301  0.33466591  0.36565132  1
  O2-  O569  1  0.81681713  0.42208084  0.69169958  1
  O2-  O570  1  0.85287136  0.65777063  0.02272775  1
  O2-  O571  1  0.80520188  0.61404968  0.36465946  1
  O2-  O572  1  0.81280136  0.66010853  0.69318212  1
  O2-  O573  1  0.82759715  0.88702337  0.01944959  1
  O2-  O574  1  0.84410007  0.92827347  0.34493896  1
  O2-  O575  1  0.84954799  0.88057795  0.68661768  1
