# generated using pymatgen
data_H2O
_symmetry_space_group_name_H-M   'P 1'
_cell_length_a   17.99251715
_cell_length_b   17.99762897
_cell_length_c   22.00354013
_cell_angle_alpha   90.01779460
_cell_angle_beta   90.00672599
_cell_angle_gamma   120.01368019
_symmetry_Int_Tables_number   1
_chemical_formula_structural   H2O
_chemical_formula_sum   'H384 O192'
_cell_volume   6169.79144780
_cell_formula_units_Z   192
loop_
 _symmetry_equiv_pos_site_id
 _symmetry_equiv_pos_as_xyz
  1  'x, y, z'
loop_
 _atom_type_symbol
 _atom_type_oxidation_number
  H+  1.0
  O2-  -2.0
loop_
 _atom_site_type_symbol
 _atom_site_label
 _atom_site_symmetry_multiplicity
 _atom_site_fract_x
 _atom_site_fract_y
 _atom_site_fract_z
 _atom_site_occupancy
  H+  H0  1  0.57585026  0.20260773  0.02497289  1
  H+  H1  1  0.11122815  0.87915490  0.49444637  1
  H+  H2  1  0.09514693  0.62394094  0.34146473  1
  H+  H3  1  0.15516320  0.43165276  0.15033900  1
  H+  H4  1  0.11545154  0.89241918  0.00845652  1
  H+  H5  1  0.51809390  0.87377128  1.00722636  1
  H+  H6  1  0.59962968  0.71833834  0.16428202  1
  H+  H7  1  -0.02042236  0.36307207  0.00027707  1
  H+  H8  1  0.35797310  0.46711810  0.82595648  1
  H+  H9  1  0.86435956  0.23718784  1.01063589  1
  H+  H10  1  0.35472844  -0.03637909  0.99945926  1
  H+  H11  1  0.38511805  0.62730057  0.50271841  1
  H+  H12  1  0.88411014  0.76278404  0.63977775  1
  H+  H13  1  0.60154379  0.14364111  0.83832475  1
  H+  H14  1  0.87420957  0.90256761  0.33445952  1
  H+  H15  1  0.37810653  1.03215804  0.83866049  1
  H+  H16  1  0.50464407  0.33003880  0.12328802  1
  H+  H17  1  0.08081824  0.40045424  0.05661146  1
  H+  H18  1  0.64307482  0.62358714  0.99438844  1
  H+  H19  1  0.03100457  0.38598057  0.49246083  1
  H+  H20  1  0.78242164  0.89158155  0.68104505  1
  H+  H21  1  0.88771265  0.86419091  1.03182036  1
  H+  H22  1  0.60650819  0.70842173  0.68480377  1
  H+  H23  1  0.14850336  0.38792016  0.65715701  1
  H+  H24  1  0.34526235  0.90189578  0.85650572  1
  H+  H25  1  0.38408078  0.77630212  0.50319094  1
  H+  H26  1  0.13897200  0.08834468  0.32107364  1
  H+  H27  1  0.97035780  0.85311168  0.79434402  1
  H+  H28  1  0.52560533  0.65111435  0.49314341  1
  H+  H29  1  0.97778413  0.86577496  1.03299557  1
  H+  H30  1  0.64434762  0.53496269  0.17805542  1
  H+  H31  1  0.36418598  0.37790748  0.35315045  1
  H+  H32  1  0.26280175  0.05582945  0.04813710  1
  H+  H33  1  0.41256829  0.08020444  0.93075135  1
  H+  H34  1  0.65125751  0.78535920  0.32932913  1
  H+  H35  1  0.47245656  0.85239226  0.32988006  1
  H+  H36  1  0.63702748  0.65803214  0.34652391  1
  H+  H37  1  0.11050745  0.09380923  0.51202359  1
  H+  H38  1  0.48621431  0.38206348  0.84260671  1
  H+  H39  1  0.36872986  0.13310235  0.46463064  1
  H+  H40  1  0.11164689  0.88283766  0.66585043  1
  H+  H41  1  0.12774802  0.52875078  0.66069984  1
  H+  H42  1  0.63286960  0.49629332  -0.00137718  1
  H+  H43  1  0.62756845  0.10475294  0.32591526  1
  H+  H44  1  0.66929157  0.58066330  0.59085105  1
  H+  H45  1  0.38589662  0.34329447  0.50677260  1
  H+  H46  1  0.13615920  0.26540267  0.83509160  1
  H+  H47  1  0.37935274  0.76389017  0.99217707  1
  H+  H48  1  0.70074720  0.09956947  0.86065049  1
  H+  H49  1  0.36441314  0.98270961  0.15402901  1
  H+  H50  1  0.19007971  0.56100126  0.18096039  1
  H+  H51  1  0.88830621  0.86477708  0.17818955  1
  H+  H52  1  0.35070523  0.86537443  0.34532363  1
  H+  H53  1  0.63156113  0.76542815  0.84527769  1
  H+  H54  1  0.31985343  0.40061524  0.06466504  1
  H+  H55  1  0.38220572  0.26404667  0.65733987  1
  H+  H56  1  0.60670007  0.98026615  0.47821406  1
  H+  H57  1  0.36156168  0.63175252  0.00363019  1
  H+  H58  1  0.01661524  0.63768636  0.82363454  1
  H+  H59  1  0.76866543  0.88393130  0.48451464  1
  H+  H60  1  0.53637488  0.90304577  0.16488692  1
  H+  H61  1  -0.01384703  0.86760468  0.17532743  1
  H+  H62  1  0.37257996  0.47394993  0.66850351  1
  H+  H63  1  0.09923688  0.87039709  0.17066249  1
  H+  H64  1  0.82135444  0.38427687  0.35553378  1
  H+  H65  1  0.64227469  0.02135202  0.17145765  1
  H+  H66  1  0.15747372  0.57121881  0.76147527  1
  H+  H67  1  1.01667017  0.39167064  0.66120149  1
  H+  H68  1  0.86119250  0.72721138  0.44475676  1
  H+  H69  1  0.89137015  0.27959593  0.18134424  1
  H+  H70  1  0.77941318  0.62490453  0.80385676  1
  H+  H71  1  0.36588987  -0.02824683  0.68479792  1
  H+  H72  1  0.47231881  0.60255516  0.84667585  1
  H+  H73  1  0.46446596  0.61260446  0.17882569  1
  H+  H74  1  0.08896356  0.15435754  0.40792779  1
  H+  H75  1  0.62888776  0.52063478  0.50034414  1
  H+  H76  1  0.62098911  0.00842043  0.86860223  1
  H+  H77  1  0.48832566  0.38596095  -0.00165344  1
  H+  H78  1  0.11733498  0.38474913  -0.00527163  1
  H+  H79  1  0.64278833  0.83576568  0.64160847  1
  H+  H80  1  0.27471626  0.62819869  0.67175845  1
  H+  H81  1  0.87050526  0.05164045  0.83620215  1
  H+  H82  1  0.26121629  0.86468347  0.34276666  1
  H+  H83  1  0.35931392  0.88660256  0.48983542  1
  H+  H84  1  0.38563802  0.52115595  0.99886091  1
  H+  H85  1  0.67577910  0.59345138  0.27587421  1
  H+  H86  1  0.34141322  0.13476278  0.82672198  1
  H+  H87  1  0.72480237  0.11298138  0.49622162  1
  H+  H88  1  0.12027777  0.50114616  0.81118238  1
  H+  H89  1  0.40941500  0.90212213  0.17761084  1
  H+  H90  1  0.37125074  0.23047390  0.32624322  1
  H+  H91  1  0.64915805  0.27674944  0.49837879  1
  H+  H92  1  0.87683498  0.40204407  1.01310668  1
  H+  H93  1  0.18024818  0.19717284  0.38041561  1
  H+  H94  1  0.72934779  0.36963409  0.83015846  1
  H+  H95  1  0.77238839  0.62631997  0.16272099  1
  H+  H96  1  0.63895888  0.12421307  0.01346983  1
  H+  H97  1  0.39224243  0.12319472  0.17630025  1
  H+  H98  1  0.40426600  0.57381594  0.28143193  1
  H+  H99  1  0.88763523  0.59922892  0.18166138  1
  H+  H100  1  0.91001431  0.07041198  0.56694141  1
  H+  H101  1  0.10757379  0.22965372  -0.00044872  1
  H+  H102  1  0.67811030  0.33471720  0.59780445  1
  H+  H103  1  0.48344584  0.84685507  0.84415711  1
  H+  H104  1  0.52265807  0.37252670  0.49005710  1
  H+  H105  1  0.66412001  0.53585262  0.33418558  1
  H+  H106  1  0.22847549  0.09498423  0.31481928  1
  H+  H107  1  0.01102129  0.32779200  0.79831395  1
  H+  H108  1  0.48184360  0.11425691  0.67447319  1
  H+  H109  1  0.91574360  0.12584933  0.65808436  1
  H+  H110  1  0.74288773  0.35710788  0.16963569  1
  H+  H111  1  0.63140474  0.87854280  0.49018607  1
  H+  H112  1  0.39256475  0.36900431  0.84343035  1
  H+  H113  1  0.62320246  0.40138876  0.81967137  1
  H+  H114  1  0.89324470  0.02871360  0.66268979  1
  H+  H115  1  0.12579457  0.01786202  0.16123576  1
  H+  H116  1  0.52257133  0.63311148  0.00811194  1
  H+  H117  1  0.01868926  0.13892018  0.82897200  1
  H+  H118  1  0.79582430  0.42855892  0.48465064  1
  H+  H119  1  0.85208480  0.87177084  0.48621609  1
  H+  H120  1  0.21014276  0.11036977  0.98987821  1
  H+  H121  1  0.48129728  0.11963428  0.32676418  1
  H+  H122  1  0.23498987  0.38073006  0.66195774  1
  H+  H123  1  0.88753061  0.36751937  0.65326198  1
  H+  H124  1  0.13553038  0.62286481  0.66021065  1
  H+  H125  1  0.22487166  0.85830456  0.50248173  1
  H+  H126  1  0.96876183  0.12024956  0.99422004  1
  H+  H127  1  -0.02016412  0.13024145  0.32345662  1
  H+  H128  1  0.11905127  0.76420827  0.17550276  1
  H+  H129  1  0.11303949  0.51377083  0.32261909  1
  H+  H130  1  0.13528209  1.01438236  0.65789880  1
  H+  H131  1  0.78094541  0.39331665  0.66690841  1
  H+  H132  1  0.41729704  0.36491772  0.17170495  1
  H+  H133  1  0.60874249  0.64073025  0.83275086  1
  H+  H134  1  0.39312903  0.54640499  0.48345233  1
  H+  H135  1  0.78506155  0.65996665  0.34905322  1
  H+  H136  1  0.13316798  0.27047050  0.32845059  1
  H+  H137  1  0.76734604  0.88598592  0.01312693  1
  H+  H138  1  0.87359241  0.66063965  0.34910175  1
  H+  H139  1  0.11776265  0.96432458  0.33716070  1
  H+  H140  1  0.86355379  0.39216817  0.82820998  1
  H+  H141  1  0.10788444  0.36300764  0.81809452  1
  H+  H142  1  0.48749256  0.37060628  0.31888175  1
  H+  H143  1  0.85120939  0.12244054  0.49186843  1
  H+  H144  1  -0.12106448  0.56725077  0.47834959  1
  H+  H145  1  0.61430108  0.73928551  0.49649025  1
  H+  H146  1  0.14219900  0.52256329  0.50904178  1
  H+  H147  1  -0.02998067  0.61966338  0.33851271  1
  H+  H148  1  0.27689189  0.64217705  0.49818185  1
  H+  H149  1  0.61572310  0.13075137  0.16557213  1
  H+  H150  1  0.48116879  0.95449041  0.22628868  1
  H+  H151  1  0.61597994  0.88562823  0.33452017  1
  H+  H152  1  0.08067828  0.66439224  0.06705370  1
  H+  H153  1  0.89529006  0.26925080  0.49691171  1
  H+  H154  1  0.73739892  0.68643400  0.85673666  1
  H+  H155  1  0.12822343  0.77272741  0.83953823  1
  H+  H156  1  0.35669388  0.12989580  0.67324871  1
  H+  H157  1  0.02126229  0.61979896  0.49406429  1
  H+  H158  1  0.10704614  0.38532569  0.33719423  1
  H+  H159  1  0.13306846  0.51745780  0.98927315  1
  H+  H160  1  0.50168561  0.37022225  0.12068963  1
  H+  H161  1  0.98160757  0.11867728  0.15406973  1
  H+  H162  1  0.47207511  0.86652427  0.49694174  1
  H+  H163  1  0.46757950  0.12189703  0.83788075  1
  H+  H164  1  0.36486487  0.38086203  0.66874524  1
  H+  H165  1  0.10125700  0.97185919  0.82220274  1
  H+  H166  1  0.34572580  0.10589475  0.00989650  1
  H+  H167  1  0.90518072  0.37355527  0.17454031  1
  H+  H168  1  0.73624892  0.62854534  -0.00493330  1
  H+  H169  1  0.10379068  0.63626858  0.81559006  1
  H+  H170  1  0.81779840  0.14230657  0.69822533  1
  H+  H171  1  0.52811223  0.14227888  0.48647802  1
  H+  H172  1  0.61077037  0.23640127  0.82975903  1
  H+  H173  1  0.83062346  0.20202812  0.80856702  1
  H+  H174  1  0.72788598  0.85012851  0.84627634  1
  H+  H175  1  0.61198918  0.38354256  0.66547315  1
  H+  H176  1  0.72788210  0.11440293  0.17655437  1
  H+  H177  1  0.16044610  0.07641939  0.60027846  1
  H+  H178  1  0.66220582  0.82889988  0.23485891  1
  H+  H179  1  0.64195042  0.52319272  0.65080293  1
  H+  H180  1  0.86077919  0.96753380  0.16328255  1
  H+  H181  1  0.70154183  0.09589597  0.64130129  1
  H+  H182  1  0.17281763  0.33982561  0.57706709  1
  H+  H183  1  0.08662704  0.17935211  0.09648226  1
  H+  H184  1  0.22859134  0.36121738  0.98630083  1
  H+  H185  1  0.41469782  0.83276431  0.27239201  1
  H+  H186  1  -0.02773272  0.85234398  0.63975442  1
  H+  H187  1  0.11802971  0.12457672  0.68224659  1
  H+  H188  1  0.60550548  0.21576716  0.32956856  1
  H+  H189  1  0.24209933  0.49655370  0.11882917  1
  H+  H190  1  0.67241143  0.32260986  0.22319184  1
  H+  H191  1  0.35121135  0.22386958  0.16500974  1
  H+  H192  1  0.40074139  0.84294945  0.81727097  1
  H+  H193  1  0.02515020  0.62735657  0.16433904  1
  H+  H194  1  0.88552897  0.75881949  0.78968640  1
  H+  H195  1  0.71906431  0.85098322  0.17534102  1
  H+  H196  1  0.10577536  0.88506080  0.82271249  1
  H+  H197  1  0.26958800  0.62020663  0.82066455  1
  H+  H198  1  0.60738746  0.13352205  0.67751350  1
  H+  H199  1  0.88663901  0.60848344  0.82941703  1
  H+  H200  1  0.72474965  0.50802334  0.13021761  1
  H+  H201  1  0.86734293  0.73175259  1.02902747  1
  H+  H202  1  0.13736853  0.27065715  0.52118099  1
  H+  H203  1  0.85464794  0.97732613  0.01150757  1
  H+  H204  1  0.36275094  0.62651027  0.35469176  1
  H+  H205  1  0.65268017  0.34880428  0.31811527  1
  H+  H206  1  0.63036736  0.85671964  0.99950588  1
  H+  H207  1  0.86068739  0.86131953  0.80896127  1
  H+  H208  1  0.89173955  0.78547017  0.32832658  1
  H+  H209  1  0.37158911  0.50714928  0.33642216  1
  H+  H210  1  0.34606100  0.68851221  0.09888513  1
  H+  H211  1  0.61561209  0.88481400  0.16176344  1
  H+  H212  1  0.87031858  0.93546474  0.85384285  1
  H+  H213  1  0.87037734  0.54275101  0.34480949  1
  H+  H214  1  0.26674638  0.12801333  0.66742576  1
  H+  H215  1  0.99431189  0.12812775  0.49435431  1
  H+  H216  1  0.18325898  0.27619715  0.16043189  1
  H+  H217  1  0.37847602  0.67235599  0.16159435  1
  H+  H218  1  0.63226276  0.61096762  0.50339604  1
  H+  H219  1  0.90894589  0.29954377  0.85014970  1
  H+  H220  1  0.76803526  0.13817805  0.34267098  1
  H+  H221  1  0.27160468  0.63128549  1.00258232  1
  H+  H222  1  0.22028535  0.35565737  0.33440233  1
  H+  H223  1  0.13604682  0.76767604  0.50772787  1
  H+  H224  1  0.11490252  0.63092181  0.49839197  1
  H+  H225  1  0.36295814  0.44463838  0.52884347  1
  H+  H226  1  0.38112112  0.59674174  0.84425033  1
  H+  H227  1  0.11361266  0.73465606  0.66607502  1
  H+  H228  1  0.86308769  0.15422592  0.34134072  1
  H+  H229  1  0.86773581  0.64529158  1.00583479  1
  H+  H230  1  0.89326626  0.28068386  0.65401765  1
  H+  H231  1  0.77018970  0.62924320  0.65606463  1
  H+  H232  1  0.11178156  0.13830982  0.15044581  1
  H+  H233  1  0.12042906  0.01164140  0.50804845  1
  H+  H234  1  0.98360454  0.39367177  0.86195122  1
  H+  H235  1  0.87594396  0.47884864  0.17212937  1
  H+  H236  1  0.62592174  0.49084721  0.81488140  1
  H+  H237  1  0.90081587  0.15214503  0.84059282  1
  H+  H238  1  0.48196033  0.12120986  0.17644786  1
  H+  H239  1  0.62014290  1.00374688  0.64132827  1
  H+  H240  1  0.40051013  0.86919024  0.65791243  1
  H+  H241  1  0.23147644  0.86393268  0.65930357  1
  H+  H242  1  0.36392056  0.71617221  0.34776188  1
  H+  H243  1  0.90312114  0.56211604  0.54762875  1
  H+  H244  1  0.86287826  0.14047031  0.15990950  1
  H+  H245  1  0.66515553  0.40887515  0.14832581  1
  H+  H246  1  0.10987702  0.97975156  0.00825233  1
  H+  H247  1  0.11155193  0.63852291  1.00634795  1
  H+  H248  1  0.36444132  0.54226819  0.18191842  1
  H+  H249  1  0.62652416  0.61356072  0.17899540  1
  H+  H250  1  0.87799251  0.00818660  0.50660487  1
  H+  H251  1  0.21630038  0.10539502  0.15994522  1
  H+  H252  1  0.36038156  0.70745281  0.82780691  1
  H+  H253  1  0.12926495  0.84737242  0.33123230  1
  H+  H254  1  0.66674242  0.31220209  0.98348788  1
  H+  H255  1  0.38167732  0.01157519  0.49076383  1
  H+  H256  1  0.46480926  0.09341719  -0.00594747  1
  H+  H257  1  0.00765105  0.35627135  0.15367058  1
  H+  H258  1  0.25576551  0.88688038  0.83461611  1
  H+  H259  1  0.38794364  0.12798279  0.32208977  1
  H+  H260  1  0.47298496  0.35291441  0.65478752  1
  H+  H261  1  0.17019270  0.33192379  0.92525024  1
  H+  H262  1  0.12228859  0.39084007  0.49638373  1
  H+  H263  1  0.10131610  0.13793353  0.00190384  1
  H+  H264  1  0.22060358  0.85959539  -0.00774064  1
  H+  H265  1  0.38224214  0.60132770  0.65530201  1
  H+  H266  1  0.61054206  0.72382046  0.01171873  1
  H+  H267  1  0.83893504  0.42546446  0.72655214  1
  H+  H268  1  0.52280834  0.87414714  0.64621251  1
  H+  H269  1  0.70905928  0.45001644  0.37014818  1
  H+  H270  1  0.51033010  0.62890248  0.68118118  1
  H+  H271  1  0.23124233  0.37772739  0.17311811  1
  H+  H272  1  0.64427152  0.27635423  0.65765907  1
  H+  H273  1  0.36843827  0.21974908  0.47786153  1
  H+  H274  1  0.26872755  0.37142435  0.51053589  1
  H+  H275  1  0.11946851  0.10202293  0.84108010  1
  H+  H276  1  0.12044690  0.64036275  0.15942962  1
  H+  H277  1  0.82686370  0.16050212  0.43218271  1
  H+  H278  1  0.03722056  0.21422897  0.45756154  1
  H+  H279  1  0.03063434  0.12523610  0.67646957  1
  H+  H280  1  0.91124317  0.07592536  0.10452270  1
  H+  H281  1  0.74479914  0.13603086  1.00826090  1
  H+  H282  1  0.37039858  0.39028463  0.00727100  1
  H+  H283  1  0.79365566  0.41161356  1.00706046  1
  H+  H284  1  0.62500182  0.87832180  0.84929760  1
  H+  H285  1  0.89648919  0.53784353  -0.00791365  1
  H+  H286  1  0.07072323  0.41046328  0.72314189  1
  H+  H287  1  0.62511202  0.44273818  1.05863297  1
  H+  H288  1  0.38523576  0.08189631  0.53751893  1
  H+  H289  1  0.08333141  0.41892119  0.39561496  1
  H+  H290  1  0.98479251  0.87049631  0.32695767  1
  H+  H291  1  0.98263921  0.62663688  0.98954702  1
  H+  H292  1  0.15970003  0.57901760  0.93188070  1
  H+  H293  1  0.41736275  0.31280248  0.56318991  1
  H+  H294  1  0.41469737  0.57522061  0.93726778  1
  H+  H295  1  0.89395800  0.04175431  0.32856070  1
  H+  H296  1  0.33924004  0.91821788  0.09775641  1
  H+  H297  1  0.32836794  0.90712810  0.74004860  1
  H+  H298  1  0.91999320  0.58399775  0.24571404  1
  H+  H299  1  0.57650951  0.91548813  0.42049889  1
  H+  H300  1  0.92085923  0.33142913  0.55338569  1
  H+  H301  1  0.41291324  0.34116064  0.26868158  1
  H+  H302  1  0.33519323  0.64737092  0.72915939  1
  H+  H303  1  0.73551027  0.87863997  0.32171161  1
  H+  H304  1  0.91502012  0.33999913  0.94524234  1
  H+  H305  1  0.83321598  0.64805396  0.74020427  1
  H+  H306  1  0.17454878  0.83604509  0.59734629  1
  H+  H307  1  0.12548629  0.75660456  0.33203493  1
  H+  H308  1  0.66330167  0.08565505  0.95277938  1
  H+  H309  1  0.82998527  0.17582438  0.10770057  1
  H+  H310  1  0.57085993  0.14856089  0.08282404  1
  H+  H311  1  0.33384823  0.41195051  0.76396177  1
  H+  H312  1  0.90502275  0.09137447  0.93735872  1
  H+  H313  1  0.31896323  0.32567509  0.18846888  1
  H+  H314  1  0.01893308  0.87193501  0.48858344  1
  H+  H315  1  0.82202361  0.63722125  0.09929813  1
  H+  H316  1  0.60470061  0.92634763  0.79662261  1
  H+  H317  1  0.07558981  0.90672492  0.10882774  1
  H+  H318  1  0.86263611  0.63286349  0.65226715  1
  H+  H319  1  0.89333575  0.20544523  0.73985250  1
  H+  H320  1  0.43255022  0.06957469  0.61507615  1
  H+  H321  1  -0.02240538  0.61809586  0.64275599  1
  H+  H322  1  0.25373334  0.65781708  0.17494324  1
  H+  H323  1  0.58050289  0.90824272  0.06461351  1
  H+  H324  1  0.15636673  0.58828755  0.27109892  1
  H+  H325  1  0.41966303  0.58093960  0.59517568  1
  H+  H326  1  0.42047642  0.84413373  0.59134505  1
  H+  H327  1  0.62359279  0.22509760  0.15954356  1
  H+  H328  1  0.33904566  0.16984007  0.38586399  1
  H+  H329  1  0.22536434  0.35700004  0.83118637  1
  H+  H330  1  0.07636823  0.90988021  0.72318863  1
  H+  H331  1  0.85899759  0.14292316  0.00775848  1
  H+  H332  1  0.61677223  0.14211323  0.48293465  1
  H+  H333  1  0.15480140  0.83033977  0.90098112  1
  H+  H334  1  0.85154714  0.43158848  0.10692318  1
  H+  H335  1  0.60342504  0.68924436  0.40238896  1
  H+  H336  1  0.20757399  0.10033200  0.83795365  1
  H+  H337  1  0.60980979  0.97214346  0.33369152  1
  H+  H338  1  0.17045211  0.58408148  0.56815224  1
  H+  H339  1  0.57131681  0.65873831  0.10500817  1
  H+  H340  1  0.88205770  0.79398315  0.91228946  1
  H+  H341  1  0.67640505  0.35377904  0.89111144  1
  H+  H342  1  0.42172335  0.09259645  0.26132773  1
  H+  H343  1  0.68779607  0.61178034  0.90320105  1
  H+  H344  1  0.08265012  0.90901884  0.39952155  1
  H+  H345  1  0.57739321  0.16460289  0.39412044  1
  H+  H346  1  0.43049828  0.35681119  0.93877639  1
  H+  H347  1  0.40953103  0.82316871  0.93329467  1
  H+  H348  1  0.92481283  0.84203687  0.24307087  1
  H+  H349  1  0.92980722  0.82327800  0.91524514  1
  H+  H350  1  0.33234742  0.16196049  0.10617058  1
  H+  H351  1  0.72132810  0.31586126  0.30874676  1
  H+  H352  1  0.67484114  0.87880079  0.55193288  1
  H+  H353  1  0.65905897  0.39730106  0.98614463  1
  H+  H354  1  0.58283783  0.41648285  0.72312724  1
  H+  H355  1  0.05751476  0.30565892  0.13120924  1
  H+  H356  1  0.32398733  0.90722511  0.42783673  1
  H+  H357  1  0.91051383  0.81764428  0.55470950  1
  H+  H358  1  0.68616754  0.78833463  0.60655304  1
  H+  H359  1  0.83440421  0.92908414  0.74252919  1
  H+  H360  1  0.35360982  0.87409726  1.00299949  1
  H+  H361  1  0.61653347  0.38477022  0.49377410  1
  H+  H362  1  0.30878952  0.15338787  0.76475763  1
  H+  H363  1  0.12998298  0.77352808  0.99510993  1
  H+  H364  1  0.66607904  0.82699630  0.94245031  1
  H+  H365  1  0.59450357  0.89445949  0.69724270  1
  H+  H366  1  0.82381487  0.29594279  0.34649835  1
  H+  H367  1  0.65357232  0.07944260  0.54982896  1
  H+  H368  1  0.91645745  0.58865426  0.89504404  1
  H+  H369  1  0.07839741  0.66011118  0.40472076  1
  H+  H370  1  0.15077461  0.07937722  0.93003859  1
  H+  H371  1  0.61636535  0.42021252  0.39704520  1
  H+  H372  1  0.07481127  0.67428918  0.72443593  1
  H+  H373  1  0.66359420  0.07990043  0.26741918  1
  H+  H374  1  0.07857400  0.15599468  0.76875821  1
  H+  H375  1  0.33707827  0.67050898  0.43669797  1
  H+  H376  1  0.56744423  0.66406527  0.77545040  1
  H+  H377  1  0.89278495  0.52687971  0.64674035  1
  H+  H378  1  0.58810878  0.17270358  0.73791731  1
  H+  H379  1  0.86372383  0.47968284  0.82408897  1
  H+  H380  1  0.83974693  0.92538798  0.39396292  1
  H+  H381  1  0.82891432  0.90610861  0.10735768  1
  H+  H382  1  0.33163143  0.40247410  0.41327054  1
  H+  H383  1  0.14488552  0.81729570  0.23833404  1
  O2-  O384  1  0.08840812  0.17876519  0.14190661  1
  O2-  O385  1  0.05148292  0.17313055  0.47517645  1
  O2-  O386  1  0.07876137  0.16269494  0.81546029  1
  O2-  O387  1  0.06140386  0.36163203  0.12859307  1
  O2-  O388  1  0.09401807  0.42221215  0.48117074  1
  O2-  O389  1  0.06640440  0.38174607  0.80148523  1
  O2-  O390  1  0.08127231  0.66001974  0.14271301  1
  O2-  O391  1  0.08279872  0.66040300  0.48505158  1
  O2-  O392  1  0.07704436  0.67146108  0.80718065  1
  O2-  O393  1  0.07018893  0.90488723  0.15391369  1
  O2-  O394  1  0.08078106  0.90866097  0.47806271  1
  O2-  O395  1  0.07779865  0.91398455  0.80233675  1
  O2-  O396  1  0.33429588  0.16473636  0.15138735  1
  O2-  O397  1  0.33975670  0.16542496  0.45363730  1
  O2-  O398  1  0.30006189  0.14961186  0.80942987  1
  O2-  O399  1  0.21788380  0.47437255  0.15884219  1
  O2-  O400  1  0.33225418  0.40165009  0.49745373  1
  O2-  O401  1  0.32656806  0.40761268  0.80923416  1
  O2-  O402  1  0.35146337  0.70281452  0.14261123  1
  O2-  O403  1  0.33804440  0.67494266  0.48451736  1
  O2-  O404  1  0.33192784  0.64725314  0.81313579  1
  O2-  O405  1  0.34682261  0.92328905  0.14245417  1
  O2-  O406  1  0.32800075  0.91610647  0.47481993  1
  O2-  O407  1  0.31980723  0.91850479  0.82390863  1
  O2-  O408  1  0.58547469  0.16170954  0.14985709  1
  O2-  O409  1  0.58769945  0.17532129  0.47073706  1
  O2-  O410  1  0.57766524  0.17448593  0.81623622  1
  O2-  O411  1  0.66441077  0.45891421  0.12923796  1
  O2-  O412  1  0.58266550  0.40806434  0.47483325  1
  O2-  O413  1  0.59314956  0.43079809  0.80249466  1
  O2-  O414  1  0.56743313  0.65705565  0.15034816  1
  O2-  O415  1  0.58757656  0.67936299  0.48225029  1
  O2-  O416  1  0.57371095  0.66744801  0.82243575  1
  O2-  O417  1  0.59293022  0.92120167  0.14459927  1
  O2-  O418  1  0.57620780  0.91814351  0.46683686  1
  O2-  O419  1  0.59223125  0.91123602  0.83942112  1
  O2-  O420  1  0.83065705  0.17146252  0.15254781  1
  O2-  O421  1  0.82431614  0.15632806  0.47842322  1
  O2-  O422  1  0.89195969  0.22198036  0.81075617  1
  O2-  O423  1  0.84781644  0.42089716  0.15148922  1
  O2-  O424  1  0.74556247  0.37879159  0.46567456  1
  O2-  O425  1  0.83352715  0.41927222  0.80794252  1
  O2-  O426  1  0.81130940  0.61133254  0.14112546  1
  O2-  O427  1  0.86373170  0.72859697  0.49012543  1
  O2-  O428  1  0.83746405  0.64772960  0.78718302  1
  O2-  O429  1  0.83124544  0.90557001  0.15292675  1
  O2-  O430  1  0.83030936  0.91071795  0.47310434  1
  O2-  O431  1  0.83137713  0.89691285  0.82293561  1
  O2-  O432  1  0.15403436  0.08050747  0.15382307  1
  O2-  O433  1  0.14618024  0.07060365  0.52551257  1
  O2-  O434  1  0.14716664  0.06902964  0.85621563  1
  O2-  O435  1  0.24037896  0.32981147  0.16198249  1
  O2-  O436  1  0.17368103  0.33214076  0.53018028  1
  O2-  O437  1  0.16474593  0.32767418  0.84779715  1
  O2-  O438  1  0.19350639  0.61634434  0.18933187  1
  O2-  O439  1  0.17179430  0.58421582  0.52309289  1
  O2-  O440  1  0.15206659  0.56424939  0.80580371  1
  O2-  O441  1  0.13820056  0.82157865  0.19347964  1
  O2-  O442  1  0.16609653  0.82912125  0.52120423  1
  O2-  O443  1  0.15768838  0.83302232  0.85522530  1
  O2-  O444  1  0.42180452  0.09200150  0.19208334  1
  O2-  O445  1  0.41650478  0.07579174  0.50363501  1
  O2-  O446  1  0.40907247  0.09105093  0.85596903  1
  O2-  O447  1  0.37276356  0.32209510  0.19799135  1
  O2-  O448  1  0.41841035  0.31379661  0.51732219  1
  O2-  O449  1  0.43152132  0.35377882  0.86490436  1
  O2-  O450  1  0.40817387  0.59740849  0.19813935  1
  O2-  O451  1  0.41716063  0.59408392  0.51220323  1
  O2-  O452  1  0.41140207  0.56751442  0.86113551  1
  O2-  O453  1  0.45447373  0.89967906  0.20493693  1
  O2-  O454  1  0.41372757  0.83892656  0.51555912  1
  O2-  O455  1  0.41939753  0.81728876  0.84848073  1
  O2-  O456  1  0.66587552  0.08111003  0.18867918  1
  O2-  O457  1  0.66055345  0.08417722  0.50523761  1
  O2-  O458  1  0.64431981  0.07060403  0.87991061  1
  O2-  O459  1  0.67924331  0.32664849  0.17752614  1
  O2-  O460  1  0.68316403  0.33640247  0.51590467  1
  O2-  O461  1  0.66897725  0.34262066  0.84641788  1
  O2-  O462  1  0.66336404  0.59171087  0.19658158  1
  O2-  O463  1  0.66031260  0.57903659  0.51769977  1
  O2-  O464  1  0.69539372  0.62516861  0.85776905  1
  O2-  O465  1  0.65842854  0.82368807  0.18898429  1
  O2-  O466  1  0.66621947  0.85479241  0.51117784  1
  O2-  O467  1  0.66758441  0.82631717  0.86166136  1
  O2-  O468  1  0.91719613  0.08325382  0.14855096  1
  O2-  O469  1  0.90375402  0.06895009  0.52125333  1
  O2-  O470  1  0.90955706  0.10312631  0.85892295  1
  O2-  O471  1  0.93393299  0.34098365  0.18784723  1
  O2-  O472  1  0.93016616  0.33009235  0.50925876  1
  O2-  O473  1  0.92266666  0.35625276  0.87179986  1
  O2-  O474  1  0.92413471  0.57828310  0.20038322  1
  O2-  O475  1  0.90548109  0.54394274  0.50522097  1
  O2-  O476  1  0.91742489  0.58155267  0.84984766  1
  O2-  O477  1  0.92264972  0.83870504  0.19521575  1
  O2-  O478  1  0.90850761  0.82071337  0.50565418  1
  O2-  O479  1  0.90750626  0.82136585  0.78506291  1
  O2-  O480  1  0.16718683  0.05787228  0.30458724  1
  O2-  O481  1  0.16793786  0.07636887  0.64563099  1
  O2-  O482  1  0.14987728  0.08350235  0.97614486  1
  O2-  O483  1  0.16356005  0.33009292  0.31426549  1
  O2-  O484  1  0.17652765  0.35540581  0.64392490  1
  O2-  O485  1  0.16811263  0.33295319  0.97093039  1
  O2-  O486  1  0.13560325  0.57588887  0.31317115  1
  O2-  O487  1  0.16707428  0.59118975  0.65173300  1
  O2-  O488  1  0.16254263  0.57936711  0.97610727  1
  O2-  O489  1  0.15831436  0.81675632  0.31483374  1
  O2-  O490  1  0.17192041  0.83625132  0.64307200  1
  O2-  O491  1  0.15946917  0.83299705  0.97785932  1
  O2-  O492  1  0.41996599  0.09450635  0.30825658  1
  O2-  O493  1  0.42223925  0.07680020  0.65760214  1
  O2-  O494  1  0.40701464  0.06926316  0.97596033  1
  O2-  O495  1  0.42533112  0.34002573  0.31310904  1
  O2-  O496  1  0.41258859  0.32299255  0.63900525  1
  O2-  O497  1  0.42810799  0.35735607  0.98474384  1
  O2-  O498  1  0.40296416  0.56868581  0.32605028  1
  O2-  O499  1  0.41699221  0.57455927  0.63989479  1
  O2-  O500  1  0.41640009  0.58107493  0.98289191  1
  O2-  O501  1  0.41127737  0.82018974  0.31648918  1
  O2-  O502  1  0.43448866  0.84852874  0.63581722  1
  O2-  O503  1  0.40883422  0.82548416  0.97798134  1
  O2-  O504  1  0.66085143  0.07681679  0.31278295  1
  O2-  O505  1  0.64001025  0.06621819  0.63352717  1
  O2-  O506  1  0.67623682  0.10074970  0.99736148  1
  O2-  O507  1  0.66062727  0.30412322  0.29713184  1
  O2-  O508  1  0.67518871  0.33646594  0.64268650  1
  O2-  O509  1  0.69435049  0.37076505  0.96843081  1
  O2-  O510  1  0.68226343  0.59565260  0.32087205  1
  O2-  O511  1  0.67629016  0.58304732  0.63657061  1
  O2-  O512  1  0.67731954  0.59900889  0.97574450  1
  O2-  O513  1  0.67413865  0.84453632  0.30916974  1
  O2-  O514  1  0.68041197  0.81010735  0.64582558  1
  O2-  O515  1  0.66505721  0.82791187  0.98756685  1
  O2-  O516  1  0.91841266  0.10274014  0.31582987  1
  O2-  O517  1  0.93026505  0.08414739  0.64018559  1
  O2-  O518  1  0.90602520  0.09032268  0.98289727  1
  O2-  O519  1  0.81284701  0.33763948  0.32583546  1
  O2-  O520  1  0.91758449  0.33836664  0.63544595  1
  O2-  O521  1  0.91651470  0.33527428  0.99089191  1
  O2-  O522  1  0.91052523  0.59837146  0.32161667  1
  O2-  O523  1  0.91798772  0.58399832  0.62656079  1
  O2-  O524  1  0.92223244  0.59633003  0.97356849  1
  O2-  O525  1  0.92443769  0.84540406  0.30974712  1
  O2-  O526  1  0.91512885  0.82050258  0.61986002  1
  O2-  O527  1  0.91594823  0.83136436  1.04366276  1
  O2-  O528  1  0.07315414  0.17062498  0.01718651  1
  O2-  O529  1  0.12004664  0.16394906  0.36846496  1
  O2-  O530  1  0.08503980  0.15041843  0.69975649  1
  O2-  O531  1  0.08667443  0.41407992  0.01208739  1
  O2-  O532  1  0.07491984  0.41363469  0.35115329  1
  O2-  O533  1  0.07603502  0.42551941  0.67945825  1
  O2-  O534  1  0.08224492  0.66916614  0.02119840  1
  O2-  O535  1  0.07060739  0.65984788  0.35997846  1
  O2-  O536  1  0.07934465  0.67295849  0.67948569  1
  O2-  O537  1  0.08963862  0.92360064  0.02903934  1
  O2-  O538  1  0.08027587  0.90465393  0.35419867  1
  O2-  O539  1  0.07678339  0.90953116  0.67781018  1
  O2-  O540  1  0.30219212  0.11360980  0.03327431  1
  O2-  O541  1  0.34047375  0.16898520  0.33866752  1
  O2-  O542  1  0.32723071  0.16163140  0.68444517  1
  O2-  O543  1  0.32939738  0.41259369  0.02115846  1
  O2-  O544  1  0.32582969  0.39839819  0.36862091  1
  O2-  O545  1  0.33960781  0.41466737  0.68605667  1
  O2-  O546  1  0.33192127  0.66377759  0.01685145  1
  O2-  O547  1  0.33783392  0.66160449  0.37082951  1
  O2-  O548  1  0.33447654  0.64716964  0.68437946  1
  O2-  O549  1  0.32299410  0.90471149  0.01696855  1
  O2-  O550  1  0.32063529  0.89567507  0.35996959  1
  O2-  O551  1  0.33471584  0.90957318  0.69537694  1
  O2-  O552  1  0.56636287  0.14591464  0.03533858  1
  O2-  O553  1  0.57124324  0.15612167  0.34885236  1
  O2-  O554  1  0.58540694  0.17085184  0.69243952  1
  O2-  O555  1  0.60921603  0.43616551  0.01421494  1
  O2-  O556  1  0.64739917  0.43404904  0.35754173  1
  O2-  O557  1  0.57775166  0.41031703  0.67813752  1
  O2-  O558  1  0.58228944  0.66215581  0.02490126  1
  O2-  O559  1  0.61427967  0.69608252  0.35802640  1
  O2-  O560  1  0.56187682  0.65959534  0.70774141  1
  O2-  O561  1  0.57925121  0.90330605  0.01949691  1
  O2-  O562  1  0.58046097  0.91151609  0.34891768  1
  O2-  O563  1  0.58987574  0.89781216  0.65336751  1
  O2-  O564  1  0.82951014  0.17445079  0.02419604  1
  O2-  O565  1  0.82620466  0.17498809  0.36002639  1
  O2-  O566  1  0.87738284  0.18792830  0.69504628  1
  O2-  O567  1  0.85149789  0.43784496  0.02607331  1
  O2-  O568  1  0.80385124  0.46182894  0.38427883  1
  O2-  O569  1  0.84176056  0.42417518  0.68138200  1
  O2-  O570  1  0.83225790  0.66647564  0.02618346  1
  O2-  O571  1  0.84605262  0.69492062  0.36315695  1
  O2-  O572  1  0.83309554  0.66148477  0.67137957  1
  O2-  O573  1  0.82730532  0.91942519  0.02993441  1
  O2-  O574  1  0.84332089  0.93243541  0.34890576  1
  O2-  O575  1  0.82856091  0.94363640  0.70036501  1
