# generated using pymatgen
data_H2O
_symmetry_space_group_name_H-M   'P 1'
_cell_length_a   17.97762546
_cell_length_b   17.97179266
_cell_length_c   22.00482803
_cell_angle_alpha   89.98404845
_cell_angle_beta   90.00294187
_cell_angle_gamma   119.97152172
_symmetry_Int_Tables_number   1
_chemical_formula_structural   H2O
_chemical_formula_sum   'H384 O192'
_cell_volume   6158.81098152
_cell_formula_units_Z   192
loop_
 _symmetry_equiv_pos_site_id
 _symmetry_equiv_pos_as_xyz
  1  'x, y, z'
loop_
 _atom_type_symbol
 _atom_type_oxidation_number
  H+  1.0
  O2-  -2.0
loop_
 _atom_site_type_symbol
 _atom_site_label
 _atom_site_symmetry_multiplicity
 _atom_site_fract_x
 _atom_site_fract_y
 _atom_site_fract_z
 _atom_site_occupancy
  H+  H0  1  0.74033329  0.62179012  -0.02999450  1
  H+  H1  1  0.02844956  0.35089963  0.34566443  1
  H+  H2  1  0.35691094  0.48893052  0.01205353  1
  H+  H3  1  0.29030941  0.64406755  0.49562705  1
  H+  H4  1  0.47317662  0.11089766  0.51467218  1
  H+  H5  1  0.89459835  0.86686125  0.50685398  1
  H+  H6  1  0.62049473  0.34606083  0.16821491  1
  H+  H7  1  0.69160900  0.57771966  0.19274406  1
  H+  H8  1  0.86198250  0.97552280  0.83069428  1
  H+  H9  1  0.83328397  0.73884618  0.34551279  1
  H+  H10  1  0.22182647  0.34179232  0.98598963  1
  H+  H11  1  0.86524868  0.71755581  0.67276030  1
  H+  H12  1  0.75237623  0.40252412  0.15200287  1
  H+  H13  1  0.63091831  0.90052128  0.17141143  1
  H+  H14  1  0.01681805  0.39364707  0.82263735  1
  H+  H15  1  0.13121349  0.25435133  -0.01275938  1
  H+  H16  1  0.13920336  0.50246031  0.32882918  1
  H+  H17  1  0.89676312  0.54449472  0.16328721  1
  H+  H18  1  0.09683726  0.40227705  0.39867042  1
  H+  H19  1  0.85321646  0.39514474  0.49253118  1
  H+  H20  1  0.11735010  0.73300872  0.66680328  1
  H+  H21  1  0.38094146  0.61049309  0.33218217  1
  H+  H22  1  0.36447604  0.22634232  0.82925083  1
  H+  H23  1  -0.02506093  0.86073591  0.32991602  1
  H+  H24  1  0.53175798  0.89572937  0.49106206  1
  H+  H25  1  0.89996840  0.88278110  0.32600835  1
  H+  H26  1  0.92378028  0.27394714  0.28235345  1
  H+  H27  1  0.36213322  0.97302139  0.16870718  1
  H+  H28  1  0.86693713  0.53046208  0.84318213  1
  H+  H29  1  0.92531410  0.31056874  0.61470853  1
  H+  H30  1  0.26963753  0.88517781  0.16729967  1
  H+  H31  1  0.40070646  0.77927160  0.50468067  1
  H+  H32  1  0.22611987  0.85684720  0.32913103  1
  H+  H33  1  0.13232134  -0.01407914  0.15241864  1
  H+  H34  1  0.35550213  0.37858796  0.16746135  1
  H+  H35  1  0.61891940  -0.01420773  0.49310707  1
  H+  H36  1  0.87469374  0.60897732  0.50675114  1
  H+  H37  1  0.64717303  0.88165116  0.33253975  1
  H+  H38  1  0.21909385  0.35987204  0.17025914  1
  H+  H39  1  0.13580603  0.10462958  0.34366870  1
  H+  H40  1  0.72616357  0.11011533  0.99203694  1
  H+  H41  1  0.93038733  0.64466316  0.15503677  1
  H+  H42  1  0.80306695  0.66828045  0.19754481  1
  H+  H43  1  0.13129090  0.24351490  0.83291336  1
  H+  H44  1  0.97354037  0.62690091  0.32246132  1
  H+  H45  1  0.52155063  0.13463035  0.00003789  1
  H+  H46  1  0.00969576  0.87057230  0.81996911  1
  H+  H47  1  0.10457624  0.12513462  -0.00067288  1
  H+  H48  1  0.60474337  0.21532077  0.17026302  1
  H+  H49  1  0.32773771  0.91440976  0.73156361  1
  H+  H50  1  0.36512156  0.22691754  0.67472681  1
  H+  H51  1  0.48442621  0.11023078  0.32958507  1
  H+  H52  1  0.25699085  0.88042395  0.82437237  1
  H+  H53  1  0.71897142  0.35526338  -0.01416257  1
  H+  H54  1  0.63479810  0.01837675  0.27373403  1
  H+  H55  1  0.36544054  0.51743376  0.17803388  1
  H+  H56  1  0.59206253  0.45121111  0.16084546  1
  H+  H57  1  0.87435504  0.98363717  0.15830372  1
  H+  H58  1  0.62559091  0.51481438  0.34376816  1
  H+  H59  1  0.12661725  0.22270388  0.34104372  1
  H+  H60  1  0.37974582  0.64462998  0.49325621  1
  H+  H61  1  0.92885419  0.76997491  0.14084939  1
  H+  H62  1  0.63098448  0.87127543  0.82495107  1
  H+  H63  1  0.88144735  0.27537072  0.84415788  1
  H+  H64  1  0.38708008  0.12890542  0.17294119  1
  H+  H65  1  0.37294007  0.88807770  0.49423656  1
  H+  H66  1  0.44208423  0.58568368  0.85055794  1
  H+  H67  1  0.34854525  0.21066552  -0.00017621  1
  H+  H68  1  0.48429116  0.11295031  0.18223196  1
  H+  H69  1  0.33144204  0.61084867  -0.00422271  1
  H+  H70  1  0.77915250  0.89817805  1.00940930  1
  H+  H71  1  0.70716810  0.68872000  0.04987292  1
  H+  H72  1  0.12148263  0.85276537  0.83723849  1
  H+  H73  1  0.65339535  0.79546331  0.32916852  1
  H+  H74  1  0.13180766  0.36285438  0.16696074  1
  H+  H75  1  0.60171088  0.36536935  0.00234345  1
  H+  H76  1  0.13679601  0.10306296  0.50768754  1
  H+  H77  1  0.86222471  0.14035255  0.00667957  1
  H+  H78  1  0.10827720  0.12112930  0.82221457  1
  H+  H79  1  0.04022951  0.64147493  0.15077328  1
  H+  H80  1  0.38196598  0.86242316  0.65828617  1
  H+  H81  1  0.61028179  0.23114488  0.50773590  1
  H+  H82  1  0.90282114  0.87931534  0.16887615  1
  H+  H83  1  0.52413163  0.89037947  0.33396618  1
  H+  H84  1  0.76578324  0.89361575  0.49019949  1
  H+  H85  1  0.98357744  0.11782905  0.16770355  1
  H+  H86  1  0.63524959  0.61363175  0.50397732  1
  H+  H87  1  -0.02536765  0.85409949  0.66454966  1
  H+  H88  1  0.60009943  0.56442672  0.95616073  1
  H+  H89  1  0.51019021  0.62175294  0.16930928  1
  H+  H90  1  0.88566712  0.11179269  0.51190076  1
  H+  H91  1  0.88568244  0.36499688  0.99309210  1
  H+  H92  1  0.96789788  0.75030413  0.08296503  1
  H+  H93  1  0.85196255  0.88056809  0.82297378  1
  H+  H94  1  0.15142883  0.06819459  0.92953750  1
  H+  H95  1  0.33879172  0.41558274  0.43595898  1
  H+  H96  1  0.03945928  0.90244199  0.16100295  1
  H+  H97  1  0.38133672  0.22928799  0.16838774  1
  H+  H98  1  0.36524028  0.38424457  0.67054384  1
  H+  H99  1  0.09025769  0.62575503  0.99498584  1
  H+  H100  1  0.62612479  0.40005037  0.82752723  1
  H+  H101  1  0.63764780  0.11978024  0.51420179  1
  H+  H102  1  0.76906269  0.63606571  0.49852152  1
  H+  H103  1  -0.02540549  0.10623232  0.83794650  1
  H+  H104  1  0.70489460  0.61573511  0.34094317  1
  H+  H105  1  0.27355691  0.63053555  0.34561656  1
  H+  H106  1  0.38332194  0.10861716  0.51206129  1
  H+  H107  1  0.39589789  0.52473393  0.50615371  1
  H+  H108  1  0.89244274  0.25306127  0.18283219  1
  H+  H109  1  0.12669184  0.63755158  0.14779924  1
  H+  H110  1  0.86257983  0.98886904  0.49786280  1
  H+  H111  1  0.13925210  0.27263139  0.66251814  1
  H+  H112  1  0.01809092  0.13301717  0.00111025  1
  H+  H113  1  0.75190550  0.10546556  0.35387397  1
  H+  H114  1  0.27960422  0.13085384  0.34901805  1
  H+  H115  1  0.99454529  0.48208233  0.50643696  1
  H+  H116  1  0.52271582  0.63528169  0.67477775  1
  H+  H117  1  0.11860358  0.63857219  0.81461899  1
  H+  H118  1  0.72858201  0.36663046  0.66719812  1
  H+  H119  1  0.11138694  -0.04026937  0.35607339  1
  H+  H120  1  0.36338316  0.22347572  0.49931609  1
  H+  H121  1  0.82003580  0.41617850  0.05702398  1
  H+  H122  1  0.22951637  0.36121896  0.66067720  1
  H+  H123  1  0.63744525  0.35952658  0.32613601  1
  H+  H124  1  0.37907428  0.01954552  1.00032067  1
  H+  H125  1  0.89096262  0.58283667  0.93791491  1
  H+  H126  1  0.58058642  0.16426420  0.73904738  1
  H+  H127  1  0.11203049  0.37806656  0.99765517  1
  H+  H128  1  0.60360739  0.12447114  0.17538833  1
  H+  H129  1  0.76366477  0.89868576  0.67199569  1
  H+  H130  1  0.26046267  0.12199413  -0.00166638  1
  H+  H131  1  0.11525493  0.22780798  0.15128177  1
  H+  H132  1  0.64194255  0.87515998  0.49838953  1
  H+  H133  1  0.32702586  0.91277679  0.07215015  1
  H+  H134  1  0.52844348  0.89015148  0.01808011  1
  H+  H135  1  0.12283311  0.52404805  0.82687302  1
  H+  H136  1  0.38838008  0.61202090  0.65908196  1
  H+  H137  1  0.61474064  0.88511207  0.02016845  1
  H+  H138  1  1.02755750  0.13310481  0.67074920  1
  H+  H139  1  0.95963611  0.85367603  -0.00877176  1
  H+  H140  1  0.22932415  0.34110640  0.83296832  1
  H+  H141  1  0.63715052  0.54684386  0.25277342  1
  H+  H142  1  0.28000687  0.38566538  0.49574396  1
  H+  H143  1  0.86697326  0.48721210  0.67180209  1
  H+  H144  1  0.58376196  0.59847254  0.18139840  1
  H+  H145  1  0.34100026  0.45145086  0.82794872  1
  H+  H146  1  0.10655633  0.87805557  0.00285837  1
  H+  H147  1  0.14349491  0.61678936  0.65588925  1
  H+  H148  1  0.36307093  0.88850339  0.01376429  1
  H+  H149  1  0.36477720  0.13805849  0.82984505  1
  H+  H150  1  0.88617203  0.10886829  0.84318049  1
  H+  H151  1  0.76967121  0.13903137  0.51169503  1
  H+  H152  1  0.02498578  0.13088866  0.49559625  1
  H+  H153  1  0.84069695  0.47449774  0.49265844  1
  H+  H154  1  0.26726339  0.71258364  0.03804452  1
  H+  H155  1  0.85983670  0.39303272  0.82755817  1
  H+  H156  1  0.38911083  0.26985454  0.33117288  1
  H+  H157  1  0.12061704  0.50930282  -0.01979900  1
  H+  H158  1  0.92780525  0.61703522  0.26142073  1
  H+  H159  1  0.88958444  0.61568978  0.66026340  1
  H+  H160  1  0.12160869  0.00928653  0.98960292  1
  H+  H161  1  0.36433113  0.72611342  0.66744099  1
  H+  H162  1  0.39092242  0.36026150  0.33001665  1
  H+  H163  1  0.02649137  0.64201666  0.66797234  1
  H+  H164  1  0.13125852  0.38255146  0.49345680  1
  H+  H165  1  1.00291897  0.38927609  0.65036146  1
  H+  H166  1  0.64760295  0.77867088  0.82840676  1
  H+  H167  1  0.11550149  0.97688399  0.67538088  1
  H+  H168  1  0.53271190  0.62787544  -0.02752951  1
  H+  H169  1  0.62174213  0.13549450  0.29819844  1
  H+  H170  1  0.73442159  0.87415766  0.83099900  1
  H+  H171  1  0.87615139  0.00466824  0.34656491  1
  H+  H172  1  0.53232562  0.12967264  0.83523811  1
  H+  H173  1  0.15401326  0.12849804  0.14948933  1
  H+  H174  1  0.47533273  0.35903475  0.51038213  1
  H+  H175  1  0.12170226  0.39156008  0.66909242  1
  H+  H176  1  0.14210745  0.77306493  0.16935351  1
  H+  H177  1  0.42430167  0.06521509  0.91173402  1
  H+  H178  1  0.63829903  0.10552915  0.84087025  1
  H+  H179  1  0.38727483  0.88041400  0.84515402  1
  H+  H180  1  0.47049366  0.61370243  0.31993314  1
  H+  H181  1  0.61346499  0.63011523  0.82931682  1
  H+  H182  1  0.47943989  0.88651572  0.84478101  1
  H+  H183  1  -0.01985732  0.86056425  0.50987946  1
  H+  H184  1  0.11296007  0.48333537  0.15647686  1
  H+  H185  1  0.14509240  0.35201121  0.32691560  1
  H+  H186  1  0.70719918  0.10582841  0.67062378  1
  H+  H187  1  0.24276054  0.62437730  0.17395945  1
  H+  H188  1  0.66185779  0.77993964  0.01881466  1
  H+  H189  1  0.03400735  0.13845453  0.33975003  1
  H+  H190  1  0.12903958  1.01102496  0.83462467  1
  H+  H191  1  0.78129552  0.36086060  0.33356676  1
  H+  H192  1  0.72308911  0.36118309  0.83562280  1
  H+  H193  1  0.28053911  0.38155882  0.33885709  1
  H+  H194  1  0.45236955  0.00698923  0.87560205  1
  H+  H195  1  0.86825769  0.61940849  0.84581292  1
  H+  H196  1  -0.03845409  0.60713330  0.50074806  1
  H+  H197  1  0.38625437  0.35615517  0.99296685  1
  H+  H198  1  0.41595792  0.08238744  0.60598763  1
  H+  H199  1  0.88730317  0.02760970  0.99527197  1
  H+  H200  1  0.52543948  0.59692380  0.99822583  1
  H+  H201  1  0.34493333  0.62688826  0.81811807  1
  H+  H202  1  0.38137144  0.85922867  0.33096126  1
  H+  H203  1  0.10873742  0.87001470  0.34649358  1
  H+  H204  1  0.22898693  0.86542429  0.66137689  1
  H+  H205  1  0.60959779  0.13306887  -0.00344159  1
  H+  H206  1  0.86565380  0.89327772  0.00348728  1
  H+  H207  1  0.38686686  0.35980556  0.50922825  1
  H+  H208  1  0.63644759  0.61209301  0.65640549  1
  H+  H209  1  0.29913244  0.14051436  0.14421058  1
  H+  H210  1  0.60541345  0.63629163  0.32222856  1
  H+  H211  1  0.11856791  0.62220983  0.33997392  1
  H+  H212  1  0.89187434  0.11413630  0.17039908  1
  H+  H213  1  0.88322381  1.02539828  0.66111819  1
  H+  H214  1  0.77006096  0.12894619  0.16267826  1
  H+  H215  1  -0.01055011  0.30866160  0.20068558  1
  H+  H216  1  0.47678723  0.36190903  0.66373071  1
  H+  H217  1  0.87597325  0.24362212  0.34538694  1
  H+  H218  1  0.60920776  0.47397568  0.49770175  1
  H+  H219  1  0.90243544  0.12288763  0.65896035  1
  H+  H220  1  0.61670838  0.22420014  0.82923404  1
  H+  H221  1  0.20020177  0.60224065  0.98706562  1
  H+  H222  1  0.93064848  0.84894115  0.22940089  1
  H+  H223  1  0.23716754  0.85885128  0.50760633  1
  H+  H224  1  0.36654517  -0.02573450  0.49702558  1
  H+  H225  1  0.11687578  0.88826555  0.67352675  1
  H+  H226  1  0.36294057  -0.02203674  0.67413890  1
  H+  H227  1  0.61278804  0.38873371  0.67572363  1
  H+  H228  1  0.05523349  0.40654590  0.48944923  1
  H+  H229  1  0.23354190  0.61741396  0.65842645  1
  H+  H230  1  0.60518171  0.88311026  0.67139856  1
  H+  H231  1  0.78899608  0.65076561  0.16578080  1
  H+  H232  1  0.39529358  0.57820071  0.23601222  1
  H+  H233  1  0.64100401  0.27260311  0.31710882  1
  H+  H234  1  0.62149506  0.11169468  0.66935294  1
  H+  H235  1  0.85953546  0.22794292  0.00698220  1
  H+  H236  1  0.07783367  0.42120855  0.76382517  1
  H+  H237  1  0.85194939  0.47365526  -0.00125959  1
  H+  H238  1  0.38654634  0.11371380  0.66492469  1
  H+  H239  1  0.63070525  0.26302274  0.98476694  1
  H+  H240  1  0.63036326  0.77265329  0.65700619  1
  H+  H241  1  0.84245778  0.92445392  0.09862630  1
  H+  H242  1  0.11923377  0.87926646  0.50328805  1
  H+  H243  1  0.52427913  0.37943991  0.34611697  1
  H+  H244  1  0.76928558  0.12793292  0.83570767  1
  H+  H245  1  0.85972006  0.72468890  0.49994795  1
  H+  H246  1  0.33608023  0.62880495  0.17019480  1
  H+  H247  1  0.38832019  0.52237951  0.66060747  1
  H+  H248  1  0.63261904  0.52118485  0.65701985  1
  H+  H249  1  0.47038481  0.86168635  0.66118761  1
  H+  H250  1  0.85975918  0.22475027  0.49944126  1
  H+  H251  1  0.12557234  0.48427258  0.66874249  1
  H+  H252  1  0.63133364  0.00718992  0.17732074  1
  H+  H253  1  0.36488526  -0.02636334  0.34292648  1
  H+  H254  1  0.86092324  0.23867177  0.69218617  1
  H+  H255  1  0.13934024  1.01479666  0.50974116  1
  H+  H256  1  -0.04867663  0.61168257  -0.00402046  1
  H+  H257  1  0.71565727  0.35853212  0.51477243  1
  H+  H258  1  0.60852394  0.38401632  0.50349638  1
  H+  H259  1  0.26344478  0.63727050  0.81517594  1
  H+  H260  1  0.38144249  0.76872329  0.33104197  1
  H+  H261  1  0.39582854  0.82105344  0.24608219  1
  H+  H262  1  0.39721926  0.11499225  0.33580058  1
  H+  H263  1  0.16890544  0.52858709  0.50273676  1
  H+  H264  1  0.51990088  0.13794278  0.67892150  1
  H+  H265  1  0.94404080  0.24651262  0.71867575  1
  H+  H266  1  0.34867760  0.96776492  0.82728187  1
  H+  H267  1  0.63914401  0.27608912  0.67062215  1
  H+  H268  1  0.74095642  0.88095833  0.17622338  1
  H+  H269  1  0.97442698  0.36235992  0.99211857  1
  H+  H270  1  0.03518826  0.71776187  0.45164801  1
  H+  H271  1  0.46673229  0.35291988  0.17306866  1
  H+  H272  1  0.87037531  0.40106298  0.66988160  1
  H+  H273  1  0.82402975  0.63375535  1.00040967  1
  H+  H274  1  0.13110647  0.76727237  -0.01128250  1
  H+  H275  1  0.11721369  0.73371189  0.81737016  1
  H+  H276  1  0.39095674  0.78222164  -0.00431272  1
  H+  H277  1  0.37544217  0.10675114  -0.00778400  1
  H+  H278  1  0.36577602  0.47351853  0.34121080  1
  H+  H279  1  0.12126056  0.71321772  0.33727660  1
  H+  H280  1  0.63932317  0.01936987  0.99677569  1
  H+  H281  1  0.58871731  0.42701886  0.73290047  1
  H+  H282  1  0.77753050  0.62868719  0.66792533  1
  H+  H283  1  0.22912950  0.11348179  0.66186653  1
  H+  H284  1  0.58626199  0.68159217  0.26888448  1
  H+  H285  1  0.61998770  0.97295040  0.82552349  1
  H+  H286  1  0.47139619  0.37735392  0.84607697  1
  H+  H287  1  0.14314852  0.26510378  0.50915579  1
  H+  H288  1  0.33421088  0.16653572  0.73387299  1
  H+  H289  1  0.58422928  0.91270906  0.76364144  1
  H+  H290  1  0.91551789  0.82525429  0.60647687  1
  H+  H291  1  0.14470551  0.77142964  0.50662379  1
  H+  H292  1  0.42578997  0.58382964  0.56589508  1
  H+  H293  1  0.41524656  0.08256563  0.24059062  1
  H+  H294  1  0.66050092  0.83461098  0.59850491  1
  H+  H295  1  0.96232099  0.41156042  0.55816703  1
  H+  H296  1  0.22130364  0.85641720  0.99203489  1
  H+  H297  1  0.17043411  0.32384844  0.26528436  1
  H+  H298  1  0.35393492  0.36790169  0.82746233  1
  H+  H299  1  0.46890541  0.34546340  0.99080015  1
  H+  H300  1  0.21948833  0.10085880  0.83666051  1
  H+  H301  1  0.17185712  0.83420890  0.60096030  1
  H+  H302  1  0.08416121  0.90106540  0.44285881  1
  H+  H303  1  0.91694968  0.07871757  0.56927427  1
  H+  H304  1  0.08157079  0.15630948  0.76245911  1
  H+  H305  1  0.16468303  0.30835527  0.89622041  1
  H+  H306  1  0.63600803  0.68407953  0.09708076  1
  H+  H307  1  0.80753208  0.68537056  0.40724767  1
  H+  H308  1  0.66034809  0.33052309  0.57715230  1
  H+  H309  1  0.27461520  0.13262255  0.49774724  1
  H+  H310  1  0.70635269  0.69393147  0.80748097  1
  H+  H311  1  0.64245970  0.78507002  0.49827049  1
  H+  H312  1  0.42581595  0.85306894  0.94175199  1
  H+  H313  1  0.58159840  0.40665012  0.40689500  1
  H+  H314  1  0.65502804  0.16405828  0.36192205  1
  H+  H315  1  0.16550520  0.82623604  0.27023257  1
  H+  H316  1  0.52634572  0.64339977  0.49206421  1
  H+  H317  1  0.40394351  0.32358340  0.89817786  1
  H+  H318  1  0.91836822  0.58432597  0.60024333  1
  H+  H319  1  0.56694129  0.39958939  0.09598966  1
  H+  H320  1  0.17409273  0.56252197  0.27053565  1
  H+  H321  1  0.37096881  0.56281275  0.90026744  1
  H+  H322  1  0.08397221  0.91198868  0.06348911  1
  H+  H323  1  0.78610153  0.91342942  0.34658140  1
  H+  H324  1  0.08036096  0.66418656  0.05794645  1
  H+  H325  1  0.09037894  0.41585527  0.05738014  1
  H+  H326  1  0.16938777  0.08080842  0.60239579  1
  H+  H327  1  0.09224407  0.67623552  0.74888502  1
  H+  H328  1  0.92734067  0.15550399  0.31757978  1
  H+  H329  1  0.65889179  0.81585546  0.95245665  1
  H+  H330  1  0.33847013  0.66922437  0.40324279  1
  H+  H331  1  0.59311566  0.92579277  0.11218697  1
  H+  H332  1  0.81973811  0.38528502  0.39745127  1
  H+  H333  1  0.59454963  0.66838565  0.72843318  1
  H+  H334  1  0.33476924  0.91423942  0.40228292  1
  H+  H335  1  0.42459647  0.83801252  0.56438159  1
  H+  H336  1  0.66084746  0.58172730  0.56481069  1
  H+  H337  1  0.58371882  0.67373064  0.43214615  1
  H+  H338  1  0.20342810  0.12112154  0.20531257  1
  H+  H339  1  0.02438258  0.39438529  0.14104591  1
  H+  H340  1  0.07490971  0.66495728  0.42633910  1
  H+  H341  1  0.30046701  0.66910233  0.08426330  1
  H+  H342  1  0.11811282  0.13553481  0.67199901  1
  H+  H343  1  0.13985159  0.86197718  0.17288281  1
  H+  H344  1  0.33081737  0.40848576  0.72968946  1
  H+  H345  1  0.43274494  0.48052521  0.03665714  1
  H+  H346  1  0.82470276  0.92598922  0.73039503  1
  H+  H347  1  0.36658756  0.85525669  0.18110059  1
  H+  H348  1  0.69134327  0.86348588  0.23929813  1
  H+  H349  1  0.10143772  0.56174192  0.21209932  1
  H+  H350  1  0.91665980  0.08495220  0.93489036  1
  H+  H351  1  0.15250259  0.05548327  0.29063685  1
  H+  H352  1  0.60263596  0.97180186  0.67553417  1
  H+  H353  1  0.83763847  0.93725018  0.42780473  1
  H+  H354  1  0.59623983  0.45009858  -0.00533402  1
  H+  H355  1  0.60710796  0.50591395  0.90320946  1
  H+  H356  1  0.17218412  0.32649310  0.56815932  1
  H+  H357  1  0.66290238  0.33226582  0.22842360  1
  H+  H358  1  0.08607341  0.16096254  0.43697750  1
  H+  H359  1  0.08488581  0.16757075  0.09109189  1
  H+  H360  1  0.66188361  0.32909739  0.89468398  1
  H+  H361  1  0.86444923  0.77410555  0.98168871  1
  H+  H362  1  0.15261817  0.58432777  0.88616255  1
  H+  H363  1  0.77535857  0.48413600  0.11288587  1
  H+  H364  1  0.33628330  0.41654914  0.10777041  1
  H+  H365  1  0.33314902  0.66666892  0.72745305  1
  H+  H366  1  0.78386399  0.15038122  0.41760878  1
  H+  H367  1  0.83654882  0.16515456  0.78024812  1
  H+  H368  1  0.93205206  0.09688381  0.26508664  1
  H+  H369  1  0.58138196  0.17437627  0.44739308  1
  H+  H370  1  0.41398131  0.32603154  0.23689282  1
  H+  H371  1  0.35270088  0.75289651  0.18372563  1
  H+  H372  1  0.82736436  0.16203357  0.10157117  1
  H+  H373  1  0.83275654  0.42366458  0.76754303  1
  H+  H374  1  0.15610582  0.82377768  0.89572087  1
  H+  H375  1  0.41749502  0.33034720  0.60360975  1
  H+  H376  1  0.66364673  0.07024019  0.90054573  1
  H+  H377  1  0.18513643  0.58569359  0.56208768  1
  H+  H378  1  0.58681378  0.93403650  0.38983344  1
  H+  H379  1  0.65955767  0.08412297  0.57414142  1
  H+  H380  1  0.34062182  0.16570955  0.40656671  1
  H+  H381  1  0.42450527  0.62693104  0.98896790  1
  H+  H382  1  0.07610639  0.90755215  0.76468840  1
  H+  H383  1  0.91434229  0.33894960  0.89996236  1
  O2-  O384  1  0.08972932  0.16703625  0.13658408  1
  O2-  O385  1  0.08588689  0.15914952  0.48246143  1
  O2-  O386  1  0.08002231  0.15485653  0.80858485  1
  O2-  O387  1  0.08635318  0.42107412  0.13413616  1
  O2-  O388  1  0.11200622  0.42011078  0.47303346  1
  O2-  O389  1  0.07743677  0.42711672  0.80850531  1
  O2-  O390  1  0.10093360  0.67301989  0.13390926  1
  O2-  O391  1  0.05921354  0.68277180  0.46603076  1
  O2-  O392  1  0.09273450  0.67483845  0.79681405  1
  O2-  O393  1  0.09869439  0.92371680  0.14342667  1
  O2-  O394  1  0.08621246  0.90694866  0.48825740  1
  O2-  O395  1  0.07176072  0.90425258  0.81072178  1
  O2-  O396  1  0.36279098  0.17032247  0.14932589  1
  O2-  O397  1  0.33558901  0.16314564  0.48313324  1
  O2-  O398  1  0.33270172  0.16481457  0.81462267  1
  O2-  O399  1  0.32611946  0.40978989  0.15216863  1
  O2-  O400  1  0.34087291  0.41795866  0.48138846  1
  O2-  O401  1  0.31692866  0.39252260  0.81088913  1
  O2-  O402  1  0.30527922  0.66085316  0.15866168  1
  O2-  O403  1  0.35128215  0.67675079  0.47858812  1
  O2-  O404  1  0.32430456  0.66425562  0.80180246  1
  O2-  O405  1  0.33178853  0.91260198  0.15358748  1
  O2-  O406  1  0.33872749  0.91492377  0.47953846  1
  O2-  O407  1  0.31742774  0.90964623  0.80864019  1
  O2-  O408  1  0.56881062  0.15194448  0.16412883  1
  O2-  O409  1  0.58165864  0.16937085  0.49152372  1
  O2-  O410  1  0.58988547  0.16242427  0.81537392  1
  O2-  O411  1  0.56232652  0.39326074  0.14137072  1
  O2-  O412  1  0.57814271  0.41218213  0.48474935  1
  O2-  O413  1  0.61844881  0.44567502  0.80695345  1
  O2-  O414  1  0.57306722  0.64570603  0.16988761  1
  O2-  O415  1  0.58744768  0.67794660  0.47637378  1
  O2-  O416  1  0.64696379  0.68438822  0.80744167  1
  O2-  O417  1  0.59583835  0.92840271  0.15752427  1
  O2-  O418  1  0.59190405  0.92765099  0.47430866  1
  O2-  O419  1  0.58986259  0.91133887  0.80984014  1
  O2-  O420  1  0.83009884  0.15829754  0.14687857  1
  O2-  O421  1  0.82888710  0.16283348  0.49278516  1
  O2-  O422  1  0.83216078  0.16138508  0.82487990  1
  O2-  O423  1  0.80093167  0.45134974  0.12876889  1
  O2-  O424  1  0.81016556  0.41168572  0.48205289  1
  O2-  O425  1  0.82766691  0.42133795  0.81266861  1
  O2-  O426  1  0.92725834  0.72291270  0.11583432  1
  O2-  O427  1  0.82956270  0.66522682  0.48306678  1
  O2-  O428  1  0.83137827  0.72369845  0.82045326  1
  O2-  O429  1  0.84416754  0.92273962  0.14420327  1
  O2-  O430  1  0.83062215  0.92859850  0.47658153  1
  O2-  O431  1  0.82483523  0.91599131  0.81347900  1
  O2-  O432  1  0.19120943  0.10341312  0.16295961  1
  O2-  O433  1  0.16983319  0.07609237  0.52352570  1
  O2-  O434  1  0.15824591  0.07193725  0.84940553  1
  O2-  O435  1  0.15751714  0.32868014  0.18328280  1
  O2-  O436  1  0.17459283  0.32636728  0.52267952  1
  O2-  O437  1  0.16581790  0.30634684  0.84989068  1
  O2-  O438  1  0.14690015  0.56352968  0.18690366  1
  O2-  O439  1  0.19267661  0.58841830  0.51727670  1
  O2-  O440  1  0.15488302  0.58716260  0.84090743  1
  O2-  O441  1  0.16921231  0.83112721  0.18906518  1
  O2-  O442  1  0.17716106  0.82994861  0.52447153  1
  O2-  O443  1  0.15438624  0.82343424  0.85002659  1
  O2-  O444  1  0.41619069  0.08282178  0.19488104  1
  O2-  O445  1  0.41225040  0.07713275  0.52818784  1
  O2-  O446  1  0.43694924  0.05207489  0.86887781  1
  O2-  O447  1  0.40718565  0.32209005  0.19130139  1
  O2-  O448  1  0.41440049  0.32720229  0.52542523  1
  O2-  O449  1  0.40789941  0.32857690  0.85275635  1
  O2-  O450  1  0.39149167  0.57865156  0.19050868  1
  O2-  O451  1  0.42806762  0.58584233  0.52042038  1
  O2-  O452  1  0.38005184  0.55468136  0.85680566  1
  O2-  O453  1  0.38799125  0.81605418  0.19857877  1
  O2-  O454  1  0.42945003  0.84065711  0.51894168  1
  O2-  O455  1  0.43772788  0.89181318  0.87075448  1
  O2-  O456  1  0.66231495  0.07722251  0.19332226  1
  O2-  O457  1  0.66803806  0.08929389  0.52919821  1
  O2-  O458  1  0.66452526  0.07026616  0.85432722  1
  O2-  O459  1  0.66040461  0.32631749  0.18263684  1
  O2-  O460  1  0.65530278  0.32700959  0.53158178  1
  O2-  O461  1  0.66130716  0.32872058  0.84881886  1
  O2-  O462  1  0.63275724  0.53941681  0.20668555  1
  O2-  O463  1  0.66221490  0.58063684  0.51887202  1
  O2-  O464  1  0.55967968  0.45917514  0.84624557  1
  O2-  O465  1  0.68328106  0.85889923  0.19485189  1
  O2-  O466  1  0.67490139  0.84622148  0.51263738  1
  O2-  O467  1  0.66815762  0.83925060  0.84198046  1
  O2-  O468  1  0.92567015  0.08811864  0.18702923  1
  O2-  O469  1  0.91367993  0.07759177  0.52303134  1
  O2-  O470  1  0.91562594  0.07628898  0.85561293  1
  O2-  O471  1  0.93407235  0.30520159  0.20659005  1
  O2-  O472  1  0.96725473  0.42021423  0.51315898  1
  O2-  O473  1  0.91192691  0.33741647  0.85434525  1
  O2-  O474  1  0.94234709  0.60212670  0.17622292  1
  O2-  O475  1  0.90353743  0.57551939  0.51964146  1
  O2-  O476  1  0.89383367  0.58740035  0.86333305  1
  O2-  O477  1  0.93919841  0.85535981  0.18450670  1
  O2-  O478  1  0.91825416  0.83189810  0.52233879  1
  O2-  O479  1  0.88605552  0.80299709  0.83297131  1
  O2-  O480  1  0.16461016  0.06952313  0.33354237  1
  O2-  O481  1  0.16794482  0.08308599  0.64785612  1
  O2-  O482  1  0.15029174  0.07025394  0.97474916  1
  O2-  O483  1  0.17648676  0.32288681  0.31018687  1
  O2-  O484  1  0.16822831  0.33260359  0.64632680  1
  O2-  O485  1  0.16400244  0.31556520  0.96904807  1
  O2-  O486  1  0.17152445  0.56397095  0.31557155  1
  O2-  O487  1  0.17247794  0.58451543  0.64309001  1
  O2-  O488  1  0.14510833  0.57024110  0.96564845  1
  O2-  O489  1  0.16506694  0.82377603  0.31550082  1
  O2-  O490  1  0.16794981  0.83456710  0.64641934  1
  O2-  O491  1  0.16285285  0.82808893  0.97350858  1
  O2-  O492  1  0.42327799  0.08188621  0.31769371  1
  O2-  O493  1  0.41833576  0.08378266  0.65157955  1
  O2-  O494  1  0.40955449  0.07734810  0.98112993  1
  O2-  O495  1  0.42005270  0.32906655  0.31375522  1
  O2-  O496  1  0.41560237  0.33019717  0.64917416  1
  O2-  O497  1  0.40795168  0.32053316  0.97529055  1
  O2-  O498  1  0.40717137  0.57769915  0.31385245  1
  O2-  O499  1  0.42103628  0.58296937  0.64569572  1
  O2-  O500  1  0.36462164  0.58493841  0.97955109  1
  O2-  O501  1  0.40997384  0.82830948  0.31275911  1
  O2-  O502  1  0.41216496  0.83220296  0.64245606  1
  O2-  O503  1  0.42405013  0.84400489  0.98695626  1
  O2-  O504  1  0.66959557  0.07878150  0.26046026  1
  O2-  O505  1  0.64985642  0.07814175  0.65295527  1
  O2-  O506  1  0.66671336  0.07579483  0.97504867  1
  O2-  O507  1  0.66580630  0.33277615  0.30306672  1
  O2-  O508  1  0.66718326  0.33543906  0.65365258  1
  O2-  O509  1  0.65859162  0.32572922  0.97075060  1
  O2-  O510  1  0.64684837  0.57180988  0.32328666  1
  O2-  O511  1  0.66411829  0.58053410  0.63956905  1
  O2-  O512  1  0.63220019  0.53577372  0.94525780  1
  O2-  O513  1  0.68675026  0.85853350  0.32384022  1
  O2-  O514  1  0.65646765  0.83401123  0.64335933  1
  O2-  O515  1  0.66777558  0.83156900  0.99535703  1
  O2-  O516  1  0.93462796  0.10435529  0.31047323  1
  O2-  O517  1  0.92343580  0.08573949  0.64279922  1
  O2-  O518  1  0.91765091  0.08913661  0.98011036  1
  O2-  O519  1  0.92921940  0.25529352  0.32427214  1
  O2-  O520  1  0.94350666  0.36785791  0.63032367  1
  O2-  O521  1  0.91382265  0.33240234  0.97776158  1
  O2-  O522  1  0.92571413  0.63071585  0.30445822  1
  O2-  O523  1  0.92416007  0.58697612  0.64534488  1
  O2-  O524  1  0.89017889  0.57903045  0.98382635  1
  O2-  O525  1  0.91964738  0.84470320  0.30924580  1
  O2-  O526  1  0.91435312  0.81969955  0.65103866  1
  O2-  O527  1  0.90187904  0.83692318  0.97575097  1
  O2-  O528  1  0.08059331  0.16222270  0.01416130  1
  O2-  O529  1  0.09272581  0.16295809  0.35839426  1
  O2-  O530  1  0.08693228  0.16516951  0.68805859  1
  O2-  O531  1  0.08527141  0.41151653  0.01173693  1
  O2-  O532  1  0.08939191  0.39562008  0.35328617  1
  O2-  O533  1  0.09029589  0.42211787  0.68183667  1
  O2-  O534  1  0.07011691  0.66322484  0.01297530  1
  O2-  O535  1  0.09067310  0.65440347  0.35494381  1
  O2-  O536  1  0.08833762  0.67173764  0.68228457  1
  O2-  O537  1  0.07506146  0.90665495  0.01861642  1
  O2-  O538  1  0.07761120  0.89743754  0.36558996  1
  O2-  O539  1  0.08611084  0.91670721  0.69102750  1
  O2-  O540  1  0.32040297  0.15016645  0.01348257  1
  O2-  O541  1  0.34107915  0.16417130  0.36072810  1
  O2-  O542  1  0.33380262  0.16534180  0.68865373  1
  O2-  O543  1  0.37075166  0.44641893  0.02985755  1
  O2-  O544  1  0.33983017  0.41305705  0.35629280  1
  O2-  O545  1  0.33360308  0.41421009  0.68474990  1
  O2-  O546  1  0.29628915  0.67883020  0.03896995  1
  O2-  O547  1  0.33514506  0.66778492  0.35737239  1
  O2-  O548  1  0.33553072  0.66504762  0.68148482  1
  O2-  O549  1  0.32538720  0.91155351  0.02693684  1
  O2-  O550  1  0.33304021  0.91255818  0.35654898  1
  O2-  O551  1  0.33157068  0.91578282  0.68613522  1
  O2-  O552  1  0.58390529  0.16825386  0.00878617  1
  O2-  O553  1  0.60962097  0.16058490  0.33460013  1
  O2-  O554  1  0.58127461  0.16647947  0.69329577  1
  O2-  O555  1  0.56932823  0.39440005  0.01765893  1
  O2-  O556  1  0.58456972  0.40964167  0.36141958  1
  O2-  O557  1  0.58059147  0.41843492  0.68767981  1
  O2-  O558  1  0.66226226  0.70374708  0.05636929  1
  O2-  O559  1  0.58287975  0.67674561  0.31359582  1
  O2-  O560  1  0.58586498  0.66951764  0.68427328  1
  O2-  O561  1  0.58853518  0.92000368  0.03339762  1
  O2-  O562  1  0.58549447  0.92735571  0.34494067  1
  O2-  O563  1  0.57500561  0.91152718  0.69095551  1
  O2-  O564  1  0.82922248  0.16744426  0.02246011  1
  O2-  O565  1  0.75878570  0.15372534  0.37835403  1
  O2-  O566  1  0.88629335  0.20418741  0.70508788  1
  O2-  O567  1  0.82691526  0.41214425  0.01253552  1
  O2-  O568  1  0.82699175  0.36227582  0.35887136  1
  O2-  O569  1  0.83667149  0.42561220  0.68687448  1
  O2-  O570  1  0.78828805  0.66130997  -0.00340936  1
  O2-  O571  1  0.78399137  0.69841062  0.37055167  1
  O2-  O572  1  0.83673704  0.65481939  0.68366929  1
  O2-  O573  1  0.84077405  0.92903140  0.02115109  1
  O2-  O574  1  0.84654867  0.94499196  0.36388171  1
  O2-  O575  1  0.82273624  0.93759529  0.68680150  1
