# generated using pymatgen
data_H2O
_symmetry_space_group_name_H-M   'P 1'
_cell_length_a   17.97911410
_cell_length_b   17.98707142
_cell_length_c   22.01091559
_cell_angle_alpha   90.04706689
_cell_angle_beta   89.99748716
_cell_angle_gamma   119.98889811
_symmetry_Int_Tables_number   1
_chemical_formula_structural   H2O
_chemical_formula_sum   'H384 O192'
_cell_volume   6165.18163149
_cell_formula_units_Z   192
loop_
 _symmetry_equiv_pos_site_id
 _symmetry_equiv_pos_as_xyz
  1  'x, y, z'
loop_
 _atom_type_symbol
 _atom_type_oxidation_number
  H+  1.0
  O2-  -2.0
loop_
 _atom_site_type_symbol
 _atom_site_label
 _atom_site_symmetry_multiplicity
 _atom_site_fract_x
 _atom_site_fract_y
 _atom_site_fract_z
 _atom_site_occupancy
  H+  H0  1  0.15088194  0.61082318  0.65965232  1
  H+  H1  1  0.37204160  -0.02550461  0.33498300  1
  H+  H2  1  0.61854775  0.63891468  0.49492846  1
  H+  H3  1  0.87433327  0.63763700  0.32844491  1
  H+  H4  1  0.59764348  0.03245807  0.44325957  1
  H+  H5  1  0.35120996  0.73684974  0.48622232  1
  H+  H6  1  0.02337780  0.27474730  0.07438247  1
  H+  H7  1  0.61014817  0.71268961  0.82418147  1
  H+  H8  1  0.90179757  0.86770914  0.51363089  1
  H+  H9  1  0.86950764  0.09372291  0.17735210  1
  H+  H10  1  0.89434327  0.87512376  0.98459785  1
  H+  H11  1  0.58121594  0.91900058  0.91426798  1
  H+  H12  1  0.23546534  0.85347809  0.17343620  1
  H+  H13  1  0.11394266  0.47366484  0.16861344  1
  H+  H14  1  0.38839753  0.10798033  0.51753215  1
  H+  H15  1  0.70341329  0.83523307  0.13701428  1
  H+  H16  1  0.60382425  1.00865705  0.46893907  1
  H+  H17  1  0.52996609  0.39013860  0.16374382  1
  H+  H18  1  0.83215476  0.19974960  0.67969675  1
  H+  H19  1  0.60359975  0.38305735  0.50823322  1
  H+  H20  1  0.22803611  0.36045992  0.65746150  1
  H+  H21  1  0.17502476  0.33519899  0.27389901  1
  H+  H22  1  0.18886310  0.72982380  0.69253142  1
  H+  H23  1  0.57695163  0.61932181  0.10661636  1
  H+  H24  1  0.88440841  0.02710406  0.98689150  1
  H+  H25  1  -0.03182537  0.85413426  0.84013180  1
  H+  H26  1  0.76613120  0.11184789  0.17092736  1
  H+  H27  1  0.59909419  0.45491519  0.67491210  1
  H+  H28  1  -0.02859546  0.35357155  0.19171100  1
  H+  H29  1  0.37038407  0.63281317  1.01132411  1
  H+  H30  1  0.22022593  0.10559654  0.66474164  1
  H+  H31  1  0.62957567  0.01884142  0.99038054  1
  H+  H32  1  0.21167479  0.36598595  0.84897028  1
  H+  H33  1  0.08076274  0.91559015  0.76877290  1
  H+  H34  1  0.85594795  0.47563716  0.48156288  1
  H+  H35  1  0.86897109  0.21920846  0.47565406  1
  H+  H36  1  0.12741480  0.23540194  0.83021244  1
  H+  H37  1  0.88190318  0.26309556  0.98940726  1
  H+  H38  1  0.65667062  0.38887118  0.99056078  1
  H+  H39  1  0.85562637  0.74707925  0.35077882  1
  H+  H40  1  0.61762412  0.91971688  0.56669049  1
  H+  H41  1  0.34950016  0.95958228  0.66733077  1
  H+  H42  1  0.87227978  0.89873854  0.34290519  1
  H+  H43  1  0.87096676  0.64083318  0.23226015  1
  H+  H44  1  0.63545250  0.52209710  0.49985318  1
  H+  H45  1  0.12880456  0.53450720  1.03039360  1
  H+  H46  1  0.39465501  0.27222459  0.17698282  1
  H+  H47  1  0.76147639  0.36279208  0.33369111  1
  H+  H48  1  0.47643341  0.85205592  0.32317852  1
  H+  H49  1  0.12814747  0.78351365  0.64367423  1
  H+  H50  1  0.38265987  0.76907923  0.31991004  1
  H+  H51  1  0.86554500  0.64169920  0.67999958  1
  H+  H52  1  0.86642337  0.72950621  0.67274698  1
  H+  H53  1  0.60060991  0.87453960  -0.00949000  1
  H+  H54  1  0.14773100  0.86668870  -0.01625333  1
  H+  H55  1  0.63832434  0.48565475  0.35234352  1
  H+  H56  1  0.58365853  0.35837068  0.67171636  1
  H+  H57  1  0.39039198  0.35980527  0.17688510  1
  H+  H58  1  0.03331625  0.87457266  0.17232263  1
  H+  H59  1  0.62287236  0.47503123  0.16821678  1
  H+  H60  1  0.14474577  0.77643913  0.99205079  1
  H+  H61  1  0.13927060  0.52189164  0.50442141  1
  H+  H62  1  0.85248813  0.95683702  0.16158066  1
  H+  H63  1  0.62786365  0.62318255  0.99461811  1
  H+  H64  1  0.38169844  0.01008635  0.99896121  1
  H+  H65  1  0.85589171  0.37384815  0.16184669  1
  H+  H66  1  0.48462984  0.60487221  0.51756711  1
  H+  H67  1  -0.02782982  0.35692056  0.33654744  1
  H+  H68  1  0.10837170  0.89264102  0.67233167  1
  H+  H69  1  0.14674065  0.61181108  0.16476232  1
  H+  H70  1  0.47892614  0.10667667  0.32490782  1
  H+  H71  1  0.17627465  0.83681204  0.26649550  1
  H+  H72  1  0.37221580  0.38573463  1.01082001  1
  H+  H73  1  0.85730597  0.72828975  0.99744118  1
  H+  H74  1  0.90531874  0.32031846  0.24637942  1
  H+  H75  1  0.33550357  0.49534429  0.82689807  1
  H+  H76  1  0.62739330  0.15645573  0.82668009  1
  H+  H77  1  0.48027430  0.35772898  0.32971854  1
  H+  H78  1  0.40551736  0.87554401  0.51454967  1
  H+  H79  1  0.03663725  0.68606022  0.02539265  1
  H+  H80  1  0.37045912  0.09123211  0.84615223  1
  H+  H81  1  0.61371106  0.83842157  0.49935945  1
  H+  H82  1  0.24031088  0.87484063  0.49986505  1
  H+  H83  1  0.97143884  0.37161892  0.84064702  1
  H+  H84  1  0.37327078  0.87249859  0.15791354  1
  H+  H85  1  0.40238662  0.53018450  1.00103189  1
  H+  H86  1  0.37527762  0.45753202  0.67888733  1
  H+  H87  1  0.63477704  0.35563301  0.16586482  1
  H+  H88  1  0.52695083  0.89010090  0.59024068  1
  H+  H89  1  0.79678867  0.66027450  0.50205113  1
  H+  H90  1  0.65644438  0.60660578  0.18520677  1
  H+  H91  1  0.48127920  0.11308146  0.51281004  1
  H+  H92  1  0.68176570  0.58946858  0.44819769  1
  H+  H93  1  0.71493599  0.87148380  0.82601790  1
  H+  H94  1  0.64399966  0.38749600  0.83932553  1
  H+  H95  1  0.23419738  0.11178398  -0.00095747  1
  H+  H96  1  0.15438771  0.07864493  0.57022237  1
  H+  H97  1  0.46188606  0.09682503  0.66714665  1
  H+  H98  1  0.11638691  0.88918667  0.34055673  1
  H+  H99  1  0.97617194  0.61731382  0.83232513  1
  H+  H100  1  0.60763925  0.48630563  0.00710032  1
  H+  H101  1  0.12679121  0.50701645  0.05676408  1
  H+  H102  1  0.35219150  0.11671263  0.67427194  1
  H+  H103  1  0.12221001  -0.03742376  0.16821736  1
  H+  H104  1  0.77609475  0.15472185  0.51066343  1
  H+  H105  1  0.11557228  0.89634845  0.48923907  1
  H+  H106  1  0.77134110  0.13111392  -0.00259581  1
  H+  H107  1  0.62756862  0.02071940  0.63354608  1
  H+  H108  1  0.65270939  0.29967749  0.83741457  1
  H+  H109  1  0.12913080  0.33457276  1.01304502  1
  H+  H110  1  0.91073985  0.31781529  0.41674552  1
  H+  H111  1  0.77446060  0.97308204  0.04455340  1
  H+  H112  1  0.11373911  0.72803584  0.51777416  1
  H+  H113  1  0.88935695  1.00793762  0.64549239  1
  H+  H114  1  0.12758996  0.01981161  0.66588355  1
  H+  H115  1  0.89341212  0.85853576  0.65474205  1
  H+  H116  1  0.10531299  0.72662605  0.32664147  1
  H+  H117  1  0.11415804  0.38685974  0.33772958  1
  H+  H118  1  0.63176224  -0.01061707  0.17112333  1
  H+  H119  1  0.37140737  0.13254590  0.16150042  1
  H+  H120  1  0.71810481  0.59483901  0.66402297  1
  H+  H121  1  0.37700625  0.35652483  0.51885528  1
  H+  H122  1  0.47911468  0.83958232  0.50429214  1
  H+  H123  1  0.97473645  0.10083172  0.64830580  1
  H+  H124  1  0.95697581  0.63339870  0.30835694  1
  H+  H125  1  0.96104800  0.10373454  0.17298390  1
  H+  H126  1  0.27187900  0.38612647  0.49792071  1
  H+  H127  1  0.52002521  0.63848146  0.67482529  1
  H+  H128  1  0.85256533  1.00745294  0.81079021  1
  H+  H129  1  0.21678664  0.86817527  0.65372304  1
  H+  H130  1  0.41030499  1.07029900  0.60373788  1
  H+  H131  1  0.11431284  0.64130837  0.82231900  1
  H+  H132  1  0.61231740  0.83310579  0.13020866  1
  H+  H133  1  0.89207233  0.75968420  0.19012510  1
  H+  H134  1  0.00078918  0.32997020  0.02730006  1
  H+  H135  1  0.37927160  0.98031250  0.49246931  1
  H+  H136  1  -0.01718731  0.10636694  -0.00990121  1
  H+  H137  1  0.23601558  0.60893092  0.65747250  1
  H+  H138  1  0.74490730  0.60405342  0.19635771  1
  H+  H139  1  0.23576700  0.61018432  0.17239763  1
  H+  H140  1  0.39105046  0.77172873  0.84669665  1
  H+  H141  1  0.87788933  1.02122734  0.50084664  1
  H+  H142  1  0.39213784  0.61312108  0.17950104  1
  H+  H143  1  0.47613043  0.60309782  0.84464393  1
  H+  H144  1  0.74700104  0.89298814  0.00151289  1
  H+  H145  1  0.89562065  0.61804005  0.48210557  1
  H+  H146  1  0.40107422  0.27441926  0.84673496  1
  H+  H147  1  0.86748918  1.00816914  0.32591343  1
  H+  H148  1  0.47660250  0.60218536  0.17978608  1
  H+  H149  1  0.18739811  0.45504837  0.79855198  1
  H+  H150  1  0.61744097  0.72862328  0.49786471  1
  H+  H151  1  0.23219258  0.36685743  0.33460096  1
  H+  H152  1  0.87795128  0.76729389  0.84224300  1
  H+  H153  1  0.72863769  0.62547914  0.34277315  1
  H+  H154  1  1.01670221  0.88576511  0.67281787  1
  H+  H155  1  0.28608027  0.64308736  0.01076469  1
  H+  H156  1  0.11359523  0.64045891  0.52430168  1
  H+  H157  1  0.37252484  0.64001372  0.83724083  1
  H+  H158  1  0.73755917  0.11101979  0.31937689  1
  H+  H159  1  0.64327895  0.85962636  0.34151352  1
  H+  H160  1  0.59775643  0.96006433  0.34401607  1
  H+  H161  1  0.28684835  0.64536820  0.83009447  1
  H+  H162  1  0.85392455  0.20374018  0.17570676  1
  H+  H163  1  0.37154349  0.88099466  0.00486649  1
  H+  H164  1  0.38204708  0.69817198  0.64051664  1
  H+  H165  1  0.33021920  0.86057911  0.66377994  1
  H+  H166  1  0.36937838  0.22424960  0.00787092  1
  H+  H167  1  0.35605147  0.87058364  0.82637791  1
  H+  H168  1  0.11121574  0.88288804  0.82695143  1
  H+  H169  1  0.95267357  0.44550422  0.70942478  1
  H+  H170  1  0.62857910  0.84263777  0.64643585  1
  H+  H171  1  0.63089346  0.76160836  0.98617228  1
  H+  H172  1  0.62676549  0.85872583  0.85007434  1
  H+  H173  1  0.10723075  0.13567318  0.49893630  1
  H+  H174  1  0.11995138  -0.02882941  0.99901330  1
  H+  H175  1  0.58954483  0.12502577  0.67242596  1
  H+  H176  1  0.36975920  0.38921476  0.34610517  1
  H+  H177  1  0.78349215  0.39401586  0.00331937  1
  H+  H178  1  0.12860977  0.02287591  0.50838160  1
  H+  H179  1  0.28479358  0.38774957  0.01446348  1
  H+  H180  1  0.46593344  0.34721612  0.67362580  1
  H+  H181  1  0.52994801  0.26188030  0.61537859  1
  H+  H182  1  0.58236602  0.41605684  0.78048812  1
  H+  H183  1  0.87275286  0.14560541  0.83407280  1
  H+  H184  1  -0.01796703  0.87209952  0.33065403  1
  H+  H185  1  0.77405556  0.39606765  0.82703553  1
  H+  H186  1  0.50349754  0.87439513  0.98923980  1
  H+  H187  1  0.60600270  0.62972564  0.35079364  1
  H+  H188  1  0.14843444  0.54043215  0.84478985  1
  H+  H189  1  0.35453281  0.63345230  0.33901325  1
  H+  H190  1  0.84889910  0.09360709  0.31341459  1
  H+  H191  1  0.60253097  0.11457426  0.34664478  1
  H+  H192  1  0.93314639  0.08627002  0.89539865  1
  H+  H193  1  0.14273467  0.11445324  0.32692645  1
  H+  H194  1  0.09162598  0.23593461  0.15583475  1
  H+  H195  1  0.26862124  0.64427425  0.48770410  1
  H+  H196  1  0.98315123  0.62573483  0.65175659  1
  H+  H197  1  0.71552297  0.60398404  0.84228844  1
  H+  H198  1  0.63013451  0.59237508  0.66062146  1
  H+  H199  1  0.37707093  0.79967273  0.58804366  1
  H+  H200  1  0.36518817  0.47317707  0.16747491  1
  H+  H201  1  0.77529977  0.88599421  0.34790163  1
  H+  H202  1  0.36566973  0.13233776  0.00836636  1
  H+  H203  1  0.09313508  0.47803852  0.67653835  1
  H+  H204  1  0.14320379  0.36602683  0.18534344  1
  H+  H205  1  0.09409071  0.63404528  0.32139880  1
  H+  H206  1  0.86629181  0.42564438  0.74301815  1
  H+  H207  1  0.86322652  0.63926947  0.83141148  1
  H+  H208  1  0.13381034  0.10035726  0.84928425  1
  H+  H209  1  0.98947985  0.11309396  0.83403942  1
  H+  H210  1  0.88796831  0.75540103  0.50339077  1
  H+  H211  1  0.10981421  0.47443815  0.33310615  1
  H+  H212  1  0.23336142  0.86691893  0.32696547  1
  H+  H213  1  0.23126950  0.10310040  0.17291086  1
  H+  H214  1  0.89745349  1.06454120  0.25755611  1
  H+  H215  1  0.91081691  0.07766642  0.56278177  1
  H+  H216  1  0.27143588  0.12791722  0.51259688  1
  H+  H217  1  0.13841494  1.02319028  0.32692484  1
  H+  H218  1  0.61066484  0.20915498  0.33941997  1
  H+  H219  1  0.10225687  0.67171840  0.09300528  1
  H+  H220  1  0.57801957  0.03390445  0.28659672  1
  H+  H221  1  0.62573095  0.50783215  0.84116765  1
  H+  H222  1  0.12206504  0.22722293  0.34334626  1
  H+  H223  1  0.86238541  0.13404127  -0.01078634  1
  H+  H224  1  0.64394142  0.77123722  0.34601784  1
  H+  H225  1  0.37118073  0.57609633  0.66465381  1
  H+  H226  1  0.11049874  0.13418264  0.67042580  1
  H+  H227  1  0.13736646  0.27626958  0.65496899  1
  H+  H228  1  0.01870488  0.13698603  0.49365334  1
  H+  H229  1  0.58622347  0.42595325  0.06570241  1
  H+  H230  1  0.16488883  0.82729000  0.89737059  1
  H+  H231  1  0.87775738  0.35340252  0.33942945  1
  H+  H232  1  0.70914767  0.36077485  0.51811153  1
  H+  H233  1  0.50275363  0.86192455  0.14893471  1
  H+  H234  1  0.86247611  0.22926408  0.83484436  1
  H+  H235  1  0.22982809  0.36075651  0.17861973  1
  H+  H236  1  0.37514745  0.73078164  0.16405907  1
  H+  H237  1  -0.02288192  0.35518933  0.47121913  1
  H+  H238  1  1.03082671  0.88382592  0.99107958  1
  H+  H239  1  0.63472048  0.02654580  0.85688373  1
  H+  H240  1  1.01328960  0.38219280  0.67333843  1
  H+  H241  1  0.57847785  0.20977961  0.66571652  1
  H+  H242  1  0.85992358  0.12317308  0.50069724  1
  H+  H243  1  0.91660218  0.50204932  -0.01795109  1
  H+  H244  1  0.38886657  0.00864492  0.16937145  1
  H+  H245  1  0.83519972  0.92136334  0.43608041  1
  H+  H246  1  0.11400177  0.38587997  0.48969943  1
  H+  H247  1  0.39331858  0.77742639  -0.00220252  1
  H+  H248  1  0.49050746  0.62591755  -0.00052467  1
  H+  H249  1  0.14445540  0.85248788  0.17601336  1
  H+  H250  1  0.27158448  0.12820623  0.83105500  1
  H+  H251  1  0.77247975  0.89093060  0.49361356  1
  H+  H252  1  0.12715439  0.72080203  0.15826647  1
  H+  H253  1  0.98535634  0.60826011  0.13661996  1
  H+  H254  1  0.72740466  0.11275656  0.84841578  1
  H+  H255  1  0.47786855  0.36221830  0.99661184  1
  H+  H256  1  0.61028396  0.62228664  0.82716604  1
  H+  H257  1  0.72090573  0.34920428  0.16488399  1
  H+  H258  1  0.57591502  0.66096435  0.40955157  1
  H+  H259  1  0.11804629  0.21297624  0.00954540  1
  H+  H260  1  0.60154187  0.21862507  0.14629015  1
  H+  H261  1  0.51298650  0.12602666  0.15108002  1
  H+  H262  1  0.86354616  0.37548156  1.00856662  1
  H+  H263  1  0.51541053  0.88549106  0.86034820  1
  H+  H264  1  0.13509495  0.27379449  0.50591032  1
  H+  H265  1  0.21773259  0.60793176  0.32198055  1
  H+  H266  1  0.50134941  0.11366919  1.00243287  1
  H+  H267  1  0.35755287  0.36420744  0.68795586  1
  H+  H268  1  0.24572366  0.72024408  0.95857203  1
  H+  H269  1  0.85042962  0.38365360  0.48240364  1
  H+  H270  1  0.77239425  0.87283688  0.66401403  1
  H+  H271  1  0.35456362  0.20768901  0.67907775  1
  H+  H272  1  0.82967654  0.39961817  0.09815519  1
  H+  H273  1  0.86757100  0.48230781  0.82924335  1
  H+  H274  1  0.60804560  0.70067271  0.14695068  1
  H+  H275  1  0.09905616  0.43247945  0.76569891  1
  H+  H276  1  0.60583838  0.23080728  0.49477361  1
  H+  H277  1  0.11563585  0.12321031  0.01078485  1
  H+  H278  1  0.47238385  0.61144570  0.33556447  1
  H+  H279  1  0.37073377  0.88468268  0.33544514  1
  H+  H280  1  0.87489670  0.34546958  0.65784113  1
  H+  H281  1  0.22062148  0.85284893  0.83619893  1
  H+  H282  1  0.89461546  0.52246969  0.13556872  1
  H+  H283  1  0.88324894  0.84283211  0.17418326  1
  H+  H284  1  0.59924625  0.11952481  0.00576237  1
  H+  H285  1  0.00856864  0.58752507  -0.02027113  1
  H+  H286  1  1.02085835  0.88789510  0.49721393  1
  H+  H287  1  0.66784825  0.16408284  0.51515741  1
  H+  H288  1  0.08388057  0.91818992  0.40015748  1
  H+  H289  1  0.97600203  0.60886164  0.49863669  1
  H+  H290  1  0.63024086  0.31355310  0.57337201  1
  H+  H291  1  0.33970742  0.90603615  0.10134184  1
  H+  H292  1  0.17334465  0.07864517  0.93976560  1
  H+  H293  1  0.32273574  0.67060660  0.39302272  1
  H+  H294  1  0.65016370  0.58459929  0.93499706  1
  H+  H295  1  0.91414528  0.83678334  0.92484266  1
  H+  H296  1  0.65935820  0.82434012  0.56199032  1
  H+  H297  1  0.16612483  0.33607043  0.56423991  1
  H+  H298  1  0.16368340  0.57635040  0.26078912  1
  H+  H299  1  0.58270887  0.16533062  0.43766077  1
  H+  H300  1  0.40269668  0.06499988  0.93649787  1
  H+  H301  1  0.49015384  0.36481689  0.84930079  1
  H+  H302  1  0.09006179  0.16590427  0.40022224  1
  H+  H303  1  0.30346237  0.43104332  0.76924204  1
  H+  H304  1  0.16555117  0.19247440  0.78705775  1
  H+  H305  1  0.07382339  0.16660497  0.72408851  1
  H+  H306  1  0.42151668  0.07182298  0.22769068  1
  H+  H307  1  0.36538035  0.21581574  0.32844351  1
  H+  H308  1  0.59204096  0.71172828  0.05601964  1
  H+  H309  1  0.56353486  0.88492121  0.39903977  1
  H+  H310  1  0.86608046  0.29314925  0.59773984  1
  H+  H311  1  0.63531421  0.85755608  0.23195670  1
  H+  H312  1  0.65660393  0.31360342  0.25491783  1
  H+  H313  1  0.11989533  0.34872882  0.84970535  1
  H+  H314  1  0.65918263  0.04022445  0.23461150  1
  H+  H315  1  0.76917092  0.64249418  -0.00212715  1
  H+  H316  1  0.58912451  0.17649278  0.76781934  1
  H+  H317  1  0.88226972  0.37072212  0.84275470  1
  H+  H318  1  0.83058141  0.19811226  0.32750811  1
  H+  H319  1  0.28122709  0.88245964  0.00435062  1
  H+  H320  1  0.52291901  0.85309981  0.73072772  1
  H+  H321  1  0.66363572  0.08972826  0.93781842  1
  H+  H322  1  0.39476957  0.51370969  0.51887942  1
  H+  H323  1  0.32405560  0.89760748  0.76509421  1
  H+  H324  1  0.78094171  0.99865135  0.76607507  1
  H+  H325  1  0.83481594  0.66947120  0.77133795  1
  H+  H326  1  0.06339419  0.17295953  0.09808261  1
  H+  H327  1  0.34396166  0.16752546  0.10404435  1
  H+  H328  1  0.70484052  0.10183626  0.66871267  1
  H+  H329  1  0.69075940  0.13389792  0.57841288  1
  H+  H330  1  0.32834749  0.15169539  0.77093103  1
  H+  H331  1  0.07106025  0.39363292  0.12122330  1
  H+  H332  1  0.36767357  0.47750024  0.34665863  1
  H+  H333  1  0.49224865  0.86966744  0.73495688  1
  H+  H334  1  0.41951159  0.32936904  0.93660189  1
  H+  H335  1  0.56487758  0.90381040  0.08704680  1
  H+  H336  1  0.40873812  0.82901287  0.90942779  1
  H+  H337  1  0.57835219  0.65430315  0.73402476  1
  H+  H338  1  0.27663556  0.12774399  0.32585283  1
  H+  H339  1  0.66928179  0.82483323  0.92507932  1
  H+  H340  1  0.17612063  0.85428251  0.55566491  1
  H+  H341  1  0.09142768  0.42069314  0.42879275  1
  H+  H342  1  0.10995798  0.72782481  0.82149893  1
  H+  H343  1  0.91056471  0.53524657  0.67396320  1
  H+  H344  1  0.33663183  0.41593742  0.44141738  1
  H+  H345  1  0.36551295  0.99968676  0.84524419  1
  H+  H346  1  0.42525855  0.33694431  0.26890082  1
  H+  H347  1  0.59473436  0.81537906  0.23540454  1
  H+  H348  1  0.92372388  0.33681180  0.93900675  1
  H+  H349  1  0.82766207  0.90775300  0.09937151  1
  H+  H350  1  0.13219920  0.01060429  0.84407115  1
  H+  H351  1  0.83629640  0.69314366  0.41433788  1
  H+  H352  1  0.35913659  0.21662844  0.51775465  1
  H+  H353  1  0.41944747  0.59720262  0.59882679  1
  H+  H354  1  0.38943976  0.10665505  0.31633849  1
  H+  H355  1  0.91957140  0.83990450  0.27223956  1
  H+  H356  1  0.17903937  0.61584363  0.89674714  1
  H+  H357  1  0.41605973  0.58005145  0.27442619  1
  H+  H358  1  0.62971358  0.34423888  0.31511311  1
  H+  H359  1  0.42586766  0.82977216  0.21898132  1
  H+  H360  1  0.82986296  0.92212093  0.72056504  1
  H+  H361  1  0.34187007  0.66008681  0.10958365  1
  H+  H362  1  0.16390571  0.32628335  0.94766869  1
  H+  H363  1  0.46719880  0.36005051  0.52328870  1
  H+  H364  1  0.50399976  0.77630265  0.45536414  1
  H+  H365  1  0.87725422  0.62917528  0.16197351  1
  H+  H366  1  0.10642771  0.67574529  0.73185582  1
  H+  H367  1  0.16991153  0.07635788  0.22966959  1
  H+  H368  1  0.93031105  0.83540784  0.59325317  1
  H+  H369  1  0.42180517  0.58047219  0.90728401  1
  H+  H370  1  0.67185519  0.58074742  0.28271387  1
  H+  H371  1  0.68781995  0.36433983  0.92998080  1
  H+  H372  1  0.17476157  0.57416264  0.56626680  1
  H+  H373  1  0.81114084  0.40044501  0.39663578  1
  H+  H374  1  0.34063991  0.41588501  0.10683401  1
  H+  H375  1  0.80816184  0.15569156  0.74447035  1
  H+  H376  1  0.66782741  0.42890167  0.38846919  1
  H+  H377  1  0.56516333  0.15221183  0.07001079  1
  H+  H378  1  0.35223207  0.92110615  0.43187685  1
  H+  H379  1  0.63160150  0.75595637  0.66028007  1
  H+  H380  1  0.56939776  0.41073929  0.45053559  1
  H+  H381  1  0.93191535  0.57705722  0.89531797  1
  H+  H382  1  0.15283377  0.66478273  0.98621401  1
  H+  H383  1  0.40259736  0.31892035  0.61519676  1
  O2-  O384  1  0.04142122  0.19304153  0.13201409  1
  O2-  O385  1  0.08054390  0.16898558  0.48234016  1
  O2-  O386  1  0.11232409  0.18012028  0.80745203  1
  O2-  O387  1  0.07975232  0.40907169  0.16502744  1
  O2-  O388  1  0.08464752  0.41716819  0.47419610  1
  O2-  O389  1  0.12687282  0.44031330  0.80635244  1
  O2-  O390  1  0.10066846  0.66243064  0.13904525  1
  O2-  O391  1  0.07948979  0.66861943  0.53301083  1
  O2-  O392  1  0.08311309  0.66860020  0.80298920  1
  O2-  O393  1  0.09338304  0.89981321  0.15867481  1
  O2-  O394  1  0.08172103  0.92403932  0.47735076  1
  O2-  O395  1  0.08166082  0.91511992  0.81434855  1
  O2-  O396  1  0.34618686  0.16891703  0.14943666  1
  O2-  O397  1  0.33448218  0.15536840  0.50683066  1
  O2-  O398  1  0.33167544  0.15691748  0.81612812  1
  O2-  O399  1  0.33669642  0.41247954  0.15235594  1
  O2-  O400  1  0.33426080  0.41353026  0.48686264  1
  O2-  O401  1  0.28338096  0.44827054  0.80573638  1
  O2-  O402  1  0.34310821  0.66334722  0.15486403  1
  O2-  O403  1  0.32493343  0.68022042  0.46697187  1
  O2-  O404  1  0.34851318  0.67447821  0.81945515  1
  O2-  O405  1  0.34148541  0.90580561  0.14668079  1
  O2-  O406  1  0.35161698  0.91956171  0.47748831  1
  O2-  O407  1  0.32171204  0.89658463  0.81010180  1
  O2-  O408  1  0.57019778  0.15887284  0.12980694  1
  O2-  O409  1  0.58467758  0.16926789  0.48328203  1
  O2-  O410  1  0.60983387  0.19601418  0.80978966  1
  O2-  O411  1  0.58975785  0.41811670  0.14756463  1
  O2-  O412  1  0.57222755  0.41544068  0.49516184  1
  O2-  O413  1  0.58804345  0.42088658  0.82504328  1
  O2-  O414  1  0.58344218  0.63608270  0.14968032  1
  O2-  O415  1  0.58345470  0.66669901  0.48522320  1
  O2-  O416  1  0.57806008  0.65224548  0.81040949  1
  O2-  O417  1  0.56794051  0.89223192  0.13038046  1
  O2-  O418  1  0.53520709  0.83529781  0.47023734  1
  O2-  O419  1  0.57999511  0.91799751  0.86887141  1
  O2-  O420  1  0.82855363  0.14512879  0.15907504  1
  O2-  O421  1  0.82761495  0.15577849  0.48416714  1
  O2-  O422  1  0.83392991  0.16767151  0.82251458  1
  O2-  O423  1  0.82452227  0.40076627  0.14383763  1
  O2-  O424  1  0.81517822  0.41109685  0.47792465  1
  O2-  O425  1  0.83832993  0.42099286  0.81503729  1
  O2-  O426  1  0.85113729  0.65273715  0.19205831  1
  O2-  O427  1  0.85381751  0.69157571  0.48335239  1
  O2-  O428  1  0.83042992  0.66703545  0.81671680  1
  O2-  O429  1  0.82523854  0.89785872  0.14363201  1
  O2-  O430  1  0.83406153  0.92267818  0.48147759  1
  O2-  O431  1  0.80337364  0.96492619  0.78525779  1
  O2-  O432  1  0.17009141  0.07012243  0.18471930  1
  O2-  O433  1  0.15789949  0.08327165  0.52512006  1
  O2-  O434  1  0.16493942  0.07087812  0.86168529  1
  O2-  O435  1  0.17072080  0.33121018  0.19621619  1
  O2-  O436  1  0.16609427  0.33578088  0.51847038  1
  O2-  O437  1  0.15352823  0.32276271  0.86551656  1
  O2-  O438  1  0.17297651  0.57826855  0.18309830  1
  O2-  O439  1  0.17170238  0.58098238  0.52174319  1
  O2-  O440  1  0.17388203  0.60274326  0.85192940  1
  O2-  O441  1  0.17584502  0.82144955  0.19020861  1
  O2-  O442  1  0.17844966  0.84940373  0.51082710  1
  O2-  O443  1  0.15988861  0.82624746  0.85136090  1
  O2-  O444  1  0.41790699  0.07100105  0.18212742  1
  O2-  O445  1  0.42107057  0.07701580  0.52789089  1
  O2-  O446  1  0.39193709  0.05603252  0.86608799  1
  O2-  O447  1  0.42392259  0.33301089  0.19246724  1
  O2-  O448  1  0.40664935  0.32775821  0.53799621  1
  O2-  O449  1  0.42796999  0.33227270  0.86456767  1
  O2-  O450  1  0.41718321  0.57723542  0.19581951  1
  O2-  O451  1  0.42758959  0.57177977  0.53762470  1
  O2-  O452  1  0.41683066  0.57834131  0.86165890  1
  O2-  O453  1  0.42036390  0.82350792  0.17444037  1
  O2-  O454  1  0.43028179  0.84389924  0.53636605  1
  O2-  O455  1  0.41263913  0.83217190  0.86198674  1
  O2-  O456  1  0.66724809  0.04682058  0.19029067  1
  O2-  O457  1  0.71661568  0.16825537  0.54018471  1
  O2-  O458  1  0.66756094  0.09029181  0.86300352  1
  O2-  O459  1  0.65922551  0.31897293  0.17912836  1
  O2-  O460  1  0.64655793  0.32982304  0.52555057  1
  O2-  O461  1  0.68384258  0.36075020  0.85113499  1
  O2-  O462  1  0.68106825  0.57453895  0.20567199  1
  O2-  O463  1  0.67189359  0.58567929  0.49190361  1
  O2-  O464  1  0.65444282  0.57523403  0.85480137  1
  O2-  O465  1  0.64241353  0.79814429  0.12623886  1
  O2-  O466  1  0.66468068  0.83341816  0.51723794  1
  O2-  O467  1  0.66135458  0.82905928  0.84633797  1
  O2-  O468  1  0.90324952  0.06281024  0.19010717  1
  O2-  O469  1  0.90725086  0.08298387  0.51621188  1
  O2-  O470  1  0.93121291  0.09129851  0.84955574  1
  O2-  O471  1  0.90887676  0.32100644  0.20153784  1
  O2-  O472  1  0.91376333  0.31921265  0.46192041  1
  O2-  O473  1  0.91324225  0.33861736  0.85655306  1
  O2-  O474  1  0.92373000  0.58432007  0.12643113  1
  O2-  O475  1  0.91828616  0.57804016  0.47920713  1
  O2-  O476  1  0.91900392  0.58773136  0.85230985  1
  O2-  O477  1  0.91832954  0.82345040  0.19638724  1
  O2-  O478  1  0.93352991  0.83914989  0.52675825  1
  O2-  O479  1  0.90871424  0.82919840  0.85535327  1
  O2-  O480  1  0.17048312  0.08229921  0.30968314  1
  O2-  O481  1  0.15915787  0.08100118  0.65066539  1
  O2-  O482  1  0.17285369  0.08156991  0.98499942  1
  O2-  O483  1  0.17191219  0.33787357  0.31925045  1
  O2-  O484  1  0.16957309  0.33665321  0.64066089  1
  O2-  O485  1  0.17191824  0.32313086  0.99192022  1
  O2-  O486  1  0.15760348  0.57415001  0.30612321  1
  O2-  O487  1  0.17451148  0.57299796  0.64725878  1
  O2-  O488  1  0.20167826  0.66051441  0.96528088  1
  O2-  O489  1  0.17319101  0.84127865  0.31189712  1
  O2-  O490  1  0.15812947  0.84545158  0.63491208  1
  O2-  O491  1  0.17934912  0.83496646  0.97163802  1
  O2-  O492  1  0.42171770  0.07567674  0.30431869  1
  O2-  O493  1  0.40130775  0.06355307  0.64900996  1
  O2-  O494  1  0.40994978  0.07124655  0.98280324  1
  O2-  O495  1  0.42196905  0.33591922  0.31469619  1
  O2-  O496  1  0.40239710  0.31401741  0.66061416  1
  O2-  O497  1  0.41639063  0.32855668  0.98314022  1
  O2-  O498  1  0.41204074  0.57929836  0.31986304  1
  O2-  O499  1  0.41878705  0.62155589  0.64217052  1
  O2-  O500  1  0.42670690  0.58870420  0.98377086  1
  O2-  O501  1  0.41705306  0.83002809  0.30629981  1
  O2-  O502  1  0.33015004  0.77315539  0.62336589  1
  O2-  O503  1  0.41660070  0.83398072  0.97819501  1
  O2-  O504  1  0.62400039  0.04955692  0.31618974  1
  O2-  O505  1  0.65215578  0.08273263  0.64227018  1
  O2-  O506  1  0.65990209  0.08268096  0.98345237  1
  O2-  O507  1  0.65607819  0.31098231  0.30079202  1
  O2-  O508  1  0.58905038  0.28630600  0.62953634  1
  O2-  O509  1  0.69107062  0.36378279  0.97529436  1
  O2-  O510  1  0.66802635  0.58235777  0.32833201  1
  O2-  O511  1  0.65860587  0.55979474  0.64882589  1
  O2-  O512  1  0.65218805  0.58642245  0.98036523  1
  O2-  O513  1  0.68006826  0.83271181  0.33544176  1
  O2-  O514  1  0.66333012  0.81490712  0.64087164  1
  O2-  O515  1  0.66473896  0.82612662  0.97010206  1
  O2-  O516  1  0.88882705  0.06747330  0.30430036  1
  O2-  O517  1  0.91623778  0.06813840  0.63075761  1
  O2-  O518  1  0.92614539  0.08342780  0.96845468  1
  O2-  O519  1  0.90821891  0.31871354  0.33329474  1
  O2-  O520  1  0.88725474  0.30183703  0.63940463  1
  O2-  O521  1  0.92116040  0.32744370  0.98353713  1
  O2-  O522  1  0.89656125  0.61494765  0.29678264  1
  O2-  O523  1  0.92150033  0.59159699  0.65822032  1
  O2-  O524  1  0.96158547  0.54390451  0.95400855  1
  O2-  O525  1  0.92021998  0.84649908  0.31766015  1
  O2-  O526  1  0.92712191  0.83147491  0.64154280  1
  O2-  O527  1  0.92132330  0.84274733  0.97137893  1
  O2-  O528  1  0.08173423  0.15197288  0.02248161  1
  O2-  O529  1  0.09481614  0.16605701  0.35537489  1
  O2-  O530  1  0.07829721  0.16576858  0.67962430  1
  O2-  O531  1  0.04690148  0.33070131  0.05367591  1
  O2-  O532  1  0.08088180  0.41495934  0.35157158  1
  O2-  O533  1  0.04604799  0.43117870  0.70066359  1
  O2-  O534  1  0.08802083  0.68098399  0.02174184  1
  O2-  O535  1  0.06334831  0.66476648  0.33207252  1
  O2-  O536  1  0.12860374  0.68595083  0.68820969  1
  O2-  O537  1  0.09211406  0.90789998  0.00189740  1
  O2-  O538  1  0.08392873  0.91786130  0.35447991  1
  O2-  O539  1  0.07718705  0.91966123  0.69129492  1
  O2-  O540  1  0.33750968  0.16418088  0.02455594  1
  O2-  O541  1  0.33887844  0.15398678  0.33657844  1
  O2-  O542  1  0.32164304  0.14599271  0.69171357  1
  O2-  O543  1  0.34535170  0.41864171  0.02850853  1
  O2-  O544  1  0.33846772  0.41723586  0.36296717  1
  O2-  O545  1  0.33356138  0.40387448  0.69800715  1
  O2-  O546  1  0.34182867  0.66286710  0.03066557  1
  O2-  O547  1  0.32281955  0.66453858  0.34741324  1
  O2-  O548  1  0.34604490  0.71723931  0.66303802  1
  O2-  O549  1  0.34046418  0.91201594  0.02201210  1
  O2-  O550  1  0.34229278  0.91566722  0.35350968  1
  O2-  O551  1  0.31238867  0.89913845  0.68323865  1
  O2-  O552  1  0.56391103  0.14645976  0.01956720  1
  O2-  O553  1  0.57856847  0.15370645  0.36124825  1
  O2-  O554  1  0.55799782  0.15244482  0.68936721  1
  O2-  O555  1  0.58253589  0.42487696  0.02075999  1
  O2-  O556  1  0.61752618  0.42546610  0.36879867  1
  O2-  O557  1  0.56366739  0.39600530  0.69230110  1
  O2-  O558  1  0.58234422  0.67946204  0.01806313  1
  O2-  O559  1  0.57513826  0.66014514  0.36381560  1
  O2-  O560  1  0.57963689  0.65789774  0.68817391  1
  O2-  O561  1  0.57419121  0.91129257  -0.00422195  1
  O2-  O562  1  0.57527746  0.89615881  0.35459851  1
  O2-  O563  1  0.58697690  0.91442112  0.60462421  1
  O2-  O564  1  0.83413566  0.16504241  0.00503099  1
  O2-  O565  1  0.79978206  0.13495486  0.32890562  1
  O2-  O566  1  0.79771287  0.14377133  0.70038734  1
  O2-  O567  1  0.84118465  0.41279460  0.02366042  1
  O2-  O568  1  0.81915786  0.39405103  0.35261097  1
  O2-  O569  1  0.89379966  0.43469528  0.70152368  1
  O2-  O570  1  0.83015954  0.66758348  0.00938947  1
  O2-  O571  1  0.82155273  0.68851605  0.36893639  1
  O2-  O572  1  0.83374553  0.67156881  0.69224380  1
  O2-  O573  1  0.79913545  0.94217320  0.02424357  1
  O2-  O574  1  0.83921337  0.92673023  0.35813575  1
  O2-  O575  1  0.83315384  0.90584105  0.67801656  1
