# generated using pymatgen
data_H2O
_symmetry_space_group_name_H-M   'P 1'
_cell_length_a   17.98391356
_cell_length_b   17.99254435
_cell_length_c   21.98139347
_cell_angle_alpha   90.01121838
_cell_angle_beta   89.99979388
_cell_angle_gamma   119.95787823
_symmetry_Int_Tables_number   1
_chemical_formula_structural   H2O
_chemical_formula_sum   'H384 O192'
_cell_volume   6162.35633912
_cell_formula_units_Z   192
loop_
 _symmetry_equiv_pos_site_id
 _symmetry_equiv_pos_as_xyz
  1  'x, y, z'
loop_
 _atom_type_symbol
 _atom_type_oxidation_number
  H+  1.0
  O2-  -2.0
loop_
 _atom_site_type_symbol
 _atom_site_label
 _atom_site_symmetry_multiplicity
 _atom_site_fract_x
 _atom_site_fract_y
 _atom_site_fract_z
 _atom_site_occupancy
  H+  H0  1  0.92097157  0.82781813  0.23179494  1
  H+  H1  1  0.62248527  0.40267285  0.16102656  1
  H+  H2  1  0.86688023  0.23889908  -0.00267011  1
  H+  H3  1  0.39494702  1.02892301  0.66798994  1
  H+  H4  1  0.11397978  0.88792691  0.49701185  1
  H+  H5  1  0.54141834  0.68392692  0.67944759  1
  H+  H6  1  0.66812395  0.59166855  0.91045667  1
  H+  H7  1  0.53337035  0.14108908  0.34428856  1
  H+  H8  1  0.40503792  0.02945354  0.32785586  1
  H+  H9  1  0.81959476  0.16393115  0.43095414  1
  H+  H10  1  0.18255064  0.44913361  0.46555843  1
  H+  H11  1  0.63558954  0.51449739  0.16462691  1
  H+  H12  1  0.71957320  0.10384989  0.17335351  1
  H+  H13  1  0.82674774  0.92127652  0.72831500  1
  H+  H14  1  0.62701626  0.61676172  0.49180196  1
  H+  H15  1  0.34982374  0.41694125  0.12432720  1
  H+  H16  1  0.51008165  0.65161495  0.47679790  1
  H+  H17  1  0.22164786  0.85934447  0.36239496  1
  H+  H18  1  0.37314924  0.23156746  0.01052620  1
  H+  H19  1  0.13992913  0.83013004  0.83644076  1
  H+  H20  1  0.84589398  -0.01676812  1.00195612  1
  H+  H21  1  0.02753364  0.88439280  0.16188274  1
  H+  H22  1  0.72844621  0.60885156  0.16004449  1
  H+  H23  1  0.22842807  0.87107681  0.50672323  1
  H+  H24  1  0.76133398  0.89269523  0.82061445  1
  H+  H25  1  0.54541739  0.65207449  0.15825440  1
  H+  H26  1  0.36678801  0.17276868  0.75120421  1
  H+  H27  1  0.00020526  0.36571806  0.83632357  1
  H+  H28  1  0.62767367  0.63827797  0.15663834  1
  H+  H29  1  0.38541544  0.34715057  0.84493721  1
  H+  H30  1  -0.04407667  0.84817314  0.65699276  1
  H+  H31  1  0.68192345  0.59153902  0.25452804  1
  H+  H32  1  0.89068896  0.28658414  0.17570511  1
  H+  H33  1  0.13312730  0.01632801  0.51956205  1
  H+  H34  1  0.19872682  0.17114128  0.66875532  1
  H+  H35  1  0.07090913  0.24733903  0.47816214  1
  H+  H36  1  0.42470092  0.47573283  0.52564650  1
  H+  H37  1  0.39741421  0.62315089  0.32911000  1
  H+  H38  1  0.15190150  0.00234529  0.84747512  1
  H+  H39  1  0.77446948  0.14090830  0.33272634  1
  H+  H40  1  0.38165486  0.48974039  0.34310618  1
  H+  H41  1  0.47974189  0.86493381  0.98752973  1
  H+  H42  1  0.87118657  0.48385203  0.17547730  1
  H+  H43  1  0.84960418  0.37849733  0.82304159  1
  H+  H44  1  0.46560361  0.35171529  0.62694516  1
  H+  H45  1  0.38946755  0.88557421  0.17564438  1
  H+  H46  1  0.36451050  0.90043441  0.49979732  1
  H+  H47  1  0.11995590  0.59770316  0.98496599  1
  H+  H48  1  0.63182447  0.86682320  0.82742627  1
  H+  H49  1  0.08475381  0.93690179  0.69579648  1
  H+  H50  1  0.99707431  0.89040437  1.01229133  1
  H+  H51  1  0.95155896  0.72487140  0.92487732  1
  H+  H52  1  0.89161689  0.77098299  0.49678608  1
  H+  H53  1  0.12363799  0.64478276  0.16296470  1
  H+  H54  1  0.25775182  0.12634808  0.49005780  1
  H+  H55  1  0.10492232  0.33438087  0.32035878  1
  H+  H56  1  0.40074749  0.02155811  0.17899189  1
  H+  H57  1  0.13753797  0.74745320  0.98572450  1
  H+  H58  1  0.40144417  0.87592829  0.83615381  1
  H+  H59  1  0.17798506  0.55772565  0.37440989  1
  H+  H60  1  0.23241069  0.11560926  0.16985605  1
  H+  H61  1  0.65466672  0.77712131  0.17129326  1
  H+  H62  1  0.98449369  0.12320328  0.32138382  1
  H+  H63  1  0.38464986  0.35474450  1.00008080  1
  H+  H64  1  0.86014571  0.39556193  0.02634031  1
  H+  H65  1  0.13944779  0.25780487  0.67317173  1
  H+  H66  1  0.61546891  -0.00389198  0.66174432  1
  H+  H67  1  0.32331344  0.42208456  0.51178082  1
  H+  H68  1  0.19773742  0.08545361  0.68002976  1
  H+  H69  1  0.10243489  0.13802180  0.00813870  1
  H+  H70  1  0.62499544  0.22772448  0.35080732  1
  H+  H71  1  0.34536840  0.35401022  0.65644611  1
  H+  H72  1  0.87829687  0.28131216  0.65832484  1
  H+  H73  1  0.77205045  0.63669563  0.48127678  1
  H+  H74  1  0.20922897  0.86311053  0.09096109  1
  H+  H75  1  0.61413821  0.12816765  0.66868797  1
  H+  H76  1  0.97039369  0.11983647  0.98978704  1
  H+  H77  1  0.36808161  0.13357849  0.16651437  1
  H+  H78  1  0.12027345  0.73091445  0.49491652  1
  H+  H79  1  0.11510224  0.97637333  0.15655731  1
  H+  H80  1  0.48018572  0.61690422  0.83913686  1
  H+  H81  1  0.61720555  0.72990477  0.00004684  1
  H+  H82  1  0.87531303  0.86296309  0.65371151  1
  H+  H83  1  0.28124020  0.88199465  0.82683386  1
  H+  H84  1  0.98541203  0.38002771  1.00593855  1
  H+  H85  1  0.16381859  0.52530266  0.47507940  1
  H+  H86  1  0.85087053  0.14071257  0.66455865  1
  H+  H87  1  0.55064972  0.40833161  0.34038297  1
  H+  H88  1  1.01332120  0.39305047  0.65732184  1
  H+  H89  1  0.89277247  0.10708775  0.16124491  1
  H+  H90  1  0.77978361  0.63541196  0.32608614  1
  H+  H91  1  0.27081034  0.36541624  0.82875710  1
  H+  H92  1  0.85777200  0.13208402  0.82177377  1
  H+  H93  1  0.60697169  0.38609022  0.01778323  1
  H+  H94  1  0.38816656  0.78211577  0.66131917  1
  H+  H95  1  0.22541440  0.61818181  0.66053423  1
  H+  H96  1  0.63279193  0.52980667  0.49349066  1
  H+  H97  1  0.10508862  0.36377522  0.63965723  1
  H+  H98  1  0.48425125  0.59659722  -0.00805205  1
  H+  H99  1  0.04963972  0.24289107  0.29239452  1
  H+  H100  1  0.61445261  0.13105439  0.16676064  1
  H+  H101  1  0.63382086  0.35784598  0.85427437  1
  H+  H102  1  0.61239646  0.97632455  0.00960069  1
  H+  H103  1  0.13677914  0.28212222  0.16209474  1
  H+  H104  1  0.11933015  0.39244986  0.16289931  1
  H+  H105  1  0.13086092  0.85741469  0.36238475  1
  H+  H106  1  0.63787926  0.52484810  0.99818187  1
  H+  H107  1  0.65763452  0.53644584  0.31682812  1
  H+  H108  1  0.89540396  0.37614381  0.18558156  1
  H+  H109  1  0.89154287  0.62841966  0.32344865  1
  H+  H110  1  0.77124381  0.73735342  0.87529035  1
  H+  H111  1  0.84372935  0.12371116  0.48626983  1
  H+  H112  1  0.84819271  0.47789532  1.03466528  1
  H+  H113  1  0.59716312  0.98693217  0.49859351  1
  H+  H114  1  0.36525998  0.97740873  0.83135929  1
  H+  H115  1  0.72615024  0.11626799  -0.01091446  1
  H+  H116  1  0.26914019  0.63837028  0.16049903  1
  H+  H117  1  0.87232222  0.15293530  0.33192254  1
  H+  H118  1  0.98647189  0.11819161  0.16576913  1
  H+  H119  1  0.07372098  0.27958846  0.59694038  1
  H+  H120  1  0.31771035  0.37083644  0.76566183  1
  H+  H121  1  0.27679700  0.37747017  1.01011489  1
  H+  H122  1  0.00289833  0.79156606  0.83644766  1
  H+  H123  1  0.61792451  0.60630512  0.64598943  1
  H+  H124  1  0.26528902  0.64044038  -0.00518957  1
  H+  H125  1  0.10676888  0.23017757  0.00490233  1
  H+  H126  1  0.59615695  0.47859072  0.65033467  1
  H+  H127  1  0.29874704  0.88531118  0.16200518  1
  H+  H128  1  0.03331996  0.62342578  0.81640227  1
  H+  H129  1  0.63657656  0.02322163  0.83400278  1
  H+  H130  1  0.36049853  0.67995476  0.40537164  1
  H+  H131  1  0.32910145  0.17517311  0.68226484  1
  H+  H132  1  0.10160246  0.25358645  0.45261277  1
  H+  H133  1  0.88460263  0.02468818  0.83476030  1
  H+  H134  1  0.46415656  0.87945607  0.50560594  1
  H+  H135  1  0.83687024  0.89488730  0.02408053  1
  H+  H136  1  0.10932140  0.10848565  0.33367998  1
  H+  H137  1  0.52929608  0.63444328  0.33364230  1
  H+  H138  1  0.88123831  0.76981188  0.32498473  1
  H+  H139  1  0.00651655  0.35039388  0.50177189  1
  H+  H140  1  0.14141333  0.60671117  0.82194366  1
  H+  H141  1  0.61126467  0.13163887  1.01025033  1
  H+  H142  1  0.52915203  0.89965413  0.66384369  1
  H+  H143  1  0.10842739  0.47746127  0.65556976  1
  H+  H144  1  0.94393419  0.07380778  0.49271517  1
  H+  H145  1  0.64546451  0.27236188  0.18523746  1
  H+  H146  1  0.79029911  0.88634470  0.15980952  1
  H+  H147  1  0.42311451  0.56922113  0.93430564  1
  H+  H148  1  0.27715127  0.89301791  0.67460162  1
  H+  H149  1  0.07562042  0.16111544  0.68575598  1
  H+  H150  1  0.92500054  0.65573407  0.87232778  1
  H+  H151  1  0.87000052  0.77176287  0.03422384  1
  H+  H152  1  0.77006311  0.89812818  0.66664485  1
  H+  H153  1  0.21909584  0.09246618  0.31790038  1
  H+  H154  1  -0.02947285  0.35880135  0.33208559  1
  H+  H155  1  0.08367154  0.45688115  0.84114626  1
  H+  H156  1  0.11625342  0.63822397  0.34426726  1
  H+  H157  1  0.47955081  0.10957478  0.84613104  1
  H+  H158  1  0.95092647  0.55216345  0.89705804  1
  H+  H159  1  0.10178509  0.46112168  0.32254591  1
  H+  H160  1  0.63522335  0.90022380  0.34718095  1
  H+  H161  1  0.61232480  0.22317651  0.82919148  1
  H+  H162  1  0.85495117  0.47456350  0.46296627  1
  H+  H163  1  0.82751450  0.37715703  0.47370444  1
  H+  H164  1  0.96824259  0.60564886  0.64630968  1
  H+  H165  1  0.83254939  -0.03381346  0.47534700  1
  H+  H166  1  0.83310084  0.25692000  0.50919900  1
  H+  H167  1  0.35116002  0.63918440  0.67096262  1
  H+  H168  1  0.97540618  0.11351985  0.83697701  1
  H+  H169  1  0.62933075  0.98505733  0.34323544  1
  H+  H170  1  0.33433222  0.72821216  0.13197427  1
  H+  H171  1  0.37347368  0.13548568  0.83765884  1
  H+  H172  1  0.68842251  0.84000047  0.22933762  1
  H+  H173  1  0.62383282  0.35782164  0.66588516  1
  H+  H174  1  0.95145683  0.10565252  0.63128156  1
  H+  H175  1  0.61821750  0.88671480  0.16222302  1
  H+  H176  1  0.39876408  0.62727700  0.84324150  1
  H+  H177  1  0.11220935  0.47463027  1.01002936  1
  H+  H178  1  0.14523617  0.86787261  0.13781667  1
  H+  H179  1  0.60939274  0.21969594  0.01411175  1
  H+  H180  1  0.12401101  0.71237264  0.81610800  1
  H+  H181  1  0.02224809  0.88443836  0.49721851  1
  H+  H182  1  0.86725443  0.14910499  -0.00155194  1
  H+  H183  1  0.41406508  0.28113478  0.18675817  1
  H+  H184  1  0.40721733  0.65614423  0.17241325  1
  H+  H185  1  0.52264479  0.38373208  0.84389775  1
  H+  H186  1  0.63543416  0.36770393  0.51155932  1
  H+  H187  1  0.66789737  0.08300643  0.26864572  1
  H+  H188  1  0.77451229  0.22320466  0.12387342  1
  H+  H189  1  0.64510691  0.53948363  0.84889804  1
  H+  H190  1  0.14170637  0.76635032  0.65552375  1
  H+  H191  1  0.76207288  0.38921608  0.67653097  1
  H+  H192  1  0.48492697  0.11482226  0.17728159  1
  H+  H193  1  0.15953732  0.98874371  0.87833680  1
  H+  H194  1  0.13241664  0.27631328  0.85172809  1
  H+  H195  1  0.17025082  0.09380222  1.05734584  1
  H+  H196  1  0.12709098  0.15887739  0.84527595  1
  H+  H197  1  0.84838095  0.71727686  0.64704565  1
  H+  H198  1  -0.01158177  0.62555820  0.32524760  1
  H+  H199  1  0.73379646  0.36232928  0.19012148  1
  H+  H200  1  0.25039912  0.15207676  0.86357009  1
  H+  H201  1  0.72266539  0.36005268  0.84648251  1
  H+  H202  1  0.17393200  0.08759767  0.57393819  1
  H+  H203  1  0.64548191  0.61673636  0.99730503  1
  H+  H204  1  0.82452383  0.41940656  0.76649129  1
  H+  H205  1  0.60910726  0.22024457  0.67615577  1
  H+  H206  1  0.42599705  0.32113137  0.40972200  1
  H+  H207  1  0.78416305  0.39022125  0.37556169  1
  H+  H208  1  0.12571322  0.73218619  0.14108977  1
  H+  H209  1  0.43397869  0.08811812  0.57476257  1
  H+  H210  1  0.58263263  0.16419469  0.76823320  1
  H+  H211  1  0.38980293  0.87168781  0.66394770  1
  H+  H212  1  0.31466024  0.90627656  0.29691235  1
  H+  H213  1  0.22463309  0.83891662  0.98858819  1
  H+  H214  1  1.00754724  0.39215218  0.50715634  1
  H+  H215  1  0.43276875  0.58083813  0.64086211  1
  H+  H216  1  0.71890732  0.35662487  1.00787720  1
  H+  H217  1  0.86867936  0.85122537  0.32022825  1
  H+  H218  1  0.01460948  0.88235974  0.34730541  1
  H+  H219  1  0.38546488  0.59274346  0.58410554  1
  H+  H220  1  1.03226664  0.39768345  0.16781556  1
  H+  H221  1  0.38621768  0.74324204  0.34569040  1
  H+  H222  1  0.26039128  0.63728812  0.50649494  1
  H+  H223  1  0.63904908  0.88994471  0.64763261  1
  H+  H224  1  0.89536566  0.86124435  0.17223194  1
  H+  H225  1  0.76245364  0.62714680  0.64511209  1
  H+  H226  1  0.62387000  0.85817785  0.98458695  1
  H+  H227  1  0.87624610  0.73153248  0.15477751  1
  H+  H228  1  0.62540623  0.76715855  0.49579931  1
  H+  H229  1  0.85266151  0.47759858  0.67066543  1
  H+  H230  1  0.61493661  0.72833095  0.81789716  1
  H+  H231  1  0.84044625  0.88072718  0.82747906  1
  H+  H232  1  0.63334778  1.01086742  0.17587572  1
  H+  H233  1  0.14216779  0.52550906  0.18229610  1
  H+  H234  1  0.07691621  0.08918974  0.49685839  1
  H+  H235  1  0.52946539  0.89651455  0.81613926  1
  H+  H236  1  0.87906783  0.97265623  0.16400307  1
  H+  H237  1  0.48772803  0.71505180  0.21196339  1
  H+  H238  1  0.11263576  0.72586864  0.35629648  1
  H+  H239  1  0.34275954  -0.02640559  1.01680568  1
  H+  H240  1  0.63012957  0.27673543  0.51494836  1
  H+  H241  1  0.34831245  0.20650685  0.47142312  1
  H+  H242  1  0.93627312  0.11587921  0.25769445  1
  H+  H243  1  0.18967666  0.55301500  0.81107764  1
  H+  H244  1  0.89101806  0.51030393  0.83914626  1
  H+  H245  1  0.71460933  0.11571136  0.51112186  1
  H+  H246  1  0.71589744  0.86828198  0.98269497  1
  H+  H247  1  0.47406696  0.10428377  1.00165949  1
  H+  H248  1  0.40058248  0.13622473  0.68274810  1
  H+  H249  1  0.71188862  0.11731830  0.65628659  1
  H+  H250  1  0.40101735  0.35910323  0.46593077  1
  H+  H251  1  0.36938044  0.46187438  1.00702357  1
  H+  H252  1  0.50450307  0.12300981  0.50729247  1
  H+  H253  1  0.61786342  0.64090674  0.82837722  1
  H+  H254  1  0.31676093  0.42295027  0.66592821  1
  H+  H255  1  0.52698643  0.88553453  0.17085610  1
  H+  H256  1  0.42039026  0.39056791  0.33617055  1
  H+  H257  1  0.66297250  0.08053568  0.93229244  1
  H+  H258  1  0.19287038  0.33586296  0.49579747  1
  H+  H259  1  0.41137499  0.78429719  0.19701177  1
  H+  H260  1  0.65536381  0.33059755  0.60716931  1
  H+  H261  1  0.49459761  0.11765031  0.66957189  1
  H+  H262  1  0.63608908  0.11202151  0.83803221  1
  H+  H263  1  0.35210473  0.12085823  0.33560407  1
  H+  H264  1  0.73272323  0.86772790  0.48183251  1
  H+  H265  1  0.87531504  0.26007016  0.33022825  1
  H+  H266  1  0.86667088  0.76372784  0.87173020  1
  H+  H267  1  0.36154692  0.56164227  0.47843505  1
  H+  H268  1  0.61365313  0.13447282  0.50232129  1
  H+  H269  1  0.11056370  0.63224994  0.65760093  1
  H+  H270  1  0.38393419  0.75097024  0.82620710  1
  H+  H271  1  0.99034829  0.62409360  0.17225114  1
  H+  H272  1  0.38144893  0.22958942  0.83565758  1
  H+  H273  1  0.39438174  0.02930139  0.51183349  1
  H+  H274  1  0.50285242  0.37319733  0.18244488  1
  H+  H275  1  -0.02378004  0.61178075  0.49829943  1
  H+  H276  1  0.62131076  0.64031588  0.33387709  1
  H+  H277  1  0.64257786  0.80264862  0.64815609  1
  H+  H278  1  0.53431603  0.38940692  0.47188781  1
  H+  H279  1  0.16751891  0.63795080  0.50493524  1
  H+  H280  1  0.86375468  0.25371216  0.83254878  1
  H+  H281  1  0.12754290  0.00608713  0.31848508  1
  H+  H282  1  0.64362959  0.11679342  0.33014947  1
  H+  H283  1  0.00459702  0.62214351  0.01485093  1
  H+  H284  1  0.38860429  0.78006293  0.98016567  1
  H+  H285  1  0.13534743  0.36160020  1.00199294  1
  H+  H286  1  0.87897341  0.60629186  0.64099854  1
  H+  H287  1  0.37850735  0.88772242  0.33397538  1
  H+  H288  1  0.33006097  0.66328450  0.04876668  1
  H+  H289  1  0.65638467  0.09120053  0.57573587  1
  H+  H290  1  0.82767802  0.16836900  0.72758851  1
  H+  H291  1  0.79641732  0.90424902  0.41367614  1
  H+  H292  1  0.30671831  0.13386663  0.39366695  1
  H+  H293  1  0.29435467  0.66394382  0.83289937  1
  H+  H294  1  0.33697117  0.67740869  0.73395430  1
  H+  H295  1  0.83362391  0.41845788  0.11959648  1
  H+  H296  1  0.43270604  0.08950946  0.26956495  1
  H+  H297  1  0.17760804  0.58640953  0.24129749  1
  H+  H298  1  0.15193718  0.32649286  0.22536593  1
  H+  H299  1  0.13335308  0.84912849  0.66093061  1
  H+  H300  1  0.58016609  0.16232584  0.43943045  1
  H+  H301  1  0.83471428  0.66071067  0.39038461  1
  H+  H302  1  0.87954006  0.62375984  1.04627703  1
  H+  H303  1  0.19980174  0.89594890  0.24917069  1
  H+  H304  1  0.90084324  0.62459360  0.16850641  1
  H+  H305  1  0.08590849  0.42344594  0.07450091  1
  H+  H306  1  0.05030554  0.10425955  0.42997968  1
  H+  H307  1  0.28452531  0.14048169  0.01367149  1
  H+  H308  1  0.63936332  0.40505250  0.33847207  1
  H+  H309  1  0.07777490  0.64973168  0.06423418  1
  H+  H310  1  0.66582939  0.32708204  0.94517975  1
  H+  H311  1  0.33749756  0.93704722  0.44017547  1
  H+  H312  1  0.10703707  0.18628434  0.78083857  1
  H+  H313  1  0.11733795  0.14108702  0.15451631  1
  H+  H314  1  0.10892105  0.19576328  0.34574068  1
  H+  H315  1  0.86121517  0.32275621  0.56408596  1
  H+  H316  1  0.59864107  0.67732731  0.06283558  1
  H+  H317  1  0.04718911  0.85627580  0.73777404  1
  H+  H318  1  0.25272391  0.63186341  0.34038143  1
  H+  H319  1  0.33630278  0.92373123  0.73501258  1
  H+  H320  1  0.49347324  0.87434063  0.33530164  1
  H+  H321  1  0.07568743  0.91943999  0.40649381  1
  H+  H322  1  0.44514266  0.34349330  0.28433150  1
  H+  H323  1  0.47775364  0.36094340  1.00309151  1
  H+  H324  1  0.57754852  0.66890457  0.42235780  1
  H+  H325  1  0.40684651  0.84822199  0.56595597  1
  H+  H326  1  0.12944538  0.36249189  0.85071974  1
  H+  H327  1  0.17744339  0.80438776  0.89439465  1
  H+  H328  1  0.76868400  0.63188465  0.78593916  1
  H+  H329  1  0.94066123  0.39958516  0.95183665  1
  H+  H330  1  0.91158453  0.82806260  0.55657651  1
  H+  H331  1  0.09361933  0.42779894  0.38923367  1
  H+  H332  1  0.61140371  0.43499459  0.42678165  1
  H+  H333  1  0.85910574  0.63100928  0.48267480  1
  H+  H334  1  0.87890140  0.05574749  0.54931361  1
  H+  H335  1  0.17092598  0.83435439  0.56636598  1
  H+  H336  1  0.08882630  0.66593654  0.43851710  1
  H+  H337  1  0.76523861  0.12771363  0.82313469  1
  H+  H338  1  0.05903496  0.89295732  0.83488578  1
  H+  H339  1  0.19729988  0.85283588  0.24931315  1
  H+  H340  1  0.86084181  0.57635708  0.98016183  1
  H+  H341  1  0.33854661  0.91445905  0.07116865  1
  H+  H342  1  0.42444331  0.59746024  0.26721090  1
  H+  H343  1  0.43853716  0.84688825  0.27141177  1
  H+  H344  1  0.87590329  0.36883003  0.66168445  1
  H+  H345  1  0.67654924  0.33036926  0.27557816  1
  H+  H346  1  0.42072884  0.32792650  0.90865479  1
  H+  H347  1  0.58249198  0.42228609  0.07798482  1
  H+  H348  1  0.39449313  0.40111509  0.17904137  1
  H+  H349  1  0.06549844  0.91186542  0.06430132  1
  H+  H350  1  0.85853666  0.80491500  0.96876983  1
  H+  H351  1  0.87002715  0.01819264  0.65232121  1
  H+  H352  1  0.91234302  0.09067053  0.92905324  1
  H+  H353  1  0.58864347  0.92825625  0.75491556  1
  H+  H354  1  0.08116639  0.16890975  0.09612363  1
  H+  H355  1  0.91315477  0.33088668  0.26836665  1
  H+  H356  1  0.88009107  0.30325709  0.89513029  1
  H+  H357  1  0.16370640  0.33517095  0.93995198  1
  H+  H358  1  0.53381160  0.42598139  0.70372181  1
  H+  H359  1  0.64975386  0.58455782  0.58257648  1
  H+  H360  1  0.18112981  0.59396633  0.59502488  1
  H+  H361  1  0.15704621  0.57045171  0.92744430  1
  H+  H362  1  0.58738693  0.41205995  0.78772433  1
  H+  H363  1  0.37706557  0.44839708  0.40706525  1
  H+  H364  1  0.18979762  0.37096946  0.56016088  1
  H+  H365  1  0.78920659  0.63983980  0.75492762  1
  H+  H366  1  0.40373852  0.30739056  0.57110299  1
  H+  H367  1  0.19371191  0.12513179  0.92358819  1
  H+  H368  1  0.42083269  0.07933480  0.90732322  1
  H+  H369  1  0.66236230  0.83830512  0.55220305  1
  H+  H370  1  0.34574716  0.17011701  0.10758669  1
  H+  H371  1  0.93070804  0.60220306  0.25910525  1
  H+  H372  1  0.43404648  0.84633143  0.89578932  1
  H+  H373  1  0.11833325  0.01595285  1.01235416  1
  H+  H374  1  0.65764960  0.83577665  0.88910802  1
  H+  H375  1  0.82568500  0.18906558  0.08773270  1
  H+  H376  1  0.57643079  0.92581299  0.44105110  1
  H+  H377  1  0.39069505  0.11378762  0.99876164  1
  H+  H378  1  0.58197329  0.91503989  0.06819330  1
  H+  H379  1  0.08027704  0.65811806  0.71748345  1
  H+  H380  1  0.90913496  0.57288805  0.55190495  1
  H+  H381  1  0.58863807  0.16547923  0.10742459  1
  H+  H382  1  0.16398715  0.07827103  0.22399560  1
  H+  H383  1  0.56472649  0.64385817  0.73398298  1
  O2-  O384  1  0.08407540  0.16946546  0.14172509  1
  O2-  O385  1  0.02979309  0.08771379  0.47250964  1
  O2-  O386  1  0.08604387  0.17202390  0.82301892  1
  O2-  O387  1  0.09137725  0.42905848  0.15114838  1
  O2-  O388  1  0.15646827  0.47928301  0.44505475  1
  O2-  O389  1  0.06273101  0.39764083  0.82823540  1
  O2-  O390  1  0.09038410  0.66760132  0.14192028  1
  O2-  O391  1  0.09412295  0.66879685  0.48352808  1
  O2-  O392  1  0.09084205  0.65328033  0.79702877  1
  O2-  O393  1  0.08552521  0.91579521  0.14190875  1
  O2-  O394  1  0.08519927  0.92086753  0.48475250  1
  O2-  O395  1  0.04909489  0.84133392  0.81321782  1
  O2-  O396  1  0.33948217  0.16591653  0.15265995  1
  O2-  O397  1  0.31264667  0.14357574  0.46883225  1
  O2-  O398  1  0.34850650  0.16912547  0.81839009  1
  O2-  O399  1  0.37209370  0.43838735  0.16512752  1
  O2-  O400  1  0.38226342  0.44218966  0.49478335  1
  O2-  O401  1  0.32318018  0.37034952  0.81039762  1
  O2-  O402  1  0.32588689  0.67095004  0.13888834  1
  O2-  O403  1  0.35679667  0.66784394  0.47943765  1
  O2-  O404  1  0.34986531  0.68887251  0.81184454  1
  O2-  O405  1  0.36133973  0.91835605  0.15616431  1
  O2-  O406  1  0.33516330  0.93647336  0.48456551  1
  O2-  O407  1  0.34068915  0.92008985  0.81105718  1
  O2-  O408  1  0.59119441  0.16839664  0.15304509  1
  O2-  O409  1  0.57807523  0.16266446  0.48530201  1
  O2-  O410  1  0.58174548  0.16280544  0.81405058  1
  O2-  O411  1  0.59001435  0.42970407  0.14699899  1
  O2-  O412  1  0.59762172  0.42877679  0.47176859  1
  O2-  O413  1  0.58623596  0.41590695  0.83183156  1
  O2-  O414  1  0.60450253  0.67677447  0.14261290  1
  O2-  O415  1  0.57092430  0.66984054  0.46878080  1
  O2-  O416  1  0.58766641  0.66691258  0.80541379  1
  O2-  O417  1  0.58637648  0.91617275  0.14934995  1
  O2-  O418  1  0.56182882  0.92687437  0.48412037  1
  O2-  O419  1  0.59048919  0.92668171  0.80051054  1
  O2-  O420  1  0.81250307  0.19977737  0.13055968  1
  O2-  O421  1  0.81499200  0.15730900  0.47565933  1
  O2-  O422  1  0.82562454  0.16058672  0.80646368  1
  O2-  O423  1  0.84144368  0.42156058  0.16510452  1
  O2-  O424  1  0.82836540  0.41823942  0.44270177  1
  O2-  O425  1  0.82698604  0.41753901  0.81268970  1
  O2-  O426  1  0.84851831  0.67086607  0.13794167  1
  O2-  O427  1  0.83148074  0.66293614  0.46509695  1
  O2-  O428  1  0.93392757  0.71400133  0.88228720  1
  O2-  O429  1  0.85230539  0.91260764  0.15017866  1
  O2-  O430  1  0.79975799  0.90443257  0.45924850  1
  O2-  O431  1  0.82371162  0.91938754  0.80736626  1
  O2-  O432  1  0.16888609  0.08537836  0.17841052  1
  O2-  O433  1  0.15914779  0.07897066  0.53052914  1
  O2-  O434  1  0.20447711  0.15620989  0.88521532  1
  O2-  O435  1  0.15981640  0.33933359  0.18115303  1
  O2-  O436  1  0.21972165  0.38911777  0.51932077  1
  O2-  O437  1  0.16489499  0.33723979  0.86520956  1
  O2-  O438  1  0.17359834  0.58727301  0.19679644  1
  O2-  O439  1  0.19742648  0.60700565  0.51969803  1
  O2-  O440  1  0.17193405  0.57891465  0.84275866  1
  O2-  O441  1  0.18058501  0.83966979  0.13028868  1
  O2-  O442  1  0.16792822  0.83516777  0.52106699  1
  O2-  O443  1  0.17826310  0.80757930  0.84744776  1
  O2-  O444  1  0.42478904  0.08258956  0.19306081  1
  O2-  O445  1  0.43574095  0.08882872  0.52935253  1
  O2-  O446  1  0.41903527  0.07964057  0.86147835  1
  O2-  O447  1  0.44631947  0.33773819  0.20634334  1
  O2-  O448  1  0.42397048  0.32091879  0.45492907  1
  O2-  O449  1  0.42483487  0.32694623  0.86286859  1
  O2-  O450  1  0.45421182  0.65658515  0.19657148  1
  O2-  O451  1  0.39492901  0.61573952  0.50069490  1
  O2-  O452  1  0.42185000  0.59047296  0.85664501  1
  O2-  O453  1  0.43923235  0.84574888  0.20375446  1
  O2-  O454  1  0.40307838  0.85310228  0.52125242  1
  O2-  O455  1  0.43507397  0.84804919  0.84859510  1
  O2-  O456  1  0.66218948  0.07267701  0.19193756  1
  O2-  O457  1  0.65523345  0.09081627  0.52741032  1
  O2-  O458  1  0.66710869  0.08216261  0.85293804  1
  O2-  O459  1  0.67345173  0.33007355  0.20479135  1
  O2-  O460  1  0.65190278  0.33192573  0.53606954  1
  O2-  O461  1  0.66440562  0.32575142  0.86463931  1
  O2-  O462  1  0.67152782  0.58263743  0.17938216  1
  O2-  O463  1  0.66078251  0.59101506  0.50810669  1
  O2-  O464  1  0.66896815  0.59854593  0.86410074  1
  O2-  O465  1  0.68074331  0.83864520  0.18483608  1
  O2-  O466  1  0.66100224  0.82970164  0.50750416  1
  O2-  O467  1  0.66169680  0.83618491  0.84320385  1
  O2-  O468  1  0.92597911  0.08666573  0.18333891  1
  O2-  O469  1  0.88173770  0.05689093  0.50425753  1
  O2-  O470  1  0.91387712  0.08537718  0.84956125  1
  O2-  O471  1  0.92385732  0.34170470  0.19810263  1
  O2-  O472  1  0.83000116  0.30662348  0.52492460  1
  O2-  O473  1  0.88857010  0.31360343  0.85142960  1
  O2-  O474  1  0.93047639  0.59629126  0.18928454  1
  O2-  O475  1  0.91363493  0.58118296  0.50676517  1
  O2-  O476  1  0.93506723  0.56755227  0.85862303  1
  O2-  O477  1  0.92498693  0.82810577  0.18660440  1
  O2-  O478  1  0.92336237  0.83051141  0.51241204  1
  O2-  O479  1  0.82877564  0.78773406  0.87914551  1
  O2-  O480  1  0.15798561  0.06475699  0.30022463  1
  O2-  O481  1  0.22551920  0.13671852  0.65477347  1
  O2-  O482  1  0.16064962  0.08208334  1.01378705  1
  O2-  O483  1  0.11012327  0.28826321  0.29986890  1
  O2-  O484  1  0.12459406  0.32131724  0.61917703  1
  O2-  O485  1  0.16238164  0.32927245  0.98577550  1
  O2-  O486  1  0.18815663  0.59195176  0.33697804  1
  O2-  O487  1  0.16830563  0.58662095  0.63982007  1
  O2-  O488  1  0.15345217  0.56956229  0.97221717  1
  O2-  O489  1  0.16004557  0.82355632  0.37063601  1
  O2-  O490  1  0.17268318  0.82974047  0.64584075  1
  O2-  O491  1  0.17290302  0.80210823  0.96381730  1
  O2-  O492  1  0.43447331  0.09071215  0.31540145  1
  O2-  O493  1  0.42885438  0.09087025  0.65439658  1
  O2-  O494  1  0.41495107  0.07739489  0.98411122  1
  O2-  O495  1  0.45201398  0.35851053  0.32884302  1
  O2-  O496  1  0.40446610  0.31763299  0.61458435  1
  O2-  O497  1  0.41831125  0.32603637  0.98505369  1
  O2-  O498  1  0.42220452  0.58866474  0.31180658  1
  O2-  O499  1  0.37723361  0.57202919  0.62681713  1
  O2-  O500  1  0.42473241  0.55756799  0.97844753  1
  O2-  O501  1  0.43349316  0.84449686  0.31936911  1
  O2-  O502  1  0.41980802  0.84261767  0.64653421  1
  O2-  O503  1  0.42468789  0.83987160  0.96487734  1
  O2-  O504  1  0.67545525  0.08849459  0.31397960  1
  O2-  O505  1  0.65176561  0.08693276  0.64225550  1
  O2-  O506  1  0.66449316  0.08304149  0.97782089  1
  O2-  O507  1  0.68005367  0.33429033  0.32275751  1
  O2-  O508  1  0.65658395  0.32975290  0.65373542  1
  O2-  O509  1  0.66027556  0.32395475  0.99037918  1
  O2-  O510  1  0.68688401  0.59656614  0.30055946  1
  O2-  O511  1  0.64760326  0.57743883  0.62829432  1
  O2-  O512  1  0.67239809  0.58371798  0.98115127  1
  O2-  O513  1  0.71528968  0.86786567  0.31341171  1
  O2-  O514  1  0.67232924  0.86033068  0.63128767  1
  O2-  O515  1  0.65576795  0.83224464  0.96527613  1
  O2-  O516  1  0.94901511  0.14295321  0.29896050  1
  O2-  O517  1  0.88917319  0.07384051  0.62936269  1
  O2-  O518  1  0.90998777  0.09382286  0.97433104  1
  O2-  O519  1  0.90975738  0.32665106  0.31510375  1
  O2-  O520  1  0.90613298  0.34119611  0.64222517  1
  O2-  O521  1  0.92631588  0.36072293  0.98639825  1
  O2-  O522  1  0.92838713  0.60114607  0.30609586  1
  O2-  O523  1  0.90798864  0.57183575  0.63174765  1
  O2-  O524  1  0.89191365  0.58021592  1.01747075  1
  O2-  O525  1  0.90959624  0.83110044  0.31170009  1
  O2-  O526  1  0.90032419  0.82910204  0.63646694  1
  O2-  O527  1  0.88415107  0.82410321  1.00936591  1
  O2-  O528  1  0.07086560  0.16831353  0.01932649  1
  O2-  O529  1  0.07687633  0.13386523  0.35500050  1
  O2-  O530  1  0.13266639  0.20694694  0.69694508  1
  O2-  O531  1  0.07995677  0.41616102  0.02895623  1
  O2-  O532  1  0.07051695  0.40837842  0.34654213  1
  O2-  O533  1  0.07558454  0.41540474  0.66646354  1
  O2-  O534  1  0.06735788  0.64406741  0.01927505  1
  O2-  O535  1  0.07772647  0.66024229  0.35654854  1
  O2-  O536  1  0.07928557  0.66236486  0.67241232  1
  O2-  O537  1  0.06005594  0.91963069  0.01987631  1
  O2-  O538  1  0.07534126  0.91229555  0.36109610  1
  O2-  O539  1  0.05530048  0.87455586  0.69401724  1
  O2-  O540  1  0.34505487  0.16973544  0.02658666  1
  O2-  O541  1  0.30867016  0.13611322  0.34791869  1
  O2-  O542  1  0.37980542  0.17962106  0.70454198  1
  O2-  O543  1  0.33648175  0.40174776  0.02451199  1
  O2-  O544  1  0.36315648  0.43402137  0.36409853  1
  O2-  O545  1  0.31049831  0.36990118  0.68270396  1
  O2-  O546  1  0.32598944  0.67734798  0.00631934  1
  O2-  O547  1  0.35488556  0.68149575  0.35912107  1
  O2-  O548  1  0.32910792  0.67540987  0.68870083  1
  O2-  O549  1  0.30570477  0.91646731  0.03578632  1
  O2-  O550  1  0.34055286  0.91565877  0.33726273  1
  O2-  O551  1  0.33769297  0.92707197  0.68927429  1
  O2-  O552  1  0.58041109  0.15901120  0.02945112  1
  O2-  O553  1  0.59205332  0.16642864  0.36357328  1
  O2-  O554  1  0.58044841  0.15945573  0.69035215  1
  O2-  O555  1  0.57797977  0.41787958  0.03028690  1
  O2-  O556  1  0.61454663  0.44073989  0.35185103  1
  O2-  O557  1  0.56190942  0.41849216  0.66830521  1
  O2-  O558  1  0.59477688  0.67154878  0.01770964  1
  O2-  O559  1  0.58773930  0.66470010  0.35198475  1
  O2-  O560  1  0.54984423  0.63581814  0.68873113  1
  O2-  O561  1  0.58123181  0.91539381  0.02281292  1
  O2-  O562  1  0.59969118  0.92528831  0.35945165  1
  O2-  O563  1  0.59095489  0.93183631  0.67609375  1
  O2-  O564  1  0.83615590  0.17992486  0.01335899  1
  O2-  O565  1  0.83551299  0.17593848  0.34896698  1
  O2-  O566  1  0.82786180  0.17538973  0.68260761  1
  O2-  O567  1  0.82211001  0.41472476  0.04445414  1
  O2-  O568  1  0.77357937  0.37870044  0.32998354  1
  O2-  O569  1  0.82272438  0.42043023  0.69190262  1
  O2-  O570  1  0.86687464  0.68600604  0.07207689  1
  O2-  O571  1  0.84073769  0.66358156  0.34444445  1
  O2-  O572  1  0.82412615  0.65526301  0.65534976  1
  O2-  O573  1  0.80483603  0.92546465  0.01737619  1
  O2-  O574  1  0.79135443  0.89685260  0.33705604  1
  O2-  O575  1  0.83001394  0.92388879  0.68270713  1
