# generated using pymatgen
data_H2O
_symmetry_space_group_name_H-M   'P 1'
_cell_length_a   17.99235727
_cell_length_b   17.99328733
_cell_length_c   22.00274902
_cell_angle_alpha   90.01954417
_cell_angle_beta   89.96837883
_cell_angle_gamma   120.00592841
_symmetry_Int_Tables_number   1
_chemical_formula_structural   H2O
_chemical_formula_sum   'H384 O192'
_cell_volume   6168.50815736
_cell_formula_units_Z   192
loop_
 _symmetry_equiv_pos_site_id
 _symmetry_equiv_pos_as_xyz
  1  'x, y, z'
loop_
 _atom_type_symbol
 _atom_type_oxidation_number
  H+  1.0
  O2-  -2.0
loop_
 _atom_site_type_symbol
 _atom_site_label
 _atom_site_symmetry_multiplicity
 _atom_site_fract_x
 _atom_site_fract_y
 _atom_site_fract_z
 _atom_site_occupancy
  H+  H0  1  0.23901967  0.35894513  0.85780162  1
  H+  H1  1  0.51251740  0.64293890  0.51189765  1
  H+  H2  1  0.00819498  0.13629660  0.48757463  1
  H+  H3  1  0.39989384  0.12473227  0.85346062  1
  H+  H4  1  0.49458279  0.37531149  0.70702544  1
  H+  H5  1  0.78003204  0.38817207  0.83161988  1
  H+  H6  1  0.87385623  0.51960365  -0.01477943  1
  H+  H7  1  0.37033565  0.15446200  0.68284935  1
  H+  H8  1  0.52934905  0.86048469  0.48251894  1
  H+  H9  1  0.61040035  0.72488143  0.83048802  1
  H+  H10  1  0.03597555  0.64886669  0.15747304  1
  H+  H11  1  0.25367413  0.62636686  0.86040459  1
  H+  H12  1  0.22345252  0.09405166  0.50681961  1
  H+  H13  1  0.97196726  0.85272657  1.00100931  1
  H+  H14  1  0.24468623  0.86300316  0.16686243  1
  H+  H15  1  0.49135034  0.12373317  0.84701669  1
  H+  H16  1  0.64010431  0.27482490  0.83449351  1
  H+  H17  1  0.13412272  0.39108982  0.15856842  1
  H+  H18  1  0.36492872  0.12604724  0.33685178  1
  H+  H19  1  0.63023639  0.36308293  0.52091893  1
  H+  H20  1  0.62337989  0.13700584  0.67663100  1
  H+  H21  1  0.86907723  1.02418886  0.66252859  1
  H+  H22  1  0.76008768  0.38401149  0.49510636  1
  H+  H23  1  0.53438249  0.13593339  0.67497232  1
  H+  H24  1  0.85723119  0.46916161  0.33772116  1
  H+  H25  1  0.10227818  0.70629463  0.31907592  1
  H+  H26  1  0.86653486  0.74931778  0.16404437  1
  H+  H27  1  0.92349749  0.33345564  0.13560836  1
  H+  H28  1  0.35881037  0.25315498  0.15495561  1
  H+  H29  1  0.23961636  0.13757498  -0.00370412  1
  H+  H30  1  0.36463236  0.91894639  0.74329889  1
  H+  H31  1  0.10596111  -0.02912119  0.50681502  1
  H+  H32  1  0.69812712  0.79268346  0.59230996  1
  H+  H33  1  0.86214801  0.98003202  0.15964202  1
  H+  H34  1  0.14581561  0.75886897  0.16365791  1
  H+  H35  1  0.61899015  0.89217348  0.01409018  1
  H+  H36  1  0.14342267  1.01953574  0.84093747  1
  H+  H37  1  0.48266699  0.61253163  0.85704344  1
  H+  H38  1  0.52981672  0.38734548  0.81052379  1
  H+  H39  1  0.60763238  0.37438348  -0.00124035  1
  H+  H40  1  0.37726634  0.01263388  0.66637749  1
  H+  H41  1  0.48115355  0.37017737  0.17212358  1
  H+  H42  1  0.14340941  0.12009506  0.66288332  1
  H+  H43  1  0.86205510  0.98307757  0.83273109  1
  H+  H44  1  0.48200113  0.87100305  0.19200556  1
  H+  H45  1  0.88546909  0.85816328  0.00240199  1
  H+  H46  1  0.50526923  0.60637297  0.15285912  1
  H+  H47  1  1.00890081  0.62484964  0.46725721  1
  H+  H48  1  0.73241611  0.10559588  0.30163356  1
  H+  H49  1  0.35461303  0.36840597  0.34055490  1
  H+  H50  1  0.61801573  0.13697620  0.83259497  1
  H+  H51  1  0.77169772  0.88869503  0.15887528  1
  H+  H52  1  0.09053306  0.24199559  0.49380637  1
  H+  H53  1  0.12127676  0.72759051  0.83576952  1
  H+  H54  1  0.39224704  0.36683053  0.84294666  1
  H+  H55  1  0.12891550  0.60815562  0.31244410  1
  H+  H56  1  0.87004632  0.14238192  0.67724460  1
  H+  H57  1  0.89626695  0.36603211  0.84217799  1
  H+  H58  1  0.67144274  0.79282039  0.99337932  1
  H+  H59  1  0.39837147  0.37201259  1.00177552  1
  H+  H60  1  0.61978308  0.09991115  0.98679154  1
  H+  H61  1  0.39104195  0.76197122  0.26973259  1
  H+  H62  1  0.16077541  0.33128501  0.54837642  1
  H+  H63  1  0.98795996  0.60098214  0.67263630  1
  H+  H64  1  0.43598038  0.58165560  0.92476041  1
  H+  H65  1  0.86784025  0.65370743  0.15536772  1
  H+  H66  1  1.02633757  0.14491147  0.33278416  1
  H+  H67  1  0.11483604  0.84387376  0.31792284  1
  H+  H68  1  0.13286576  0.61869288  0.48687444  1
  H+  H69  1  0.11425567  0.23426076  0.33506349  1
  H+  H70  1  0.47670787  0.35602489  0.99429914  1
  H+  H71  1  0.37372609  0.89305254  0.16875321  1
  H+  H72  1  0.85362028  0.71695568  0.99414813  1
  H+  H73  1  0.38551653  0.54656442  0.49080386  1
  H+  H74  1  0.88811859  0.60935392  0.50153713  1
  H+  H75  1  0.12038529  0.62055444  -0.00377411  1
  H+  H76  1  0.35264796  0.60252515  0.15671670  1
  H+  H77  1  0.78801179  0.90194450  0.00532357  1
  H+  H78  1  0.63324590  0.11802819  0.50690029  1
  H+  H79  1  0.01629310  0.39719044  0.01020050  1
  H+  H80  1  0.60980605  0.46508836  0.99766801  1
  H+  H81  1  0.60651026  0.99640153  0.32826181  1
  H+  H82  1  0.76713012  0.13874637  0.00424892  1
  H+  H83  1  0.44625269  0.58644827  0.32670772  1
  H+  H84  1  0.12141083  0.22049609  0.83453540  1
  H+  H85  1  0.77164863  0.61659408  0.67757024  1
  H+  H86  1  0.23305445  0.60615904  0.16987407  1
  H+  H87  1  1.08886440  0.16719263  0.06700602  1
  H+  H88  1  0.53107062  0.89313598  0.83323681  1
  H+  H89  1  0.36956422  0.22858632  0.83871957  1
  H+  H90  1  0.86237120  0.22584538  0.32950823  1
  H+  H91  1  0.11864545  0.14599312  0.16095394  1
  H+  H92  1  0.83233464  0.20578174  0.16298310  1
  H+  H93  1  0.28004665  0.64431577  0.33104387  1
  H+  H94  1  0.84166354  0.44127278  0.22513603  1
  H+  H95  1  0.60176044  0.46659004  0.50249989  1
  H+  H96  1  0.39016426  0.78785147  1.00350569  1
  H+  H97  1  0.98458311  0.86538607  0.32771938  1
  H+  H98  1  0.35578621  0.62542425  0.33156558  1
  H+  H99  1  0.15822830  0.28648723  0.16638696  1
  H+  H100  1  0.67351965  0.91968748  0.69395625  1
  H+  H101  1  0.01219296  0.88149148  0.51035668  1
  H+  H102  1  0.60751423  0.23217872  0.50828497  1
  H+  H103  1  0.78406312  0.87840537  0.67477310  1
  H+  H104  1  0.70779450  0.94736546  0.27678637  1
  H+  H105  1  0.79189446  0.91175990  0.33976896  1
  H+  H106  1  0.91002557  0.08218482  0.60299549  1
  H+  H107  1  0.97303948  0.87120826  0.85227035  1
  H+  H108  1  0.02212010  0.64741373  -0.00751812  1
  H+  H109  1  0.78169831  0.89689208  0.50602066  1
  H+  H110  1  0.76804195  0.13348709  0.48320989  1
  H+  H111  1  0.58432167  0.57265026  0.66368160  1
  H+  H112  1  0.88949988  0.11627708  0.15888878  1
  H+  H113  1  0.53705703  0.89835268  0.32660689  1
  H+  H114  1  0.52850114  0.14653805  0.35064110  1
  H+  H115  1  0.08353079  0.45787190  0.65666010  1
  H+  H116  1  0.52788706  0.88443590  0.66030499  1
  H+  H117  1  0.25962931  0.85539785  0.67822566  1
  H+  H118  1  0.72061592  0.36008868  0.32996712  1
  H+  H119  1  0.87487288  0.76492606  0.52136289  1
  H+  H120  1  0.17835483  0.91965176  0.67617808  1
  H+  H121  1  0.19176939  0.57753944  0.64335064  1
  H+  H122  1  0.25752682  0.30235901  0.56735892  1
  H+  H123  1  0.72662998  0.61274210  0.83178372  1
  H+  H124  1  0.11343602  0.58952650  0.65609543  1
  H+  H125  1  -0.00066766  0.90879876  0.68455236  1
  H+  H126  1  0.30424423  0.03162092  0.65645430  1
  H+  H127  1  0.64788023  0.99072838  0.68190749  1
  H+  H128  1  0.37933998  0.24118359  0.50090352  1
  H+  H129  1  0.52897263  0.89095615  0.01446490  1
  H+  H130  1  0.06645679  0.41238877  0.41166731  1
  H+  H131  1  0.22463454  0.35963444  0.32583997  1
  H+  H132  1  0.88806186  0.11979926  0.99704897  1
  H+  H133  1  0.02700721  0.14384244  0.00818907  1
  H+  H134  1  0.74001624  0.12338898  0.66422338  1
  H+  H135  1  0.26993243  0.65609865  1.01738291  1
  H+  H136  1  0.41909594  1.02820370  0.33889152  1
  H+  H137  1  0.13087075  0.71847005  0.68587633  1
  H+  H138  1  0.62941373  0.36061916  0.33624225  1
  H+  H139  1  0.13926435  0.12311266  0.32921517  1
  H+  H140  1  0.72629365  0.86579414  0.84381463  1
  H+  H141  1  0.87017951  0.35786708  0.66393818  1
  H+  H142  1  0.12373378  0.64089422  0.84081228  1
  H+  H143  1  0.63987521  0.27897795  0.67703096  1
  H+  H144  1  0.58425028  0.16195809  0.77277527  1
  H+  H145  1  0.39430755  0.53437272  0.22531778  1
  H+  H146  1  0.86453282  0.72870068  0.83943545  1
  H+  H147  1  0.17690434  1.01071409  0.67600581  1
  H+  H148  1  0.61033660  0.63627161  0.82504319  1
  H+  H149  1  0.37426819  0.88418138  0.34707623  1
  H+  H150  1  0.93691501  0.75963292  0.69116753  1
  H+  H151  1  0.37279569  0.97901471  0.16646712  1
  H+  H152  1  0.71252009  0.60503011  0.32793926  1
  H+  H153  1  0.88497390  0.27550396  -0.00443708  1
  H+  H154  1  0.36102853  0.69302141  0.17428059  1
  H+  H155  1  0.34281986  0.16953148  0.78077237  1
  H+  H156  1  0.78053799  0.14108163  0.83142613  1
  H+  H157  1  0.95493961  0.35830301  0.50471852  1
  H+  H158  1  0.98138281  0.11525855  0.84318874  1
  H+  H159  1  0.08221075  0.42608751  0.06848965  1
  H+  H160  1  0.30479231  0.40306553  1.03196467  1
  H+  H161  1  0.16928739  0.28581028  1.01564165  1
  H+  H162  1  0.38516232  0.63725498  0.86185194  1
  H+  H163  1  0.30507790  0.70467856  0.67669282  1
  H+  H164  1  0.76188023  0.39222818  0.18241462  1
  H+  H165  1  0.60110197  0.49444170  0.67864490  1
  H+  H166  1  0.60190252  0.87088203  0.16075013  1
  H+  H167  1  0.89694417  0.86544849  0.33149231  1
  H+  H168  1  0.44582761  0.79553215  0.65205937  1
  H+  H169  1  0.62231546  0.22774816  0.16308386  1
  H+  H170  1  0.92129908  0.33479996  0.93562647  1
  H+  H171  1  0.77245705  0.38851788  0.68465770  1
  H+  H172  1  0.14100900  0.51967827  0.17008789  1
  H+  H173  1  0.36007999  0.11953750  0.49113878  1
  H+  H174  1  0.82947349  0.16372520  0.38778439  1
  H+  H175  1  0.61416825  0.60460000  0.33318553  1
  H+  H176  1  0.88538974  0.36137143  0.31996499  1
  H+  H177  1  0.11677786  0.85436962  0.49158766  1
  H+  H178  1  0.11020524  0.98296195  0.15740890  1
  H+  H179  1  0.36710082  0.47861758  0.85182453  1
  H+  H180  1  0.02223652  0.89535969  0.15783819  1
  H+  H181  1  0.11805663  0.39193187  0.32042277  1
  H+  H182  1  0.20288226  0.84758317  0.31996113  1
  H+  H183  1  0.10462681  0.35441854  0.49760272  1
  H+  H184  1  0.51662486  0.37257022  0.49985777  1
  H+  H185  1  0.89199486  0.27469227  0.84331997  1
  H+  H186  1  -0.01737932  0.36530437  0.65842903  1
  H+  H187  1  0.14857366  0.86160527  0.83733563  1
  H+  H188  1  0.65981489  0.88630371  0.33108543  1
  H+  H189  1  0.63688647  0.86454929  0.84623888  1
  H+  H190  1  0.89082679  0.52212121  0.83872355  1
  H+  H191  1  0.39947261  0.78268335  0.50212944  1
  H+  H192  1  0.07683775  0.91427840  0.41495415  1
  H+  H193  1  0.58228182  0.40862954  0.09393425  1
  H+  H194  1  0.37472751  -0.02012239  0.83656919  1
  H+  H195  1  0.87429980  0.72986579  0.34461675  1
  H+  H196  1  0.35329033  0.34632456  0.49021532  1
  H+  H197  1  0.46699688  0.94368305  0.37188912  1
  H+  H198  1  0.01539408  0.36217606  0.81308390  1
  H+  H199  1  0.52024989  0.37391099  0.34760656  1
  H+  H200  1  1.00307192  0.32035057  0.43119797  1
  H+  H201  1  0.40213989  0.78171439  0.85870157  1
  H+  H202  1  0.61995544  0.74792620  0.53791649  1
  H+  H203  1  0.12065331  0.63798561  0.16023903  1
  H+  H204  1  0.62306981  0.75587102  0.16460085  1
  H+  H205  1  0.62488164  0.60055642  0.52134972  1
  H+  H206  1  0.75788447  0.62495648  -0.01488586  1
  H+  H207  1  0.16484973  0.53992158  0.85558098  1
  H+  H208  1  0.63744513  0.36525316  0.69100421  1
  H+  H209  1  0.88744698  0.54536455  0.16420557  1
  H+  H210  1  0.15921968  0.95127138  0.37575674  1
  H+  H211  1  0.14443295  0.34371557  0.86890488  1
  H+  H212  1  0.88730890  1.02524996  0.50435511  1
  H+  H213  1  0.12690144  0.11589007  -0.00694416  1
  H+  H214  1  0.62876307  0.61483903  0.14851039  1
  H+  H215  1  0.42550951  0.11885450  0.19208993  1
  H+  H216  1  0.02688609  0.13388402  0.67310407  1
  H+  H217  1  0.54693087  0.68090384  0.99717100  1
  H+  H218  1  0.11361815  0.12987899  0.82754455  1
  H+  H219  1  0.89446663  0.03390057  0.99851445  1
  H+  H220  1  0.78455322  0.63962111  0.34533796  1
  H+  H221  1  0.33167967  0.41784736  0.50619485  1
  H+  H222  1  0.91293683  0.83629769  0.91029926  1
  H+  H223  1  0.88005195  0.86703846  0.17631969  1
  H+  H224  1  0.64984464  -0.00778367  0.20760370  1
  H+  H225  1  0.67102900  0.08566938  0.90008428  1
  H+  H226  1  0.43145038  0.84895046  0.91268890  1
  H+  H227  1  -0.01835847  0.61183856  0.84253043  1
  H+  H228  1  0.38678242  0.26377465  0.32624527  1
  H+  H229  1  0.61629374  0.59270683  0.97915653  1
  H+  H230  1  0.27146931  0.64950808  0.48498685  1
  H+  H231  1  0.24091954  0.13929742  0.66501427  1
  H+  H232  1  0.35600703  0.16613191  0.13984649  1
  H+  H233  1  0.22303307  0.12504686  0.17350599  1
  H+  H234  1  0.88394132  0.51965290  0.49250867  1
  H+  H235  1  0.85833360  0.89264583  0.83033042  1
  H+  H236  1  0.11474535  0.51411561  0.00676397  1
  H+  H237  1  0.88095174  0.85699919  0.51761822  1
  H+  H238  1  0.77316847  0.65207006  0.14935315  1
  H+  H239  1  0.03375312  0.15261530  0.15416336  1
  H+  H240  1  0.04530896  0.38558048  0.17139921  1
  H+  H241  1  0.63890830  0.52351308  0.82235588  1
  H+  H242  1  0.14521534  0.86921938  -0.00353475  1
  H+  H243  1  0.74789203  0.63552021  0.69359142  1
  H+  H244  1  0.12961262  1.03075329  0.33038616  1
  H+  H245  1  0.59596293  0.92135474  0.77470737  1
  H+  H246  1  0.29046723  0.91052456  0.00803760  1
  H+  H247  1  0.85701680  0.38317425  -0.00264081  1
  H+  H248  1  0.40185717  0.38619410  0.18077928  1
  H+  H249  1  0.23831948  0.86397163  0.84297254  1
  H+  H250  1  0.40041207  0.88206129  0.00119290  1
  H+  H251  1  0.50686755  0.10989528  0.18122450  1
  H+  H252  1  0.95850206  0.88549527  0.66633993  1
  H+  H253  1  0.57859421  0.63381675  0.35697760  1
  H+  H254  1  0.88857791  0.12246685  0.31489868  1
  H+  H255  1  1.02666906  0.39125332  0.31607636  1
  H+  H256  1  0.38244396  0.01800630  0.50996015  1
  H+  H257  1  0.64893674  0.87942168  0.50779994  1
  H+  H258  1  0.70527355  0.33859741  0.98480855  1
  H+  H259  1  0.89701167  0.32464963  0.56513012  1
  H+  H260  1  0.27561750  0.12837071  0.33548285  1
  H+  H261  1  0.62944264  0.36095791  0.17472215  1
  H+  H262  1  0.66370861  0.33877656  0.58137999  1
  H+  H263  1  0.88042592  0.11131003  0.50015274  1
  H+  H264  1  0.85400593  0.22219062  0.48639895  1
  H+  H265  1  0.75593384  0.73532743  0.64523015  1
  H+  H266  1  0.50957050  0.63321069  0.67388536  1
  H+  H267  1  0.64150421  0.36442531  0.82844889  1
  H+  H268  1  0.38093047  0.24832276  0.69085210  1
  H+  H269  1  0.64404848  1.02804681  0.84049595  1
  H+  H270  1  0.61906366  0.24669203  0.34953485  1
  H+  H271  1  0.61576564  0.47692179  0.14719181  1
  H+  H272  1  0.88791099  0.60913041  0.32161499  1
  H+  H273  1  0.88869318  0.03635748  0.29672690  1
  H+  H274  1  0.35722141  0.47874544  0.69266213  1
  H+  H275  1  0.36619156  0.60554271  0.65768158  1
  H+  H276  1  0.36329828  0.49488506  0.32723106  1
  H+  H277  1  0.56375420  0.71505370  0.35864540  1
  H+  H278  1  0.87177842  0.26630747  0.66376018  1
  H+  H279  1  0.11666804  0.41533800  0.79885382  1
  H+  H280  1  0.63459059  1.02076797  -0.00384969  1
  H+  H281  1  0.10603244  0.97007044  0.00604672  1
  H+  H282  1  0.84469842  0.37781147  0.49186648  1
  H+  H283  1  0.88162148  0.97855490  0.37138239  1
  H+  H284  1  0.87008397  0.14106356  0.83292268  1
  H+  H285  1  0.55039744  0.63890833  0.08900665  1
  H+  H286  1  0.40307692  0.89678425  0.68294709  1
  H+  H287  1  0.37737360  0.89232532  0.83940655  1
  H+  H288  1  0.92942037  0.09984333  0.21739403  1
  H+  H289  1  0.24697727  0.37973433  0.17299473  1
  H+  H290  1  0.76352955  0.62669259  0.50531591  1
  H+  H291  1  0.83955307  0.41581452  0.77302464  1
  H+  H292  1  0.92311624  0.09009456  0.90356918  1
  H+  H293  1  0.58407225  0.18426374  0.41692091  1
  H+  H294  1  0.41893395  0.33019836  0.27038620  1
  H+  H295  1  0.59427904  0.16403558  0.10693418  1
  H+  H296  1  0.37909451  0.63002551  0.50090790  1
  H+  H297  1  0.41716609  0.04251001  0.99751993  1
  H+  H298  1  0.65039619  0.58309633  0.26251601  1
  H+  H299  1  0.63070427  0.02873579  0.50421357  1
  H+  H300  1  0.11630338  0.73417601  -0.00346055  1
  H+  H301  1  0.17408773  0.33674058  0.26223364  1
  H+  H302  1  0.18059734  0.84471826  0.93741387  1
  H+  H303  1  0.82013359  0.41202229  0.05225333  1
  H+  H304  1  0.57071647  0.20090825  -0.01395812  1
  H+  H305  1  0.66084246  0.58913889  0.20949932  1
  H+  H306  1  0.57806764  0.67866704  0.45767772  1
  H+  H307  1  0.90865506  0.32961703  0.25825704  1
  H+  H308  1  0.67878229  0.08988514  0.60486031  1
  H+  H309  1  0.08669495  0.16658266  0.73113295  1
  H+  H310  1  0.65233863  0.32212061  0.92426907  1
  H+  H311  1  0.85499697  0.61892097  0.98480593  1
  H+  H312  1  0.80224167  0.92421920  0.73888549  1
  H+  H313  1  0.63713333  0.55367488  0.57800585  1
  H+  H314  1  0.40097794  0.49445370  0.02518072  1
  H+  H315  1  0.84088830  0.92402810  0.06740586  1
  H+  H316  1  0.09517982  0.65756219  0.74403098  1
  H+  H317  1  0.13417186  0.93573334  0.76095064  1
  H+  H318  1  0.81978191  0.16071487  0.06550491  1
  H+  H319  1  0.58168070  0.92051976  0.11047514  1
  H+  H320  1  0.84166739  0.17157186  0.73905474  1
  H+  H321  1  0.40082469  0.07513596  0.56983662  1
  H+  H322  1  0.04552513  0.85619615  0.77625128  1
  H+  H323  1  0.07228125  0.64766409  0.38015922  1
  H+  H324  1  0.33563407  0.42700428  0.78804561  1
  H+  H325  1  0.20528659  0.34182737  0.95817829  1
  H+  H326  1  0.65701213  0.81653279  0.22337570  1
  H+  H327  1  0.65425104  0.57158647  0.91971454  1
  H+  H328  1  0.91417137  0.61891238  0.68294172  1
  H+  H329  1  0.42786652  0.34002190  0.89852225  1
  H+  H330  1  0.36311513  0.44588199  0.10865966  1
  H+  H331  1  0.59435372  0.90896917  0.42664957  1
  H+  H332  1  0.16876020  0.58210371  0.24815385  1
  H+  H333  1  0.08130740  0.91601780  0.06752187  1
  H+  H334  1  0.23236656  0.10841599  0.84506409  1
  H+  H335  1  0.86687938  0.47484336  0.68319122  1
  H+  H336  1  0.86278625  0.35717168  0.17182686  1
  H+  H337  1  0.82549662  0.40838768  0.39683962  1
  H+  H338  1  0.82408660  0.79984280  0.59607409  1
  H+  H339  1  0.15244739  0.58431350  0.54794873  1
  H+  H340  1  0.05715168  0.38623474  0.71485651  1
  H+  H341  1  0.37057142  0.39987422  0.70496141  1
  H+  H342  1  0.44891475  0.84754021  0.55681757  1
  H+  H343  1  0.07375759  0.17601696  0.42707531  1
  H+  H344  1  0.31957938  0.39016470  0.40105666  1
  H+  H345  1  0.90503283  0.71166144  0.75412077  1
  H+  H346  1  0.97058868  0.59972763  0.31154120  1
  H+  H347  1  0.65196781  0.32892833  0.23770986  1
  H+  H348  1  0.51857464  0.14038163  0.50314371  1
  H+  H349  1  0.83072984  0.90401535  0.44350049  1
  H+  H350  1  0.44537771  0.10079916  0.92669447  1
  H+  H351  1  0.76752609  0.10623338  0.17429776  1
  H+  H352  1  0.91715878  0.60144592  0.22254972  1
  H+  H353  1  0.17046200  0.83214129  0.22172484  1
  H+  H354  1  0.16721768  0.58632675  0.94559775  1
  H+  H355  1  0.40407507  0.29483493  0.56294131  1
  H+  H356  1  0.34776413  0.23806505  -0.00304900  1
  H+  H357  1  0.26593606  0.89010837  0.48048439  1
  H+  H358  1  0.90875622  0.57950784  0.92437606  1
  H+  H359  1  0.82412447  0.66304650  0.44632403  1
  H+  H360  1  0.34879453  0.93688851  0.06771986  1
  H+  H361  1  0.13376846  0.51555737  0.31124811  1
  H+  H362  1  0.14454656  0.79967177  0.53112719  1
  H+  H363  1  0.17312389  0.07883737  0.56944756  1
  H+  H364  1  0.33599988  0.67669098  0.42728248  1
  H+  H365  1  0.57053195  0.65975373  0.73113951  1
  H+  H366  1  0.39805410  0.57655518  0.60049635  1
  H+  H367  1  0.35348142  0.91903745  0.44466842  1
  H+  H368  1  0.33708816  0.67487155  0.06879289  1
  H+  H369  1  0.91354775  0.83483634  0.23462310  1
  H+  H370  1  0.57870010  0.40301355  0.40752954  1
  H+  H371  1  0.30838720  0.18510787  0.06024506  1
  H+  H372  1  0.16529040  0.08935130  0.23373992  1
  H+  H373  1  0.20640102  0.82511203  0.61865778  1
  H+  H374  1  0.46091014  0.39275180  0.64624611  1
  H+  H375  1  0.67669307  0.84328531  0.93275594  1
  H+  H376  1  0.44370239  0.08218001  0.27675714  1
  H+  H377  1  0.27621520  0.63257469  0.72512138  1
  H+  H378  1  0.37280978  0.67545920  0.80052682  1
  H+  H379  1  0.33049921  0.14914588  0.42982434  1
  H+  H380  1  0.19819152  0.27922173  0.62467024  1
  H+  H381  1  0.86748494  0.64050422  0.83475857  1
  H+  H382  1  0.16034211  0.08348439  0.93272795  1
  H+  H383  1  0.09594683  0.71707318  0.45863809  1
  O2-  O384  1  0.09580880  0.18183417  0.14272771  1
  O2-  O385  1  0.06979993  0.17614599  0.47293605  1
  O2-  O386  1  0.08584629  0.16320976  0.81501897  1
  O2-  O387  1  0.09743130  0.41798602  0.14730621  1
  O2-  O388  1  0.03997312  0.37721975  0.44855831  1
  O2-  O389  1  0.06246654  0.36735313  0.78513645  1
  O2-  O390  1  0.09791370  0.67608972  0.14783793  1
  O2-  O391  1  0.06929166  0.65538668  0.44739333  1
  O2-  O392  1  0.09044569  0.66561376  0.82296009  1
  O2-  O393  1  0.08067071  0.92364160  0.14103332  1
  O2-  O394  1  0.06858689  0.90964973  0.48920469  1
  O2-  O395  1  0.09462323  0.90502614  0.79646185  1
  O2-  O396  1  0.32178250  0.19404532  0.13586808  1
  O2-  O397  1  0.32823009  0.14846825  0.47521535  1
  O2-  O398  1  0.34185539  0.16626881  0.82629875  1
  O2-  O399  1  0.35676415  0.44645745  0.15985440  1
  O2-  O400  1  0.31624684  0.37077030  0.47788668  1
  O2-  O401  1  0.33602002  0.41964148  0.83406112  1
  O2-  O402  1  0.32905898  0.64101519  0.14846310  1
  O2-  O403  1  0.33412237  0.67756161  0.47248205  1
  O2-  O404  1  0.35706162  0.67136057  0.84329591  1
  O2-  O405  1  0.34248357  0.91993513  0.14900897  1
  O2-  O406  1  0.32901767  0.92303683  0.48379421  1
  O2-  O407  1  0.34727291  0.92096813  0.82004204  1
  O2-  O408  1  0.59818835  0.16640253  0.15125702  1
  O2-  O409  1  0.57919515  0.17434243  0.48743170  1
  O2-  O410  1  0.58487591  0.16533564  0.81811092  1
  O2-  O411  1  0.58383469  0.41434948  0.13955663  1
  O2-  O412  1  0.57745345  0.40670413  0.48642960  1
  O2-  O413  1  0.59083173  0.41721248  0.79618335  1
  O2-  O414  1  0.56232176  0.64493851  0.13375873  1
  O2-  O415  1  0.57607422  0.67146238  0.50242773  1
  O2-  O416  1  0.57618106  0.66468522  0.81576755  1
  O2-  O417  1  0.57936618  0.91104791  0.15548782  1
  O2-  O418  1  0.58730853  0.87500933  0.46338995  1
  O2-  O419  1  0.59249077  0.92216319  0.82002656  1
  O2-  O420  1  0.81431240  0.14755505  0.14744575  1
  O2-  O421  1  0.82833281  0.16370376  0.46778026  1
  O2-  O422  1  0.84146204  0.17277432  0.81691201  1
  O2-  O423  1  0.82748280  0.42689496  0.18219981  1
  O2-  O424  1  0.81639983  0.40816104  0.47367757  1
  O2-  O425  1  0.84162318  0.41831836  0.81878159  1
  O2-  O426  1  0.83776039  0.68703689  0.14260271  1
  O2-  O427  1  0.82403198  0.66238144  0.49112478  1
  O2-  O428  1  0.83866108  0.67172450  0.81910943  1
  O2-  O429  1  0.83336224  0.91795829  0.14751323  1
  O2-  O430  1  0.83985379  0.91616576  0.48744418  1
  O2-  O431  1  0.82783012  0.92281004  0.81682601  1
  O2-  O432  1  0.16320874  0.08989119  0.18847765  1
  O2-  O433  1  0.16533677  0.06533658  0.52522651  1
  O2-  O434  1  0.17026835  0.07809052  0.85748736  1
  O2-  O435  1  0.18464811  0.34589046  0.18401808  1
  O2-  O436  1  0.10765886  0.31052417  0.52286985  1
  O2-  O437  1  0.17990475  0.31758787  0.87520186  1
  O2-  O438  1  0.17094751  0.58112012  0.18454978  1
  O2-  O439  1  0.17019617  0.59876671  0.50527017  1
  O2-  O440  1  0.19060014  0.59803953  0.87166114  1
  O2-  O441  1  0.18039369  0.82752109  0.17759318  1
  O2-  O442  1  0.14839851  0.82074066  0.48982561  1
  O2-  O443  1  0.17759321  0.83327694  0.85757466  1
  O2-  O444  1  0.44642403  0.07929417  0.20028172  1
  O2-  O445  1  0.41418336  0.07963032  0.52562583  1
  O2-  O446  1  0.43296870  0.09601423  0.86873112  1
  O2-  O447  1  0.42194359  0.34422992  0.18947535  1
  O2-  O448  1  0.40862349  0.30213174  0.51890074  1
  O2-  O449  1  0.42472324  0.33642339  0.85345491  1
  O2-  O450  1  0.40005201  0.53816893  0.17973796  1
  O2-  O451  1  0.40763481  0.59664607  0.51725313  1
  O2-  O452  1  0.42563975  0.58502268  0.87824413  1
  O2-  O453  1  0.43123086  0.86363411  0.21673111  1
  O2-  O454  1  0.44501588  0.84205126  0.51229957  1
  O2-  O455  1  0.42961202  0.84438316  0.86681438  1
  O2-  O456  1  0.70261504  0.02531981  0.23380334  1
  O2-  O457  1  0.66555237  0.08803333  0.51817648  1
  O2-  O458  1  0.67367612  0.08928684  0.85466672  1
  O2-  O459  1  0.65992925  0.33217782  0.19260887  1
  O2-  O460  1  0.66102091  0.33309464  0.53629727  1
  O2-  O461  1  0.66971333  0.33551623  0.84925414  1
  O2-  O462  1  0.66961518  0.59420275  0.16455011  1
  O2-  O463  1  0.65360117  0.56842407  0.53361094  1
  O2-  O464  1  0.66475849  0.58018875  0.84367598  1
  O2-  O465  1  0.65706561  0.81639198  0.17874942  1
  O2-  O466  1  0.69402197  0.88211353  0.54077019  1
  O2-  O467  1  0.66656380  0.83318633  0.86097949  1
  O2-  O468  1  0.92491900  0.09064537  0.17264495  1
  O2-  O469  1  0.91523589  0.08675278  0.51698144  1
  O2-  O470  1  0.92060385  0.08719363  0.85815922  1
  O2-  O471  1  0.89078290  0.32065091  0.17338340  1
  O2-  O472  1  0.89547497  0.32412874  0.51974200  1
  O2-  O473  1  0.92775057  0.33643115  0.85654657  1
  O2-  O474  1  0.91910828  0.60643745  0.17688418  1
  O2-  O475  1  0.92339274  0.58132950  0.50122396  1
  O2-  O476  1  0.91981065  0.58291994  0.85475282  1
  O2-  O477  1  0.90794040  0.83260990  0.18937732  1
  O2-  O478  1  0.90030166  0.82246456  0.54148479  1
  O2-  O479  1  0.91277832  0.83802697  0.86456510  1
  O2-  O480  1  0.16580325  0.08907131  0.31403834  1
  O2-  O481  1  0.18332209  0.09983436  0.64749216  1
  O2-  O482  1  0.16171881  0.08740713  0.97851125  1
  O2-  O483  1  0.16561238  0.33533110  0.30732130  1
  O2-  O484  1  0.23009423  0.32435890  0.59451348  1
  O2-  O485  1  0.20827620  0.34554706  1.00299494  1
  O2-  O486  1  0.16456877  0.58024636  0.29731760  1
  O2-  O487  1  0.13067518  0.55251349  0.63234132  1
  O2-  O488  1  0.15269553  0.58402657  0.99005105  1
  O2-  O489  1  0.14730035  0.81858004  0.29934257  1
  O2-  O490  1  0.19886551  0.82669067  0.66235462  1
  O2-  O491  1  0.18086670  0.84386633  0.98282263  1
  O2-  O492  1  0.43787595  0.08661052  0.32188875  1
  O2-  O493  1  0.36637488  0.05704473  0.64805657  1
  O2-  O494  1  0.45126520  0.10345094  0.97937910  1
  O2-  O495  1  0.41549072  0.32596950  0.31554998  1
  O2-  O496  1  0.43731892  0.35714300  0.68257254  1
  O2-  O497  1  0.41590596  0.33402900  0.98049327  1
  O2-  O498  1  0.39029700  0.55271936  0.30660020  1
  O2-  O499  1  0.39931406  0.57810115  0.64541027  1
  O2-  O500  1  0.44477644  0.57223418  0.99160752  1
  O2-  O501  1  0.37860517  0.77071997  0.22735057  1
  O2-  O502  1  0.46732929  0.85629293  0.64461887  1
  O2-  O503  1  0.42790185  0.84856797  0.98796752  1
  O2-  O504  1  0.67638437  0.06986002  0.27998187  1
  O2-  O505  1  0.67856648  0.09053162  0.64992392  1
  O2-  O506  1  0.66061729  0.07985062  0.97786839  1
  O2-  O507  1  0.65856395  0.32820749  0.31799328  1
  O2-  O508  1  0.66691120  0.34034924  0.66565761  1
  O2-  O509  1  0.64570772  0.31215237  0.96957314  1
  O2-  O510  1  0.64883769  0.57591222  0.31054402  1
  O2-  O511  1  0.59001927  0.52478072  0.64508107  1
  O2-  O512  1  0.65574533  0.57237716  0.96572193  1
  O2-  O513  1  0.70402143  0.89798126  0.30073084  1
  O2-  O514  1  0.64910237  0.79867976  0.57151544  1
  O2-  O515  1  0.68395772  0.84915729  0.97909944  1
  O2-  O516  1  0.92477807  0.09872681  0.29714353  1
  O2-  O517  1  0.91075166  0.08340386  0.64800524  1
  O2-  O518  1  0.92291855  0.09409114  0.98287219  1
  O2-  O519  1  0.91705110  0.33328883  0.30273215  1
  O2-  O520  1  0.89764362  0.32548793  0.64442375  1
  O2-  O521  1  0.91600572  0.33660541  0.98105001  1
  O2-  O522  1  0.90915590  0.57565494  0.29875297  1
  O2-  O523  1  0.92589148  0.57612706  0.66464298  1
  O2-  O524  1  0.90202107  0.58065215  0.97090142  1
  O2-  O525  1  0.92436978  0.83350525  0.31437452  1
  O2-  O526  1  0.77301844  0.78820167  0.62241125  1
  O2-  O527  1  0.91040050  0.82273459  0.98682306  1
  O2-  O528  1  0.08789690  0.16615688  0.02134585  1
  O2-  O529  1  0.08401818  0.17425714  0.35228223  1
  O2-  O530  1  0.08778133  0.16525931  0.68600063  1
  O2-  O531  1  0.07686240  0.43568479  0.02455819  1
  O2-  O532  1  0.08785299  0.42549964  0.33003045  1
  O2-  O533  1  0.05090222  0.39436360  0.66950217  1
  O2-  O534  1  0.08212867  0.67109935  0.00563222  1
  O2-  O535  1  0.07539829  0.64565564  0.33256955  1
  O2-  O536  1  0.09826386  0.65733168  0.69867816  1
  O2-  O537  1  0.07902764  0.91053303  0.02134966  1
  O2-  O538  1  0.09676226  0.92178955  0.37072563  1
  O2-  O539  1  0.19397522  0.97286078  0.69865789  1
  O2-  O540  1  0.30776810  0.17809130  0.01481992  1
  O2-  O541  1  0.33533126  0.15684446  0.35158083  1
  O2-  O542  1  0.34467152  0.18615728  0.70174786  1
  O2-  O543  1  0.36579432  0.43347891  0.04813441  1
  O2-  O544  1  0.32159821  0.39617436  0.35584555  1
  O2-  O545  1  0.33468986  0.42530585  0.71642210  1
  O2-  O546  1  0.33151105  0.68880504  0.02622648  1
  O2-  O547  1  0.34037200  0.66950229  0.34349475  1
  O2-  O548  1  0.29360897  0.64612724  0.68270144  1
  O2-  O549  1  0.35136363  0.94348259  0.02269173  1
  O2-  O550  1  0.40809623  0.93617217  0.37094610  1
  O2-  O551  1  0.36329584  0.91611281  0.69774530  1
  O2-  O552  1  0.54096254  0.13858170  -0.00115969  1
  O2-  O553  1  0.58784873  0.18472754  0.36994010  1
  O2-  O554  1  0.59097334  0.16455022  0.69391405  1
  O2-  O555  1  0.58118804  0.40715379  0.01673505  1
  O2-  O556  1  0.58066377  0.40279902  0.36219778  1
  O2-  O557  1  0.58464230  0.40770722  0.72803697  1
  O2-  O558  1  0.53675832  0.62452162  0.01038589  1
  O2-  O559  1  0.54583654  0.65920099  0.37751645  1
  O2-  O560  1  0.57000032  0.65557804  0.68619156  1
  O2-  O561  1  0.58973117  0.92234987  0.03022884  1
  O2-  O562  1  0.56478523  0.94676733  0.35462461  1
  O2-  O563  1  0.62501909  0.93100431  0.69758218  1
  O2-  O564  1  0.82688513  0.16906698  0.02085563  1
  O2-  O565  1  0.83266987  0.16438200  0.34222764  1
  O2-  O566  1  0.83987718  0.17284321  0.69338428  1
  O2-  O567  1  0.82302570  0.41237642  0.00794862  1
  O2-  O568  1  0.82833172  0.40826946  0.35092537  1
  O2-  O569  1  0.83440788  0.41229586  0.69624801  1
  O2-  O570  1  0.82019986  0.65196668  -0.00090060  1
  O2-  O571  1  0.84514819  0.66876159  0.35991578  1
  O2-  O572  1  0.95474805  0.73782317  0.72543146  1
  O2-  O573  1  0.84731084  0.92664954  0.02228611  1
  O2-  O574  1  0.84470672  0.91820717  0.36058744  1
  O2-  O575  1  0.78532605  0.92719712  0.69612803  1
