# generated using pymatgen
data_H2O
_symmetry_space_group_name_H-M   'P 1'
_cell_length_a   17.99449999
_cell_length_b   17.99636049
_cell_length_c   22.00557676
_cell_angle_alpha   90.01635837
_cell_angle_beta   89.98242607
_cell_angle_gamma   119.99293948
_symmetry_Int_Tables_number   1
_chemical_formula_structural   H2O
_chemical_formula_sum   'H384 O192'
_cell_volume   6171.89776830
_cell_formula_units_Z   192
loop_
 _symmetry_equiv_pos_site_id
 _symmetry_equiv_pos_as_xyz
  1  'x, y, z'
loop_
 _atom_type_symbol
 _atom_type_oxidation_number
  H+  1.0
  O2-  -2.0
loop_
 _atom_site_type_symbol
 _atom_site_label
 _atom_site_symmetry_multiplicity
 _atom_site_fract_x
 _atom_site_fract_y
 _atom_site_fract_z
 _atom_site_occupancy
  H+  H0  1  0.31830050  0.91484773  0.44283647  1
  H+  H1  1  0.41536355  0.81029504  0.16901014  1
  H+  H2  1  0.15231281  0.79182753  0.84158546  1
  H+  H3  1  0.39782074  0.78793753  0.97834697  1
  H+  H4  1  0.23642830  0.18054397  0.31343321  1
  H+  H5  1  0.42448317  0.85388856  0.88833455  1
  H+  H6  1  0.51106269  0.11161044  0.67981378  1
  H+  H7  1  0.74606836  0.89934562  0.51442910  1
  H+  H8  1  0.63782636  0.10720266  -0.00117179  1
  H+  H9  1  0.89755140  0.03136505  0.65937824  1
  H+  H10  1  0.52113970  0.89159262  0.32953422  1
  H+  H11  1  0.86126934  0.98054526  -0.00364813  1
  H+  H12  1  0.12894614  0.72796479  0.33559996  1
  H+  H13  1  0.86831023  0.73731429  0.33736849  1
  H+  H14  1  0.80650702  0.39505210  0.16413430  1
  H+  H15  1  0.51919883  0.38800903  0.34611591  1
  H+  H16  1  0.12257589  -0.00895370  0.50461537  1
  H+  H17  1  0.95435368  0.84563496  0.17590439  1
  H+  H18  1  0.11515025  0.13260152  -0.01110622  1
  H+  H19  1  0.46468790  0.35535789  0.13600301  1
  H+  H20  1  0.86175821  0.88219803  0.34630622  1
  H+  H21  1  0.17951565  0.82516526  0.25057607  1
  H+  H22  1  0.89416620  0.52503174  0.83258992  1
  H+  H23  1  0.98153236  0.63432516  0.33097991  1
  H+  H24  1  0.07925156  0.96159793  0.15560643  1
  H+  H25  1  0.85220652  0.96662388  0.14739744  1
  H+  H26  1  0.50579997  0.11296948  0.33097368  1
  H+  H27  1  0.67017341  0.31324089  0.15662699  1
  H+  H28  1  0.64337675  0.85539618  0.17481738  1
  H+  H29  1  0.13635679  0.36026812  0.98977021  1
  H+  H30  1  0.65027469  0.50990589  0.16268049  1
  H+  H31  1  0.13851953  0.61530314  0.18469999  1
  H+  H32  1  0.38441128  0.02409632  0.51023868  1
  H+  H33  1  0.87578456  0.66212498  0.66666954  1
  H+  H34  1  0.78537811  0.14244468  0.34247421  1
  H+  H35  1  0.87117392  0.89395377  0.66996904  1
  H+  H36  1  0.52887548  0.62554560  0.17425143  1
  H+  H37  1  0.52988400  0.64724988  0.35119733  1
  H+  H38  1  0.41680962  0.08100242  0.60431960  1
  H+  H39  1  0.11436418  0.48432130  0.82002821  1
  H+  H40  1  0.39150500  0.86149577  0.64432330  1
  H+  H41  1  0.62914895  0.26282647  0.83151702  1
  H+  H42  1  0.12478268  0.52088931  0.48896711  1
  H+  H43  1  0.37882592  0.27894666  0.21759949  1
  H+  H44  1  0.36757002  -0.00672846  0.35309736  1
  H+  H45  1  0.24710828  0.38778157  0.17700242  1
  H+  H46  1  0.19473278  0.86448468  0.15338332  1
  H+  H47  1  0.38905106  0.27585231  0.66722832  1
  H+  H48  1  0.52956033  0.89376194  0.82126713  1
  H+  H49  1  0.89217501  0.26937948  0.99040453  1
  H+  H50  1  0.75486956  0.35069088  0.68431956  1
  H+  H51  1  0.78030155  0.13840472  1.00703744  1
  H+  H52  1  0.35917033  0.74510172  0.80717298  1
  H+  H53  1  0.13834806  0.30380727  0.33806202  1
  H+  H54  1  -0.00537972  0.37784451  0.83495349  1
  H+  H55  1  0.02566406  0.64212745  0.82655400  1
  H+  H56  1  0.10980733  1.01141684  0.33316631  1
  H+  H57  1  0.02067715  0.13651502  -0.00773643  1
  H+  H58  1  0.63928226  0.77578747  0.33049186  1
  H+  H59  1  0.04497056  0.15827946  0.49842998  1
  H+  H60  1  0.14911645  0.37991954  0.83201396  1
  H+  H61  1  0.26469844  0.87674122  0.50556944  1
  H+  H62  1  0.61731902  0.72860915  0.81846235  1
  H+  H63  1  0.54735072  0.90182747  0.15989865  1
  H+  H64  1  0.52737830  0.89666581  0.00631732  1
  H+  H65  1  0.20324726  0.07177800  0.17626532  1
  H+  H66  1  0.65161063  0.54706860  -0.01315285  1
  H+  H67  1  0.89286192  0.11801670  0.98621802  1
  H+  H68  1  0.12591482  0.75483912  0.50938628  1
  H+  H69  1  0.47462238  0.32268617  0.14991424  1
  H+  H70  1  0.06243707  0.17798119  0.21370164  1
  H+  H71  1  0.65446667  0.33522896  0.98737812  1
  H+  H72  1  0.89177212  0.87929176  0.82931029  1
  H+  H73  1  0.13825835  0.61846526  0.83587053  1
  H+  H74  1  0.38824875  0.60361384  0.34993426  1
  H+  H75  1  0.38214113  0.26959742  0.98782787  1
  H+  H76  1  0.39133096  0.87180334  -0.01101405  1
  H+  H77  1  0.38808592  0.35765372  0.83182672  1
  H+  H78  1  0.90284897  0.53185333  1.00060977  1
  H+  H79  1  0.48220296  0.86622090  0.64545616  1
  H+  H80  1  0.98179512  0.35853724  0.99411267  1
  H+  H81  1  0.77516008  0.12799721  0.82106788  1
  H+  H82  1  0.14517293  0.62353639  0.64285691  1
  H+  H83  1  0.13968231  0.03779491  0.66642957  1
  H+  H84  1  0.51150288  0.12006672  0.83470603  1
  H+  H85  1  0.36343977  0.50671887  0.51229928  1
  H+  H86  1  0.89227871  0.36642845  0.83986599  1
  H+  H87  1  0.61563678  0.38762542  0.82354364  1
  H+  H88  1  0.10957776  0.72605080  0.15452923  1
  H+  H89  1  0.62368738  -0.01565512  0.67410097  1
  H+  H90  1  0.16916346  0.09754927  0.60821207  1
  H+  H91  1  0.78841376  0.89511730  0.82235299  1
  H+  H92  1  0.26292792  0.62675719  0.66327044  1
  H+  H93  1  0.13040684  0.02646836  0.98544067  1
  H+  H94  1  0.62138098  0.21989099  0.33608291  1
  H+  H95  1  0.64748181  0.51503203  0.65182029  1
  H+  H96  1  0.07990809  0.91776618  0.76407117  1
  H+  H97  1  0.22600404  0.36290528  -0.00599371  1
  H+  H98  1  0.89346197  0.87158489  0.50415791  1
  H+  H99  1  0.63065486  0.10067632  0.66242080  1
  H+  H100  1  0.37288509  0.59880151  0.49924157  1
  H+  H101  1  0.11537245  0.73275520  1.00610454  1
  H+  H102  1  0.77575859  0.88631694  0.34271930  1
  H+  H103  1  0.39311072  0.61132939  -0.01437578  1
  H+  H104  1  0.56652589  0.77933528  0.94316520  1
  H+  H105  1  0.79005553  0.13565419  0.16149037  1
  H+  H106  1  0.93418903  0.57864506  0.66667340  1
  H+  H107  1  0.64515194  0.83746194  0.51121193  1
  H+  H108  1  0.11368587  0.39514006  0.44619183  1
  H+  H109  1  0.39048446  0.53098435  0.65726370  1
  H+  H110  1  0.58668910  0.69026561  0.40952120  1
  H+  H111  1  0.46823466  0.36188335  -0.01044058  1
  H+  H112  1  0.56104750  0.91606723  0.41818691  1
  H+  H113  1  0.61536037  0.97672504  0.33489231  1
  H+  H114  1  0.40671751  0.58348503  0.59460679  1
  H+  H115  1  0.35462900  0.21192710  0.82831041  1
  H+  H116  1  0.42653502  0.57092040  0.89551898  1
  H+  H117  1  0.39099868  0.57934048  0.19893423  1
  H+  H118  1  0.39115832  0.72389860  0.38598427  1
  H+  H119  1  0.10187371  0.85465543  0.15830074  1
  H+  H120  1  0.64538791  0.02393602  0.99583639  1
  H+  H121  1  0.26882694  0.39442462  0.36185793  1
  H+  H122  1  0.72597021  0.11010354  0.65943977  1
  H+  H123  1  0.65647164  0.11275314  0.32829241  1
  H+  H124  1  0.67536220  0.59537636  0.89033113  1
  H+  H125  1  0.02468287  0.89459252  -0.00538191  1
  H+  H126  1  0.28215181  0.39442108  0.67313378  1
  H+  H127  1  0.77267883  0.89351894  -0.01054163  1
  H+  H128  1  0.60950375  0.33863721  0.32092119  1
  H+  H129  1  0.38276698  0.46717704  0.16985429  1
  H+  H130  1  0.86680602  0.72758768  0.82112173  1
  H+  H131  1  0.35447292  -0.03011866  1.01177884  1
  H+  H132  1  0.11057626  0.48671698  0.36475004  1
  H+  H133  1  0.48110753  0.87452057  0.48454774  1
  H+  H134  1  0.40381265  0.06260054  0.93677673  1
  H+  H135  1  0.36325403  0.13574237  0.67621487  1
  H+  H136  1  0.27407725  0.39781221  0.82209497  1
  H+  H137  1  0.67600723  0.83650479  0.88715655  1
  H+  H138  1  0.22989557  0.12096272  0.51657815  1
  H+  H139  1  0.12649956  0.83762446  0.53712295  1
  H+  H140  1  0.36745860  0.90668075  0.34853477  1
  H+  H141  1  0.89129451  0.61181380  0.82943170  1
  H+  H142  1  0.61833249  0.64066788  0.81617339  1
  H+  H143  1  0.68352861  0.40352957  0.16925677  1
  H+  H144  1  0.98783992  0.36793327  0.34693921  1
  H+  H145  1  0.02935767  0.15429152  0.67414236  1
  H+  H146  1  0.90254121  0.12233614  0.50575645  1
  H+  H147  1  -0.03917670  0.07730334  0.16195809  1
  H+  H148  1  0.11696513  0.15561424  0.68288969  1
  H+  H149  1  0.27439464  0.65285855  0.81395914  1
  H+  H150  1  0.13238967  0.52763435  0.65429450  1
  H+  H151  1  0.87530536  0.48738362  0.34183228  1
  H+  H152  1  0.37849490  0.48983151  0.82493438  1
  H+  H153  1  0.82970637  0.15987258  0.72601939  1
  H+  H154  1  -0.00776799  0.88030587  0.82981173  1
  H+  H155  1  0.86520386  0.73213737  0.48976835  1
  H+  H156  1  0.89283916  0.78305501  0.98185088  1
  H+  H157  1  0.92615643  0.09144173  0.92557956  1
  H+  H158  1  0.62199097  0.34421464  0.67997366  1
  H+  H159  1  0.15907504  0.30050167  0.18461494  1
  H+  H160  1  0.61308341  0.71894828  0.16714134  1
  H+  H161  1  0.78806962  0.65044261  -0.00423504  1
  H+  H162  1  0.64302758  0.86533348  0.32201347  1
  H+  H163  1  0.34704062  0.96980739  0.17889533  1
  H+  H164  1  0.10755359  -0.01884681  0.82268228  1
  H+  H165  1  0.66609233  1.01602988  0.17572940  1
  H+  H166  1  0.65450590  0.63454259  -0.01047694  1
  H+  H167  1  -0.00584204  0.35896573  0.18700695  1
  H+  H168  1  0.22058554  0.86140395  0.99629718  1
  H+  H169  1  0.06290999  0.80042724  0.36816047  1
  H+  H170  1  0.88711779  0.39665085  0.00279135  1
  H+  H171  1  0.52705764  0.38828021  0.82597309  1
  H+  H172  1  0.38901819  0.11569780  0.50975429  1
  H+  H173  1  0.45984649  0.09212293  0.18080106  1
  H+  H174  1  0.89757701  0.62455070  -0.00314049  1
  H+  H175  1  0.34585554  0.36565885  0.16188208  1
  H+  H176  1  0.60777586  0.88354802  0.00390408  1
  H+  H177  1  0.89335851  0.60433381  0.17374547  1
  H+  H178  1  0.40460569  0.89742757  0.83356292  1
  H+  H179  1  0.86808287  0.42074444  0.10670038  1
  H+  H180  1  0.28306325  0.64831831  -0.00908499  1
  H+  H181  1  0.31067490  0.18293580  0.15229595  1
  H+  H182  1  0.52509899  0.37975981  0.67488050  1
  H+  H183  1  0.21400625  0.11419688  0.83200674  1
  H+  H184  1  0.50134206  0.10699029  0.01495143  1
  H+  H185  1  0.40219272  0.88979851  0.17073802  1
  H+  H186  1  0.62050128  -0.01968005  0.82544629  1
  H+  H187  1  0.90603958  0.35758114  0.18656917  1
  H+  H188  1  0.77926744  0.12869354  0.49748332  1
  H+  H189  1  0.87932241  0.98908283  0.49466861  1
  H+  H190  1  0.06987215  0.01133187  0.34335647  1
  H+  H191  1  0.91583724  0.03511157  0.83007932  1
  H+  H192  1  0.35845050  0.62628751  0.66519851  1
  H+  H193  1  0.21879266  0.60078908  0.19023803  1
  H+  H194  1  0.59674120  0.17524860  0.17591089  1
  H+  H195  1  0.60044586  0.91765481  0.09916405  1
  H+  H196  1  0.86164518  0.21926281  0.66549934  1
  H+  H197  1  0.64247805  0.52868910  0.83464492  1
  H+  H198  1  0.29708409  0.93800580  0.84368337  1
  H+  H199  1  0.88778786  0.36575159  0.50028294  1
  H+  H200  1  0.86148516  0.64050890  0.49086947  1
  H+  H201  1  0.51864788  0.64388837  0.49839527  1
  H+  H202  1  0.86694807  0.13492700  0.81722315  1
  H+  H203  1  0.52192899  0.66016204  0.66406693  1
  H+  H204  1  0.61374808  0.75501608  -0.00848242  1
  H+  H205  1  0.87749811  0.75245890  0.18522881  1
  H+  H206  1  0.63655234  0.50806752  0.32435483  1
  H+  H207  1  0.11280328  0.48026031  0.17323664  1
  H+  H208  1  0.12460550  0.18460634  0.33524226  1
  H+  H209  1  0.52306891  0.62709859  1.01185727  1
  H+  H210  1  0.37975605  1.01639977  0.66022550  1
  H+  H211  1  0.36006782  0.66451208  0.15060197  1
  H+  H212  1  0.60208442  0.48208872  0.49039127  1
  H+  H213  1  0.15028622  0.53823985  0.99287277  1
  H+  H214  1  0.18928268  0.30163910  0.50239090  1
  H+  H215  1  -0.03155070  0.83403745  0.33610773  1
  H+  H216  1  0.29029647  0.87375667  0.20365132  1
  H+  H217  1  0.88173806  0.52406723  0.50387123  1
  H+  H218  1  0.63392881  0.27610517  0.49666114  1
  H+  H219  1  0.77690168  0.64018985  0.82029243  1
  H+  H220  1  0.14763525  0.28841270  0.65852122  1
  H+  H221  1  1.01076823  0.66467323  0.64372506  1
  H+  H222  1  0.35608748  0.38143701  0.00342217  1
  H+  H223  1  0.63397671  0.10767526  0.84273884  1
  H+  H224  1  0.77780819  0.39012259  0.48378017  1
  H+  H225  1  0.02752116  0.89154437  0.66895367  1
  H+  H226  1  0.72901550  0.60912700  0.65114337  1
  H+  H227  1  0.88659922  0.86926992  0.98170287  1
  H+  H228  1  0.46222934  0.36926118  0.51075301  1
  H+  H229  1  0.75828204  0.86759082  0.15426010  1
  H+  H230  1  0.80210884  0.40031886  1.00708306  1
  H+  H231  1  0.33121997  0.15296765  0.34216801  1
  H+  H232  1  0.12964189  0.40083536  0.16779356  1
  H+  H233  1  0.86099791  0.22620598  0.49550045  1
  H+  H234  1  0.38600675  0.51913137  0.99320087  1
  H+  H235  1  0.89224625  0.26388321  0.33992305  1
  H+  H236  1  0.84465525  0.16867431  0.06426613  1
  H+  H237  1  0.89081999  0.78537849  0.65743002  1
  H+  H238  1  0.59849753  0.44948320  0.06440940  1
  H+  H239  1  0.89944244  0.02885612  0.33495498  1
  H+  H240  1  0.63144300  0.78334779  0.66239490  1
  H+  H241  1  0.88666278  0.34864640  0.65473973  1
  H+  H242  1  0.23055149  0.60797861  0.35370735  1
  H+  H243  1  0.87248704  0.39767608  0.34065654  1
  H+  H244  1  0.10279245  0.62907054  0.48569613  1
  H+  H245  1  0.17422587  0.58100954  0.29316047  1
  H+  H246  1  0.48452369  0.60660137  0.83418159  1
  H+  H247  1  0.35665015  0.25121527  0.35254555  1
  H+  H248  1  0.89599915  0.11484517  0.33388980  1
  H+  H249  1  1.02595297  0.15309498  0.34731767  1
  H+  H250  1  0.37772842  0.10413340  -0.00892587  1
  H+  H251  1  0.35465088  0.71685243  0.47333382  1
  H+  H252  1  0.03775688  0.46890083  0.04356312  1
  H+  H253  1  0.59930482  0.39171630  0.49008999  1
  H+  H254  1  0.03967058  0.21333375  0.15660588  1
  H+  H255  1  0.78197345  0.89500458  0.67575973  1
  H+  H256  1  0.36443735  0.08491964  0.83950869  1
  H+  H257  1  0.36410671  0.23150543  0.50701663  1
  H+  H258  1  0.72117648  0.60029408  0.32953469  1
  H+  H259  1  0.25048579  0.86373486  0.30354796  1
  H+  H260  1  0.37129815  0.39260090  0.67596371  1
  H+  H261  1  0.90636903  0.52305304  0.17973120  1
  H+  H262  1  0.11604767  0.22959080  -0.00704856  1
  H+  H263  1  0.14249663  0.87407919  0.84154603  1
  H+  H264  1  0.63322627  0.88745564  0.67165021  1
  H+  H265  1  0.83656420  0.43926557  0.67363338  1
  H+  H266  1  0.37642711  0.38008919  0.35778611  1
  H+  H267  1  0.90981437  0.81470617  0.27259233  1
  H+  H268  1  1.02779347  0.38657433  0.66655686  1
  H+  H269  1  0.64910659  0.87166273  0.83016433  1
  H+  H270  1  0.98114756  0.86891174  0.50445464  1
  H+  H271  1  0.71760395  0.61495139  0.49846349  1
  H+  H272  1  0.77495338  0.37274846  0.82653046  1
  H+  H273  1  0.59823941  0.19909862  0.69115213  1
  H+  H274  1  0.52191557  0.13474274  0.49577544  1
  H+  H275  1  0.44137501  0.14352690  0.34146236  1
  H+  H276  1  0.02900396  0.63362333  0.15900240  1
  H+  H277  1  0.99779843  0.62942080  1.00262974  1
  H+  H278  1  0.64709821  0.62097140  0.18092027  1
  H+  H279  1  0.69010422  -0.01025995  0.53287077  1
  H+  H280  1  0.86651449  0.63635463  0.34149500  1
  H+  H281  1  0.26819799  0.13545184  -0.00915074  1
  H+  H282  1  0.11248141  0.89311293  0.00240801  1
  H+  H283  1  0.13277487  0.74012114  0.60208029  1
  H+  H284  1  0.14349248  0.12531034  0.51065005  1
  H+  H285  1  0.18023406  0.34941499  0.89011199  1
  H+  H286  1  0.03437432  0.15453745  0.78354328  1
  H+  H287  1  0.88861320  0.11497246  0.65703518  1
  H+  H288  1  0.15727719  0.08338933  0.92326683  1
  H+  H289  1  0.57565423  0.41231487  0.15418505  1
  H+  H290  1  0.67642385  0.85886699  0.60641909  1
  H+  H291  1  0.12152698  0.39718414  0.66831318  1
  H+  H292  1  0.32718170  0.66757716  0.72775051  1
  H+  H293  1  0.08326415  0.69198191  0.40114667  1
  H+  H294  1  0.61237068  0.13967837  0.50121238  1
  H+  H295  1  0.15448930  0.93613954  0.47118484  1
  H+  H296  1  0.16474912  0.83712262  0.93545818  1
  H+  H297  1  0.67108689  0.32960743  0.88527195  1
  H+  H298  1  0.31480285  0.40852210  0.43052369  1
  H+  H299  1  0.41661853  0.33549668  0.60785196  1
  H+  H300  1  0.41452665  0.33043457  0.89299385  1
  H+  H301  1  0.32556134  0.15557613  0.76858876  1
  H+  H302  1  0.97240485  0.36006296  0.49169644  1
  H+  H303  1  0.93263785  0.33873721  0.90043696  1
  H+  H304  1  0.33382309  0.41368103  0.06522645  1
  H+  H305  1  0.17478890  0.13167178  0.25688897  1
  H+  H306  1  0.42230754  0.86049683  0.26086142  1
  H+  H307  1  0.19114968  0.34997885  0.59983145  1
  H+  H308  1  0.67570026  0.82870824  0.23562056  1
  H+  H309  1  0.36510736  0.79345966  0.30960514  1
  H+  H310  1  0.83773843  0.92308908  0.43830600  1
  H+  H311  1  0.15918368  0.01051514  0.23253656  1
  H+  H312  1  0.56538945  0.12367000  0.11367881  1
  H+  H313  1  0.27653486  0.14108730  0.67642528  1
  H+  H314  1  0.41086255  0.08486944  0.24156864  1
  H+  H315  1  0.92375207  0.59272260  0.27146964  1
  H+  H316  1  0.83643829  0.39907145  0.76980037  1
  H+  H317  1  0.84749723  0.92239891  0.76172021  1
  H+  H318  1  0.91724197  0.59130851  0.56026126  1
  H+  H319  1  0.33888395  0.42531285  0.75827828  1
  H+  H320  1  0.18454368  0.36407003  0.28112785  1
  H+  H321  1  0.65719770  0.32462588  0.26467534  1
  H+  H322  1  0.66379557  0.58085424  0.55969238  1
  H+  H323  1  0.37383811  0.85974580  0.49955563  1
  H+  H324  1  0.67060378  0.08186846  0.89996741  1
  H+  H325  1  0.30619230  0.57427665  0.12106148  1
  H+  H326  1  0.60852707  0.65021401  0.49878720  1
  H+  H327  1  0.92414720  0.84673492  0.89262114  1
  H+  H328  1  0.32967257  0.17610232  0.44666899  1
  H+  H329  1  0.88050812  0.09278759  0.15994609  1
  H+  H330  1  0.42775931  0.56164051  0.25829506  1
  H+  H331  1  0.84537574  0.42612509  0.43007032  1
  H+  H332  1  0.58094601  0.68284346  0.72352671  1
  H+  H333  1  0.15419023  0.57208725  0.55177187  1
  H+  H334  1  0.92202030  0.32967663  0.59346580  1
  H+  H335  1  0.83517615  0.66798918  0.40406216  1
  H+  H336  1  0.64908037  0.09312258  0.17870586  1
  H+  H337  1  0.67631662  0.58457573  0.24080954  1
  H+  H338  1  0.12139738  0.90043197  0.67361038  1
  H+  H339  1  0.59191694  0.92186455  0.73613191  1
  H+  H340  1  0.41190668  0.37210255  0.29296043  1
  H+  H341  1  0.33708549  0.11104402  0.15164693  1
  H+  H342  1  1.01495101  0.63378159  0.48649242  1
  H+  H343  1  0.31681465  0.15219046  0.05346394  1
  H+  H344  1  0.92351411  0.84415089  0.59758216  1
  H+  H345  1  0.38478623  0.51476570  0.35516666  1
  H+  H346  1  0.67494956  0.35210461  0.54485394  1
  H+  H347  1  0.41749927  0.83291287  0.55449614  1
  H+  H348  1  0.56679225  0.14151554  0.77431681  1
  H+  H349  1  0.68857009  0.08003863  0.27062058  1
  H+  H350  1  0.78934440  0.56815470  0.11280755  1
  H+  H351  1  0.27973245  0.24378625  0.23020616  1
  H+  H352  1  0.08192233  0.42097890  0.76124620  1
  H+  H353  1  0.84396336  0.67710110  0.05624544  1
  H+  H354  1  0.77127957  0.62343047  0.15746572  1
  H+  H355  1  0.09184204  0.67992307  0.77172242  1
  H+  H356  1  0.14754712  0.62481228  0.98978312  1
  H+  H357  1  0.57900977  0.19530232  0.03373503  1
  H+  H358  1  0.88131126  0.22159299  0.16499581  1
  H+  H359  1  0.36669635  0.35668500  0.52007307  1
  H+  H360  1  0.60534040  0.16804214  0.39986820  1
  H+  H361  1  0.15911934  0.75791435  0.66845601  1
  H+  H362  1  0.59335648  0.96672828  0.48582469  1
  H+  H363  1  0.63847271  0.29194392  0.62838648  1
  H+  H364  1  0.66708151  0.05157735  0.56976684  1
  H+  H365  1  0.05818257  0.91373568  0.09077990  1
  H+  H366  1  0.58225657  0.66075392  0.07233783  1
  H+  H367  1  0.93509172  0.32961389  0.27692338  1
  H+  H368  1  0.58201301  0.41416969  0.40074444  1
  H+  H369  1  0.11976731  0.10869859  0.83525956  1
  H+  H370  1  0.09962812  0.18701461  0.43781296  1
  H+  H371  1  0.58548022  0.41453302  0.73393741  1
  H+  H372  1  0.17338637  0.58818332  0.89132830  1
  H+  H373  1  0.81173234  0.90110596  0.08598830  1
  H+  H374  1  0.83605963  0.67836767  0.72634778  1
  H+  H375  1  0.68964304  0.27367725  0.97049712  1
  H+  H376  1  0.08335542  0.42962505  0.07962746  1
  H+  H377  1  0.06043343  0.87323719  0.40874487  1
  H+  H378  1  0.08938186  0.67031475  0.06635832  1
  H+  H379  1  0.84023886  0.17224214  0.40531908  1
  H+  H380  1  0.93124443  0.09278932  0.56543958  1
  H+  H381  1  0.34855096  0.68997236  0.04496004  1
  H+  H382  1  0.32556470  0.90572332  0.06854497  1
  H+  H383  1  0.53689061  0.47974605  0.04151163  1
  O2-  O384  1  0.07451252  0.18875015  0.17020876  1
  O2-  O385  1  0.10515647  0.18627431  0.48310699  1
  O2-  O386  1  0.03357265  0.13742220  0.82676247  1
  O2-  O387  1  0.09031014  0.42232424  0.15362656  1
  O2-  O388  1  0.07297084  0.41681063  0.44328119  1
  O2-  O389  1  0.08203491  0.42219987  0.80715087  1
  O2-  O390  1  0.08862951  0.66518475  0.14189726  1
  O2-  O391  1  0.07608941  0.66527354  0.47284660  1
  O2-  O392  1  0.08957347  0.67653124  0.81599645  1
  O2-  O393  1  0.04864842  0.90445449  0.13563403  1
  O2-  O394  1  0.10256371  0.93024856  0.48978913  1
  O2-  O395  1  0.07632481  0.91869253  0.81003628  1
  O2-  O396  1  0.29622877  0.12670508  0.13356076  1
  O2-  O397  1  0.33581988  0.17080270  0.49086643  1
  O2-  O398  1  0.31922115  0.15158786  0.81431035  1
  O2-  O399  1  0.34328612  0.41564500  0.14498033  1
  O2-  O400  1  0.30924550  0.40041351  0.49793368  1
  O2-  O401  1  0.33802827  0.42459207  0.80590242  1
  O2-  O402  1  0.31757215  0.60507065  0.15960860  1
  O2-  O403  1  0.33231814  0.65724169  0.45816644  1
  O2-  O404  1  0.33068887  0.68491694  0.79295875  1
  O2-  O405  1  0.32107701  0.90778402  0.16663688  1
  O2-  O406  1  0.32338351  0.91179900  0.48791296  1
  O2-  O407  1  0.35757912  0.97112529  0.82908278  1
  O2-  O408  1  0.56599070  0.11731661  0.15894635  1
  O2-  O409  1  0.58372829  0.16715849  0.48153553  1
  O2-  O410  1  0.57132885  0.15231996  0.81942204  1
  O2-  O411  1  0.63396600  0.45285177  0.13978752  1
  O2-  O412  1  0.56738696  0.42022032  0.47674233  1
  O2-  O413  1  0.58786349  0.42145966  0.81163407  1
  O2-  O414  1  0.58433040  0.65839826  0.15174664  1
  O2-  O415  1  0.57965571  0.68353522  0.48860116  1
  O2-  O416  1  0.58441382  0.66846537  0.80390626  1
  O2-  O417  1  0.60535133  0.91760928  0.14458751  1
  O2-  O418  1  0.55055508  0.91327423  0.46400625  1
  O2-  O419  1  0.59120483  0.92037150  0.80788958  1
  O2-  O420  1  0.84975313  0.16500876  0.14406427  1
  O2-  O421  1  0.83709885  0.16605457  0.47997808  1
  O2-  O422  1  0.83157579  0.15752647  0.80039437  1
  O2-  O423  1  0.86805395  0.42009058  0.15174012  1
  O2-  O424  1  0.84051482  0.42210147  0.47634600  1
  O2-  O425  1  0.83731373  0.40300456  0.81508731  1
  O2-  O426  1  0.81868037  0.62541682  0.13103629  1
  O2-  O427  1  0.83412767  0.67244464  0.47304320  1
  O2-  O428  1  0.83750349  0.66902876  0.80455407  1
  O2-  O429  1  0.81653457  0.90089753  0.13146525  1
  O2-  O430  1  0.84194216  0.92673851  0.48389066  1
  O2-  O431  1  0.84982137  0.92284389  0.80821984  1
  O2-  O432  1  0.15143692  0.04713508  0.20348827  1
  O2-  O433  1  0.16821314  0.09099217  0.52924415  1
  O2-  O434  1  0.15323576  0.08129369  0.84809819  1
  O2-  O435  1  0.18838774  0.36205947  0.19544507  1
  O2-  O436  1  0.21764611  0.36140585  0.51825666  1
  O2-  O437  1  0.18692091  0.35756844  0.84570431  1
  O2-  O438  1  0.15988139  0.57994933  0.20498629  1
  O2-  O439  1  0.14715564  0.57761110  0.50781818  1
  O2-  O440  1  0.16889146  0.58645944  0.84639406  1
  O2-  O441  1  0.13785815  0.82920876  0.17164982  1
  O2-  O442  1  0.15856247  0.80676405  0.53692750  1
  O2-  O443  1  0.17682081  0.85027300  0.85920208  1
  O2-  O444  1  0.40186386  0.07489428  0.19701252  1
  O2-  O445  1  0.42047426  0.08530581  0.52245232  1
  O2-  O446  1  0.39473387  0.05638384  0.85878439  1
  O2-  O447  1  0.32613641  0.26920269  0.19780739  1
  O2-  O448  1  0.40583993  0.33299348  0.53117482  1
  O2-  O449  1  0.41780457  0.32816750  0.84784950  1
  O2-  O450  1  0.43093165  0.56014287  0.21248648  1
  O2-  O451  1  0.39974904  0.57048360  0.52146102  1
  O2-  O452  1  0.42503640  0.56860599  0.85038647  1
  O2-  O453  1  0.44298611  0.86926083  0.18375368  1
  O2-  O454  1  0.40912110  0.83066458  0.50782090  1
  O2-  O455  1  0.42548720  0.85718824  0.84318197  1
  O2-  O456  1  0.69115692  0.07610783  0.19187432  1
  O2-  O457  1  0.67704502  0.03709513  0.52761974  1
  O2-  O458  1  0.66758183  0.07953217  0.85485795  1
  O2-  O459  1  0.70346811  0.36281886  0.18273675  1
  O2-  O460  1  0.66533088  0.34008403  0.50157105  1
  O2-  O461  1  0.66582478  0.32578416  0.84068387  1
  O2-  O462  1  0.68229749  0.59464695  0.19379468  1
  O2-  O463  1  0.65821102  0.58446327  0.51408716  1
  O2-  O464  1  0.67345189  0.59119834  0.84522743  1
  O2-  O465  1  0.67328508  0.82433243  0.18923266  1
  O2-  O466  1  0.68969232  0.88749569  0.53317806  1
  O2-  O467  1  0.68220130  0.84268668  0.84262355  1
  O2-  O468  1  0.89867899  0.04924757  0.16878155  1
  O2-  O469  1  0.93444596  0.09363714  0.51987177  1
  O2-  O470  1  0.94227630  0.09541601  0.84591672  1
  O2-  O471  1  0.93390201  0.32591087  0.20354692  1
  O2-  O472  1  0.91697632  0.33310496  0.51356106  1
  O2-  O473  1  0.93292968  0.34463073  0.85444452  1
  O2-  O474  1  0.93000806  0.58410258  0.19284353  1
  O2-  O475  1  0.91088688  0.58650479  0.51551342  1
  O2-  O476  1  0.92530313  0.58600017  0.84451201  1
  O2-  O477  1  0.90200562  0.81059291  0.20085686  1
  O2-  O478  1  0.92097131  0.83762304  0.51806870  1
  O2-  O479  1  0.92574275  0.84803202  0.84606084  1
  O2-  O480  1  0.20311412  0.18694628  0.27948777  1
  O2-  O481  1  0.17127328  0.09872678  0.65372476  1
  O2-  O482  1  0.15868200  0.08706789  0.96920144  1
  O2-  O483  1  0.17982053  0.36375904  0.32569688  1
  O2-  O484  1  0.18242785  0.34957464  0.64464211  1
  O2-  O485  1  0.16660768  0.33110226  0.97547326  1
  O2-  O486  1  0.17147944  0.57784501  0.33795162  1
  O2-  O487  1  0.16942499  0.58533711  0.63545788  1
  O2-  O488  1  0.17910251  0.59612430  0.97430006  1
  O2-  O489  1  0.22594956  0.82035068  0.27072074  1
  O2-  O490  1  0.24040223  0.87278335  0.67109438  1
  O2-  O491  1  0.16012424  0.83269539  0.98118344  1
  O2-  O492  1  0.44419329  0.09647729  0.32151482  1
  O2-  O493  1  0.41446936  0.07871114  0.64955813  1
  O2-  O494  1  0.40623943  0.06956803  0.98207796  1
  O2-  O495  1  0.40988386  0.35392315  0.33491886  1
  O2-  O496  1  0.42032452  0.33708581  0.65353116  1
  O2-  O497  1  0.40908452  0.33063407  0.97353673  1
  O2-  O498  1  0.41516296  0.57171922  0.33342350  1
  O2-  O499  1  0.41149776  0.58971164  0.64076138  1
  O2-  O500  1  0.42302113  0.57862912  0.97717312  1
  O2-  O501  1  0.41245053  0.85234050  0.30569094  1
  O2-  O502  1  0.42706472  0.84107246  0.62389387  1
  O2-  O503  1  0.42813929  0.85072864  0.97049712  1
  O2-  O504  1  0.68559323  0.07970118  0.31599963  1
  O2-  O505  1  0.66407814  0.07410091  0.64564199  1
  O2-  O506  1  0.67437055  0.08538729  0.98228226  1
  O2-  O507  1  0.61802884  0.29511976  0.29863877  1
  O2-  O508  1  0.64933481  0.30601530  0.67138499  1
  O2-  O509  1  0.70177985  0.33297351  0.96729076  1
  O2-  O510  1  0.66699834  0.56750243  0.30720320  1
  O2-  O511  1  0.67186022  0.57216809  0.63304216  1
  O2-  O512  1  0.68608103  0.60705258  0.97182386  1
  O2-  O513  1  0.67387540  0.83513321  0.30973504  1
  O2-  O514  1  0.67042942  0.85085451  0.65200938  1
  O2-  O515  1  0.62110036  0.80444389  0.96516764  1
  O2-  O516  1  0.93049177  0.08910071  0.32050084  1
  O2-  O517  1  0.92540662  0.09087185  0.64317717  1
  O2-  O518  1  0.92306368  0.08718657  0.97110887  1
  O2-  O519  1  0.92812692  0.32920029  0.32328479  1
  O2-  O520  1  0.92238645  0.32537525  0.63877598  1
  O2-  O521  1  0.92434018  0.33036200  0.97439759  1
  O2-  O522  1  0.92109121  0.59559751  0.31669647  1
  O2-  O523  1  0.94660524  0.62689355  0.64025162  1
  O2-  O524  1  0.93219988  0.59471108  0.98821516  1
  O2-  O525  1  0.90765878  0.81266097  0.31918012  1
  O2-  O526  1  0.92543486  0.84682617  0.64305451  1
  O2-  O527  1  0.91972998  0.84281901  0.96517030  1
  O2-  O528  1  0.08422784  0.16623207  0.00491989  1
  O2-  O529  1  0.08648603  0.19548545  0.36130294  1
  O2-  O530  1  0.08631294  0.18657909  0.69467498  1
  O2-  O531  1  0.07098273  0.44021391  0.03627373  1
  O2-  O532  1  0.06637758  0.42393359  0.37692552  1
  O2-  O533  1  0.08673702  0.42269663  0.68377203  1
  O2-  O534  1  0.08637502  0.67057440  0.02018378  1
  O2-  O535  1  0.07672474  0.71144226  0.35924980  1
  O2-  O536  1  0.11853258  0.70968991  0.64213518  1
  O2-  O537  1  0.08260787  0.92564030  0.01378602  1
  O2-  O538  1  0.05288279  0.85021162  0.36737824  1
  O2-  O539  1  0.08580497  0.92331648  0.68902549  1
  O2-  O540  1  0.32684219  0.16161350  0.00888530  1
  O2-  O541  1  0.31484803  0.18956303  0.36414702  1
  O2-  O542  1  0.33658318  0.16860545  0.69278217  1
  O2-  O543  1  0.32797368  0.41326787  0.02002986  1
  O2-  O544  1  0.32606368  0.41652220  0.38330222  1
  O2-  O545  1  0.34234714  0.42518290  0.69025248  1
  O2-  O546  1  0.34618891  0.67824670  0.00155493  1
  O2-  O547  1  0.34305803  0.66513917  0.39120939  1
  O2-  O548  1  0.32396721  0.65515205  0.68048845  1
  O2-  O549  1  0.32615223  0.90767201  0.02397874  1
  O2-  O550  1  0.33265919  0.93150290  0.36379039  1
  O2-  O551  1  0.32377335  0.90530927  0.67537827  1
  O2-  O552  1  0.55954583  0.13411878  0.03567239  1
  O2-  O553  1  0.60672561  0.16261280  0.35507091  1
  O2-  O554  1  0.57036897  0.13611183  0.69805260  1
  O2-  O555  1  0.57053309  0.45445056  0.02654264  1
  O2-  O556  1  0.58033252  0.40761543  0.35534635  1
  O2-  O557  1  0.58608533  0.40436110  0.68919529  1
  O2-  O558  1  0.58371100  0.66184418  0.02671999  1
  O2-  O559  1  0.58859054  0.68957424  0.36413212  1
  O2-  O560  1  0.58126661  0.69628650  0.67969214  1
  O2-  O561  1  0.58743899  0.92074029  0.02227807  1
  O2-  O562  1  0.57859074  0.91544424  0.34852943  1
  O2-  O563  1  0.59467508  0.92165772  0.68944682  1
  O2-  O564  1  0.84252100  0.16895370  0.01876490  1
  O2-  O565  1  0.84521654  0.17778366  0.35950414  1
  O2-  O566  1  0.82732839  0.15871670  0.67990922  1
  O2-  O567  1  0.86253169  0.43073429  0.02129628  1
  O2-  O568  1  0.84450875  0.42775504  0.35775001  1
  O2-  O569  1  0.81870518  0.38350480  0.69186594  1
  O2-  O570  1  0.84930787  0.67945395  0.01121939  1
  O2-  O571  1  0.83457211  0.66664646  0.35682729  1
  O2-  O572  1  0.83811822  0.68410329  0.68105588  1
  O2-  O573  1  0.82869022  0.91869097  0.00945632  1
  O2-  O574  1  0.83504959  0.91543302  0.36051777  1
  O2-  O575  1  0.84273453  0.92421060  0.68929807  1
