# generated using pymatgen
data_H2O
_symmetry_space_group_name_H-M   'P 1'
_cell_length_a   17.99538203
_cell_length_b   17.99491002
_cell_length_c   22.01162831
_cell_angle_alpha   90.00312864
_cell_angle_beta   90.01794599
_cell_angle_gamma   120.01710971
_symmetry_Int_Tables_number   1
_chemical_formula_structural   H2O
_chemical_formula_sum   'H384 O192'
_cell_volume   6171.89624160
_cell_formula_units_Z   192
loop_
 _symmetry_equiv_pos_site_id
 _symmetry_equiv_pos_as_xyz
  1  'x, y, z'
loop_
 _atom_type_symbol
 _atom_type_oxidation_number
  H+  1.0
  O2-  -2.0
loop_
 _atom_site_type_symbol
 _atom_site_label
 _atom_site_symmetry_multiplicity
 _atom_site_fract_x
 _atom_site_fract_y
 _atom_site_fract_z
 _atom_site_occupancy
  H+  H0  1  0.96858724  0.35324800  0.17840878  1
  H+  H1  1  0.22411422  0.61348698  0.18575204  1
  H+  H2  1  0.86097637  0.75405875  0.51215400  1
  H+  H3  1  0.41471060  0.78886069  0.65792297  1
  H+  H4  1  0.66591568  0.04531239  0.17698940  1
  H+  H5  1  0.35928703  0.87587434  0.34130110  1
  H+  H6  1  0.37983786  0.15067610  0.50334089  1
  H+  H7  1  0.00774397  0.89050633  0.15788736  1
  H+  H8  1  0.74933745  0.43360844  1.03574525  1
  H+  H9  1  0.65066425  0.14806597  0.34285953  1
  H+  H10  1  0.11880830  0.79077060  0.49668687  1
  H+  H11  1  0.11429012  0.46556179  0.81824648  1
  H+  H12  1  0.11908081  0.86993396  0.18936844  1
  H+  H13  1  0.95983552  0.86091803  0.65723953  1
  H+  H14  1  0.65133088  0.08648327  0.98840016  1
  H+  H15  1  0.53703713  0.35862401  0.40840235  1
  H+  H16  1  0.38474588  0.53387860  0.32962736  1
  H+  H17  1  0.24925597  0.90145643  0.17561996  1
  H+  H18  1  0.35261025  0.86470763  0.17044183  1
  H+  H19  1  0.60399673  0.66616006  0.76253902  1
  H+  H20  1  0.24620895  0.11118981  0.49573122  1
  H+  H21  1  0.91683313  1.03867056  0.65814792  1
  H+  H22  1  0.15048664  0.30565694  0.66475304  1
  H+  H23  1  0.34922281  0.73923115  0.81590278  1
  H+  H24  1  -0.01078554  0.70251164  0.65388144  1
  H+  H25  1  0.13651888  0.36032151  0.84214167  1
  H+  H26  1  0.40869478  1.03259978  -0.00644439  1
  H+  H27  1  0.62255773  0.72565416  0.49038693  1
  H+  H28  1  0.64723227  0.04907460  0.64513112  1
  H+  H29  1  0.36877802  0.46969668  1.00279516  1
  H+  H30  1  0.76766014  0.37073623  0.16954332  1
  H+  H31  1  0.09002135  0.87828208  0.66946156  1
  H+  H32  1  -0.01901803  0.35227915  -0.02632372  1
  H+  H33  1  0.27039296  0.14404896  0.17102743  1
  H+  H34  1  0.28451752  0.63288742  1.00027845  1
  H+  H35  1  0.35397182  0.20892980  0.83174243  1
  H+  H36  1  0.60785496  0.36821184  0.83639218  1
  H+  H37  1  0.16282701  0.35195898  0.50962025  1
  H+  H38  1  0.39102196  0.87107315  0.83047504  1
  H+  H39  1  0.37882344  0.34123954  0.84791615  1
  H+  H40  1  0.02836236  0.62572219  0.35154448  1
  H+  H41  1  0.35536067  0.12187781  0.82421540  1
  H+  H42  1  0.36682667  0.17583011  0.33868555  1
  H+  H43  1  0.55963306  0.38064662  0.78125258  1
  H+  H44  1  0.10925969  0.38285365  0.31682871  1
  H+  H45  1  0.13835745  0.02787807  0.18934146  1
  H+  H46  1  0.41976142  0.07946905  0.89520052  1
  H+  H47  1  0.43963168  0.88333412  0.67864218  1
  H+  H48  1  0.33671032  0.88845251  0.65130090  1
  H+  H49  1  0.47229223  0.85469733  0.82623962  1
  H+  H50  1  0.50840429  0.52300745  0.88327673  1
  H+  H51  1  0.12469451  0.88309707  0.99820828  1
  H+  H52  1  0.37339990  0.73704251  0.34132478  1
  H+  H53  1  0.87037023  0.84690447  0.50905030  1
  H+  H54  1  0.23096981  0.87235103  0.82780937  1
  H+  H55  1  0.56701460  0.91172807  0.65828788  1
  H+  H56  1  0.54793899  0.16924219  -0.00101829  1
  H+  H57  1  0.60746573  0.85886389  0.81790269  1
  H+  H58  1  0.36970787  0.30080011  0.30529308  1
  H+  H59  1  0.78065404  0.89072911  0.82639727  1
  H+  H60  1  0.60563295  0.71303236  0.66562104  1
  H+  H61  1  0.72587285  0.14405557  0.48902608  1
  H+  H62  1  0.11340437  0.13906369  0.16424300  1
  H+  H63  1  0.36689550  0.37869711  0.00728957  1
  H+  H64  1  0.06518811  0.65993919  0.02307554  1
  H+  H65  1  0.38092065  0.03353085  0.18660836  1
  H+  H66  1  0.64835820  0.85327219  0.65125097  1
  H+  H67  1  0.89127982  0.77406860  0.83453437  1
  H+  H68  1  0.63605591  0.26522166  0.83716822  1
  H+  H69  1  0.31316460  0.52580524  0.62393179  1
  H+  H70  1  0.32567486  0.16944454  0.73040823  1
  H+  H71  1  0.15202219  0.59128349  0.62986455  1
  H+  H72  1  0.63799142  0.35953729  0.18036733  1
  H+  H73  1  0.18364767  0.06806925  0.55102686  1
  H+  H74  1  0.25105996  0.63862357  0.34249609  1
  H+  H75  1  0.00993641  0.87711399  0.83461420  1
  H+  H76  1  0.63260734  0.26877240  0.17775419  1
  H+  H77  1  0.54024764  0.41779296  0.66509200  1
  H+  H78  1  0.64803568  0.76960056  0.17175921  1
  H+  H79  1  0.29776886  0.38647889  0.49669736  1
  H+  H80  1  0.72501084  0.12406918  0.26887247  1
  H+  H81  1  0.22713588  0.11380390  0.65081587  1
  H+  H82  1  -0.02372217  0.11616446  0.17009966  1
  H+  H83  1  0.38711755  1.03473870  0.50757100  1
  H+  H84  1  0.61723853  0.14421821  0.83130395  1
  H+  H85  1  0.87086131  0.71164877  0.34192597  1
  H+  H86  1  0.86876178  0.98421653  0.15977103  1
  H+  H87  1  0.62278372  0.48133071  0.16205655  1
  H+  H88  1  0.67197881  0.49481365  0.38885857  1
  H+  H89  1  0.86049881  0.46675550  0.80138445  1
  H+  H90  1  0.62099419  0.42168629  0.07688384  1
  H+  H91  1  0.14883726  0.63363848  0.34565134  1
  H+  H92  1  0.65310362  0.52020659  1.00168944  1
  H+  H93  1  -0.03330459  0.11592638  -0.00826789  1
  H+  H94  1  0.07486898  0.16382199  0.40184751  1
  H+  H95  1  0.02664413  0.37564989  0.81947327  1
  H+  H96  1  0.37814465  0.11868808  0.65955480  1
  H+  H97  1  0.53080515  0.62827329  0.00831462  1
  H+  H98  1  0.67584187  0.82683440  0.26897661  1
  H+  H99  1  0.75832521  0.14608502  0.98811996  1
  H+  H100  1  0.32946375  0.66205124  0.09854779  1
  H+  H101  1  0.14508090  1.01171383  -0.00728441  1
  H+  H102  1  0.65148529  0.77117974  0.83805814  1
  H+  H103  1  0.63312470  0.85868887  0.49800182  1
  H+  H104  1  0.89435811  0.87232347  0.98616465  1
  H+  H105  1  0.00936869  0.62910803  -0.03345399  1
  H+  H106  1  0.84869423  0.65288516  0.15542783  1
  H+  H107  1  0.47183595  0.12099006  0.18990455  1
  H+  H108  1  0.91368199  0.12447737  0.65634851  1
  H+  H109  1  0.11460477  0.46059189  0.00833698  1
  H+  H110  1  0.11052436  0.45323923  0.65811171  1
  H+  H111  1  -0.02076282  0.11061387  0.49837932  1
  H+  H112  1  0.87421592  0.13856818  0.31156935  1
  H+  H113  1  0.10715510  0.22412244  0.34284225  1
  H+  H114  1  0.86845444  0.90283470  0.66620085  1
  H+  H115  1  0.77894581  0.63766196  0.82869855  1
  H+  H116  1  0.06608419  0.40763913  0.23684326  1
  H+  H117  1  0.45995697  0.67557019  0.81351993  1
  H+  H118  1  0.07906071  0.40259966  0.43619513  1
  H+  H119  1  0.82382279  0.67790122  0.76339123  1
  H+  H120  1  0.40267988  0.62263906  0.50778784  1
  H+  H121  1  0.88223508  0.52200469  0.49670531  1
  H+  H122  1  0.34796056  0.72311758  0.15544263  1
  H+  H123  1  0.53330887  0.39330471  0.15428984  1
  H+  H124  1  0.78423310  0.07430417  0.68103211  1
  H+  H125  1  0.25013220  0.37305853  0.66260851  1
  H+  H126  1  0.78662702  0.14129525  0.14879076  1
  H+  H127  1  0.38056923  -0.00857414  0.33774289  1
  H+  H128  1  0.26812680  0.87723784  0.34145453  1
  H+  H129  1  0.53296998  0.63906892  0.49420638  1
  H+  H130  1  0.61540658  0.88914084  0.30506280  1
  H+  H131  1  0.59860575  0.13474408  0.67666656  1
  H+  H132  1  0.34814449  0.65209903  0.80952009  1
  H+  H133  1  0.85153995  0.13355986  0.47068186  1
  H+  H134  1  0.37346392  0.02766739  0.65774337  1
  H+  H135  1  0.05894283  0.97493969  0.11989671  1
  H+  H136  1  0.64729211  0.19713000  0.99473245  1
  H+  H137  1  0.85867472  0.97536496  0.00457230  1
  H+  H138  1  0.83666901  0.47143462  0.64408466  1
  H+  H139  1  0.36554878  0.97840910  0.81717900  1
  H+  H140  1  0.22681134  0.36384283  0.33101545  1
  H+  H141  1  0.52738221  0.64198740  0.34105462  1
  H+  H142  1  0.58274921  0.33456084  0.35256817  1
  H+  H143  1  0.19382362  0.33325236  0.57168084  1
  H+  H144  1  0.02322171  0.13649153  0.83778283  1
  H+  H145  1  0.14189492  0.62351600  0.19779365  1
  H+  H146  1  0.87548464  0.27024309  0.48320431  1
  H+  H147  1  0.39605102  0.60648899  0.98965366  1
  H+  H148  1  0.98253580  0.87126892  0.98311201  1
  H+  H149  1  0.42338844  0.84682793  0.56680662  1
  H+  H150  1  0.10578345  0.73686193  0.18788294  1
  H+  H151  1  0.59627800  0.13234181  0.40129871  1
  H+  H152  1  0.37012271  0.40949381  0.33739834  1
  H+  H153  1  0.42204703  0.06645444  0.27887257  1
  H+  H154  1  0.11244992  0.64454615  0.81470426  1
  H+  H155  1  0.88634479  0.61801673  0.81325600  1
  H+  H156  1  0.74877855  0.66818698  0.68763282  1
  H+  H157  1  0.52080378  0.86594060  0.01364857  1
  H+  H158  1  0.37349943  0.72875578  0.50152889  1
  H+  H159  1  0.78491638  0.88903592  0.16001004  1
  H+  H160  1  0.62056503  0.59052156  0.49954479  1
  H+  H161  1  0.54921893  0.10677083  0.12212338  1
  H+  H162  1  0.64901380  0.04402830  0.85463553  1
  H+  H163  1  0.96384397  0.34588714  0.64642088  1
  H+  H164  1  0.69868178  0.57340634  0.50136928  1
  H+  H165  1  0.89358944  0.49638724  0.35556558  1
  H+  H166  1  0.68879822  0.12027682  0.90384141  1
  H+  H167  1  0.21580540  0.61581913  0.82384219  1
  H+  H168  1  0.62141019  0.71704129  1.00571162  1
  H+  H169  1  0.58966875  0.96391062  0.46554281  1
  H+  H170  1  0.77456711  0.37923461  0.81652693  1
  H+  H171  1  0.08641355  0.90133993  0.40836999  1
  H+  H172  1  0.10403864  -0.03258626  0.35332843  1
  H+  H173  1  0.36918613  0.64499302  0.33959637  1
  H+  H174  1  0.60909008  0.94644871  0.03142036  1
  H+  H175  1  0.87020556  0.89277051  0.82420976  1
  H+  H176  1  -0.02459096  0.85048327  0.33351036  1
  H+  H177  1  0.61943076  0.35926005  0.50215331  1
  H+  H178  1  0.88981699  0.87468616  0.17646991  1
  H+  H179  1  0.12306724  0.12292556  0.48738585  1
  H+  H180  1  0.24349667  0.36174014  -0.01367385  1
  H+  H181  1  0.22386562  0.10500270  0.84082162  1
  H+  H182  1  0.39171426  0.28565732  0.16569484  1
  H+  H183  1  0.64147061  0.38255182  0.64457065  1
  H+  H184  1  0.11352814  0.22707641  0.15984376  1
  H+  H185  1  0.48055686  0.87284232  0.30957390  1
  H+  H186  1  0.59826404  0.31010849  1.00684565  1
  H+  H187  1  0.35677593  0.21685903  0.01224576  1
  H+  H188  1  0.88246696  0.25314510  0.15584496  1
  H+  H189  1  0.85703374  0.64007308  1.00841060  1
  H+  H190  1  0.87981450  0.78208398  0.17231433  1
  H+  H191  1  0.83921652  0.91963823  0.06525291  1
  H+  H192  1  0.63611842  0.84433426  0.99939188  1
  H+  H193  1  0.36405895  0.39395116  0.15586725  1
  H+  H194  1  0.14372168  0.78417275  0.64598401  1
  H+  H195  1  0.72936315  0.85444086  0.99550917  1
  H+  H196  1  0.38115300  0.46029936  0.83708865  1
  H+  H197  1  0.16223279  0.58428899  1.04718285  1
  H+  H198  1  0.59351880  0.92236260  0.21234789  1
  H+  H199  1  0.13553677  0.86153335  0.33722247  1
  H+  H200  1  0.28329147  0.88325765  -0.00657283  1
  H+  H201  1  0.40558729  0.37246471  0.66003875  1
  H+  H202  1  0.64216323  0.51265775  0.38890489  1
  H+  H203  1  0.63674673  0.25521429  0.34155823  1
  H+  H204  1  0.15423612  0.84720523  0.59036187  1
  H+  H205  1  0.14145615  0.78232298  0.82867826  1
  H+  H206  1  0.10971201  0.53367149  0.47258249  1
  H+  H207  1  0.15020954  0.35979516  -0.01149635  1
  H+  H208  1  0.24572872  0.61289714  0.63117292  1
  H+  H209  1  0.92069823  0.32767331  0.88369127  1
  H+  H210  1  0.66513044  0.13358921  0.16807039  1
  H+  H211  1  0.72476640  0.86241527  0.50338560  1
  H+  H212  1  0.14425575  0.95705061  0.49600296  1
  H+  H213  1  0.10410792  0.21404523  0.00519174  1
  H+  H214  1  0.84947267  0.39025412  0.48178588  1
  H+  H215  1  0.62545267  0.98224179  0.30782028  1
  H+  H216  1  0.63486884  0.50769026  0.84440925  1
  H+  H217  1  0.13029965  0.21409925  0.49764228  1
  H+  H218  1  0.65592441  0.64237215  0.31711255  1
  H+  H219  1  0.13630643  0.11056106  0.84610432  1
  H+  H220  1  0.39706530  0.85742408  0.98280379  1
  H+  H221  1  0.38518602  0.61551901  0.17306144  1
  H+  H222  1  0.87505018  0.13765980  0.14854808  1
  H+  H223  1  0.35965598  0.14663454  0.17106596  1
  H+  H224  1  0.63732272  0.60344923  0.99903254  1
  H+  H225  1  0.84557804  0.61880313  0.49620751  1
  H+  H226  1  0.64338695  0.80896629  0.58786254  1
  H+  H227  1  0.76506753  0.35796789  0.34594304  1
  H+  H228  1  0.37915482  0.86516283  0.51029988  1
  H+  H229  1  0.75341577  0.64123826  0.15681990  1
  H+  H230  1  0.86074099  -0.02803996  0.49376549  1
  H+  H231  1  0.97890113  0.59684712  0.20140938  1
  H+  H232  1  0.61748494  0.57038599  0.65539668  1
  H+  H233  1  0.87008661  0.34343670  0.16632162  1
  H+  H234  1  0.19818220  0.10594560  0.34858034  1
  H+  H235  1  0.36436596  0.23364982  0.67292761  1
  H+  H236  1  0.62064120  0.47250117  0.70953331  1
  H+  H237  1  0.13528001  0.18306704  0.69261080  1
  H+  H238  1  0.72288222  0.14320101  0.64614515  1
  H+  H239  1  0.13583004  0.09808032  0.62703713  1
  H+  H240  1  0.63346664  0.77551908  0.33023368  1
  H+  H241  1  0.37312840  0.72154175  0.99797541  1
  H+  H242  1  0.50642449  0.12722026  0.68350734  1
  H+  H243  1  0.86223432  0.45223836  0.17439153  1
  H+  H244  1  0.47929132  0.11226930  0.83694605  1
  H+  H245  1  0.44050016  0.86779577  0.16372134  1
  H+  H246  1  0.40246371  0.53218165  0.50535092  1
  H+  H247  1  0.89182456  0.35675930  0.82293494  1
  H+  H248  1  0.88306192  0.57367251  0.21358276  1
  H+  H249  1  0.63184199  0.61188996  0.16777743  1
  H+  H250  1  0.85522735  0.86844021  0.34770243  1
  H+  H251  1  0.67838472  0.32770484  0.89467759  1
  H+  H252  1  0.38517429  0.52718426  0.17226606  1
  H+  H253  1  0.87058428  0.22397062  0.81723363  1
  H+  H254  1  0.45916719  0.23805970  0.36869962  1
  H+  H255  1  0.23768206  0.10933770  0.99749683  1
  H+  H256  1  0.82905885  0.27348336  0.32101377  1
  H+  H257  1  0.52214453  0.63843938  0.16045266  1
  H+  H258  1  0.39284859  0.40163814  0.48929002  1
  H+  H259  1  0.13394617  0.36023776  0.18336064  1
  H+  H260  1  0.86507372  0.52683406  1.00121101  1
  H+  H261  1  0.91269564  0.09782205  0.22771231  1
  H+  H262  1  0.88823084  1.02342263  0.84115728  1
  H+  H263  1  0.10529533  0.65305674  0.49081463  1
  H+  H264  1  0.42310915  0.10299590  0.34755312  1
  H+  H265  1  0.75849404  0.63114661  0.00574277  1
  H+  H266  1  0.22489826  0.36466715  0.17185262  1
  H+  H267  1  0.46745605  0.35626101  0.32267476  1
  H+  H268  1  0.83739203  0.16369687  0.05317656  1
  H+  H269  1  0.03672360  0.15678471  0.67884269  1
  H+  H270  1  0.28151110  0.38491864  0.83209865  1
  H+  H271  1  0.88682363  0.11211528  0.83888655  1
  H+  H272  1  0.89658686  0.82420372  0.59858976  1
  H+  H273  1  0.07744188  0.66732555  0.13568590  1
  H+  H274  1  0.81582832  0.37898638  0.71838709  1
  H+  H275  1  0.70023446  0.34122630  0.65117481  1
  H+  H276  1  0.47375054  0.33643576  0.99695687  1
  H+  H277  1  0.08871350  0.90806403  0.05801393  1
  H+  H278  1  0.14557927  0.77486220  0.97253244  1
  H+  H279  1  0.77949005  0.13914287  0.82590411  1
  H+  H280  1  0.26664489  0.89719974  0.49264858  1
  H+  H281  1  0.63595711  0.63861791  0.82231371  1
  H+  H282  1  0.95992094  0.13130813  0.32091600  1
  H+  H283  1  0.77291579  0.87931597  0.34561280  1
  H+  H284  1  0.07319123  0.64974809  0.65947343  1
  H+  H285  1  0.95858501  0.65509400  0.65709144  1
  H+  H286  1  0.66099210  0.86444255  0.17840419  1
  H+  H287  1  0.45054757  0.65048442  0.78423962  1
  H+  H288  1  0.44128676  0.34644268  0.60157399  1
  H+  H289  1  0.17431642  0.07896072  0.93185422  1
  H+  H290  1  0.10913764  0.97617860  0.83756404  1
  H+  H291  1  0.80213078  0.53521419  0.63233956  1
  H+  H292  1  0.11215290  0.10727781  0.33744892  1
  H+  H293  1  0.08385825  0.17398916  0.77934081  1
  H+  H294  1  0.34270265  0.89730748  0.05088716  1
  H+  H295  1  0.41737990  0.09125492  0.56770924  1
  H+  H296  1  0.33203148  0.68103379  0.71618407  1
  H+  H297  1  0.60553081  0.19059864  0.08632863  1
  H+  H298  1  0.02961093  0.65169745  0.79979778  1
  H+  H299  1  0.09784232  0.47056671  0.18205141  1
  H+  H300  1  0.37362953  0.47816599  0.67767549  1
  H+  H301  1  0.13441587  0.26661428  0.84622140  1
  H+  H302  1  0.29760023  0.94959764  0.11599959  1
  H+  H303  1  0.83003085  0.90881442  0.43626272  1
  H+  H304  1  0.39702854  0.11414727  0.99647481  1
  H+  H305  1  0.01393936  0.64876879  0.49438231  1
  H+  H306  1  0.15530951  0.84225216  0.24834613  1
  H+  H307  1  0.34062274  0.42769827  0.40126443  1
  H+  H308  1  -0.00806059  0.39321467  0.45755696  1
  H+  H309  1  0.57699208  0.16216835  0.77062816  1
  H+  H310  1  0.91172840  0.08440267  0.92891085  1
  H+  H311  1  0.43716247  0.57207417  0.93787635  1
  H+  H312  1  0.58828994  0.66839636  0.40005558  1
  H+  H313  1  0.85086404  0.93972660  0.72673575  1
  H+  H314  1  0.25388242  0.89392358  0.66205708  1
  H+  H315  1  0.57734943  0.46020875  0.49602277  1
  H+  H316  1  0.92243227  0.54525802  0.29402782  1
  H+  H317  1  0.82199832  0.67257125  0.06976465  1
  H+  H318  1  0.16197058  0.08623941  0.24834989  1
  H+  H319  1  0.08595222  0.67764041  0.40769844  1
  H+  H320  1  0.54087715  0.81181337  0.76675700  1
  H+  H321  1  0.32870308  0.41893705  0.09854131  1
  H+  H322  1  0.40951419  0.31403782  0.94160640  1
  H+  H323  1  0.42828046  0.35338731  0.22002654  1
  H+  H324  1  0.65765750  0.31662895  0.28258919  1
  H+  H325  1  0.35207440  0.41849553  0.73790117  1
  H+  H326  1  0.40390366  0.57485235  0.59378082  1
  H+  H327  1  0.82143512  0.43013334  0.07527632  1
  H+  H328  1  -0.00037414  0.56727760  0.08139184  1
  H+  H329  1  0.81639902  0.16199840  0.41173031  1
  H+  H330  1  0.32328037  0.15800197  0.07196435  1
  H+  H331  1  0.12240073  0.68861098  0.71945492  1
  H+  H332  1  0.58240076  0.66328348  0.10082346  1
  H+  H333  1  0.34898660  0.67197669  0.44239289  1
  H+  H334  1  0.92937206  0.58432182  0.86101878  1
  H+  H335  1  0.03981578  0.56510385  0.08785189  1
  H+  H336  1  0.81436069  0.64618563  0.43774117  1
  H+  H337  1  0.04627549  0.41573113  0.33960242  1
  H+  H338  1  0.76516055  0.39750448  0.48711373  1
  H+  H339  1  0.42874349  0.82914060  0.92524013  1
  H+  H340  1  0.46673048  0.33947166  0.85192566  1
  H+  H341  1  0.91873460  0.82657535  0.27295686  1
  H+  H342  1  0.36409853  0.18384573  0.44171253  1
  H+  H343  1  0.13326014  0.77057560  0.33267532  1
  H+  H344  1  0.66749120  0.56976214  0.90268296  1
  H+  H345  1  0.90047405  0.56915730  0.55986386  1
  H+  H346  1  0.86002674  0.56676986  0.93808613  1
  H+  H347  1  0.51268037  0.59542623  0.84352303  1
  H+  H348  1  0.06801515  0.16115666  0.06608528  1
  H+  H349  1  0.16959403  0.58233928  0.52882088  1
  H+  H350  1  0.11428640  0.88548574  0.83139330  1
  H+  H351  1  0.90957382  0.32490715  0.54393586  1
  H+  H352  1  0.15882338  0.58058960  0.88283510  1
  H+  H353  1  0.67111462  0.82841360  0.89819830  1
  H+  H354  1  0.07370411  0.38329948  0.05522626  1
  H+  H355  1  0.17228281  0.32658605  0.26970430  1
  H+  H356  1  0.92049913  0.83669379  0.89527385  1
  H+  H357  1  0.18087722  0.84379834  0.92061461  1
  H+  H358  1  0.32991213  0.91854308  0.75719666  1
  H+  H359  1  0.67600940  0.59965870  0.22815789  1
  H+  H360  1  0.74040334  0.63143139  0.31688539  1
  H+  H361  1  0.61654857  0.93713583  0.71935923  1
  H+  H362  1  0.12668544  0.59658757  0.98650917  1
  H+  H363  1  0.42330461  0.29350731  0.50289890  1
  H+  H364  1  0.33078465  0.91695935  0.43840202  1
  H+  H365  1  0.58007317  0.90796326  0.13768557  1
  H+  H366  1  0.88433409  0.25094988  0.64137892  1
  H+  H367  1  0.17838092  0.59738141  0.28422475  1
  H+  H368  1  0.92532883  0.09152989  0.55756855  1
  H+  H369  1  0.36799030  0.64626868  0.66263135  1
  H+  H370  1  0.84579937  0.74227451  0.67906453  1
  H+  H371  1  0.66167448  0.12103142  0.54776766  1
  H+  H372  1  0.88997206  0.26971570  0.97544446  1
  H+  H373  1  0.82865489  0.14484296  0.73238679  1
  H+  H374  1  0.65661041  0.33469699  0.55775079  1
  H+  H375  1  0.86099419  0.12787336  0.99203266  1
  H+  H376  1  0.84016045  0.34686612  0.65708658  1
  H+  H377  1  0.51600357  0.87539378  0.48814384  1
  H+  H378  1  0.86466565  0.61926601  0.34800298  1
  H+  H379  1  0.09604301  0.96693326  0.66814429  1
  H+  H380  1  0.41661415  0.59009750  0.26854270  1
  H+  H381  1  0.40208595  0.83207071  0.26428690  1
  H+  H382  1  0.07563482  0.40785125  0.72172767  1
  H+  H383  1  0.17454492  0.33221890  0.91551968  1
  O2-  O384  1  0.08320397  0.16625448  0.14501960  1
  O2-  O385  1  0.09424449  0.15678855  0.47880351  1
  O2-  O386  1  0.08562738  0.16847538  0.82474192  1
  O2-  O387  1  0.06715454  0.40810445  0.18974151  1
  O2-  O388  1  0.04500827  0.43068045  0.43278263  1
  O2-  O389  1  0.08985714  0.40368210  0.80909968  1
  O2-  O390  1  0.08176571  0.67389751  0.17981957  1
  O2-  O391  1  0.07525815  0.68654582  0.48024187  1
  O2-  O392  1  0.09372925  0.68357316  0.79703781  1
  O2-  O393  1  0.06689346  0.92984914  0.13829612  1
  O2-  O394  1  0.10821635  0.89476220  0.48443738  1
  O2-  O395  1  0.07864451  0.91432188  0.82366607  1
  O2-  O396  1  0.32822410  0.17187862  0.15107853  1
  O2-  O397  1  0.35488981  0.18725740  0.48557997  1
  O2-  O398  1  0.32204931  0.15071268  0.81261089  1
  O2-  O399  1  0.32981395  0.42148306  0.14364782  1
  O2-  O400  1  0.35454552  0.42441100  0.47728152  1
  O2-  O401  1  0.34056049  0.40374031  0.81820695  1
  O2-  O402  1  0.32333234  0.66225795  0.14347817  1
  O2-  O403  1  0.35399027  0.66956037  0.48673687  1
  O2-  O404  1  0.31507565  0.67954659  0.79778204  1
  O2-  O405  1  0.30863576  0.93381425  0.15610301  1
  O2-  O406  1  0.32824303  0.92081882  0.48304898  1
  O2-  O407  1  0.33316852  0.91735160  0.80244704  1
  O2-  O408  1  0.59320662  0.16643277  0.12914703  1
  O2-  O409  1  0.59534844  0.07095398  0.46318666  1
  O2-  O410  1  0.58319930  0.17100644  0.81760411  1
  O2-  O411  1  0.59642139  0.42072463  0.14644076  1
  O2-  O412  1  0.53770891  0.39243870  0.48293194  1
  O2-  O413  1  0.57122253  0.39428528  0.82435253  1
  O2-  O414  1  0.58305942  0.66613609  0.14614657  1
  O2-  O415  1  0.59147825  0.66437969  0.47576476  1
  O2-  O416  1  0.60564432  0.66900188  0.80840769  1
  O2-  O417  1  0.62080379  0.93593174  0.17096672  1
  O2-  O418  1  0.57402503  0.90292756  0.47004729  1
  O2-  O419  1  0.56479519  0.86437691  0.79099773  1
  O2-  O420  1  0.84552140  0.16851433  0.12923955  1
  O2-  O421  1  0.82170625  0.16453964  0.45788285  1
  O2-  O422  1  0.83737130  0.16082126  0.80728832  1
  O2-  O423  1  0.82711693  0.39781789  0.15159571  1
  O2-  O424  1  0.82580990  0.42783696  0.47199284  1
  O2-  O425  1  0.83202595  0.40362279  0.79714361  1
  O2-  O426  1  0.81697641  0.67918751  0.13911255  1
  O2-  O427  1  0.80701983  0.64112544  0.48251546  1
  O2-  O428  1  0.83623913  0.67184544  0.80993397  1
  O2-  O429  1  0.84505535  0.92398363  0.14398892  1
  O2-  O430  1  0.82810297  0.91049622  0.48232681  1
  O2-  O431  1  0.84134536  0.92536271  0.81251658  1
  O2-  O432  1  0.16870039  0.08815560  0.20304485  1
  O2-  O433  1  0.18487953  0.06856248  0.50576274  1
  O2-  O434  1  0.16464999  0.07760338  0.86035527  1
  O2-  O435  1  0.16612936  0.32913932  0.18942043  1
  O2-  O436  1  0.19308032  0.32395839  0.52570242  1
  O2-  O437  1  0.16730611  0.32970621  0.86013269  1
  O2-  O438  1  0.16949994  0.58951126  0.20909414  1
  O2-  O439  1  0.14718901  0.59124786  0.49038142  1
  O2-  O440  1  0.15491984  0.57970762  0.83864936  1
  O2-  O441  1  0.15337119  0.84381613  0.20161673  1
  O2-  O442  1  0.15442566  0.85360600  0.50992585  1
  O2-  O443  1  0.17131206  0.84237170  0.84580273  1
  O2-  O444  1  0.41382749  0.09075007  0.20717595  1
  O2-  O445  1  0.41638226  0.09449766  0.52261743  1
  O2-  O446  1  0.41733407  0.07802419  0.85020706  1
  O2-  O447  1  0.42611214  0.34818518  0.17481032  1
  O2-  O448  1  0.45483053  0.35624463  0.51577179  1
  O2-  O449  1  0.40568484  0.30903666  0.86589251  1
  O2-  O450  1  0.41712093  0.58735568  0.18802986  1
  O2-  O451  1  0.43159030  0.59001061  0.52442375  1
  O2-  O452  1  0.47208767  0.54631885  0.87044164  1
  O2-  O453  1  0.38308940  0.83307959  0.18077480  1
  O2-  O454  1  0.40940413  0.83426419  0.52341718  1
  O2-  O455  1  0.41517130  0.83487932  0.84573293  1
  O2-  O456  1  0.69843673  0.10840651  0.18496273  1
  O2-  O457  1  0.66632293  0.13615908  0.50177814  1
  O2-  O458  1  0.68184065  0.10629726  0.85828658  1
  O2-  O459  1  0.66477908  0.32620335  0.19592977  1
  O2-  O460  1  0.66217241  0.34274922  0.51267523  1
  O2-  O461  1  0.67003188  0.32877997  0.85099200  1
  O2-  O462  1  0.66786348  0.58652344  0.18146037  1
  O2-  O463  1  0.63618364  0.54650434  0.51158765  1
  O2-  O464  1  0.66438249  0.56862415  0.85760398  1
  O2-  O465  1  0.68648770  0.82829361  0.18879431  1
  O2-  O466  1  0.66229423  0.82799724  0.51466061  1
  O2-  O467  1  0.67341262  0.83130326  0.85292588  1
  O2-  O468  1  0.91444071  0.08853005  0.18130774  1
  O2-  O469  1  0.91943646  0.08681664  0.51279693  1
  O2-  O470  1  0.91893551  0.08464854  0.85612601  1
  O2-  O471  1  0.90344673  0.31277497  0.17764797  1
  O2-  O472  1  0.90579609  0.33001836  0.49940285  1
  O2-  O473  1  0.92304940  0.32736353  0.83761257  1
  O2-  O474  1  0.92081413  0.54939285  0.21353303  1
  O2-  O475  1  0.91311993  0.58205834  0.51572611  1
  O2-  O476  1  0.92019121  0.58635393  0.81758715  1
  O2-  O477  1  0.91750323  0.84005284  0.18979296  1
  O2-  O478  1  0.89565496  0.81377335  0.52700259  1
  O2-  O479  1  0.92446499  0.83587816  0.84870843  1
  O2-  O480  1  0.14440459  0.07525505  0.32613045  1
  O2-  O481  1  0.17261298  0.07283528  0.62907536  1
  O2-  O482  1  0.17624378  0.07463329  0.97848533  1
  O2-  O483  1  0.16744972  0.32753476  0.31483218  1
  O2-  O484  1  0.19448020  0.35528052  0.64179092  1
  O2-  O485  1  0.18119360  0.33142983  0.96995103  1
  O2-  O486  1  0.18506036  0.60731926  0.32974976  1
  O2-  O487  1  0.18873251  0.56908309  0.61550233  1
  O2-  O488  1  0.16085551  0.57174572  1.00375921  1
  O2-  O489  1  0.16507999  0.83186313  0.31803502  1
  O2-  O490  1  0.15888016  0.84405139  0.63530941  1
  O2-  O491  1  0.18045974  0.83767309  0.96640530  1
  O2-  O492  1  0.42599792  0.05567343  0.32339488  1
  O2-  O493  1  0.40948218  0.08895464  0.64631194  1
  O2-  O494  1  0.43409108  0.09278446  0.97976060  1
  O2-  O495  1  0.42001401  0.35709192  0.29846534  1
  O2-  O496  1  0.43686337  0.34227555  0.64644507  1
  O2-  O497  1  0.41274026  0.31712954  0.98738302  1
  O2-  O498  1  0.41690194  0.59412183  0.31376295  1
  O2-  O499  1  0.37364570  0.56023226  0.63528969  1
  O2-  O500  1  0.42620042  0.57346729  0.98213301  1
  O2-  O501  1  0.41605908  0.83779288  0.30811589  1
  O2-  O502  1  0.45149185  0.85206917  0.64765542  1
  O2-  O503  1  0.42685367  0.82571029  0.97058709  1
  O2-  O504  1  0.72071915  0.11254694  0.31306809  1
  O2-  O505  1  0.66423478  0.10812303  0.63047731  1
  O2-  O506  1  0.69806887  0.14017614  0.97281814  1
  O2-  O507  1  0.65688757  0.31691216  0.32747536  1
  O2-  O508  1  0.64450472  0.33093774  0.63489410  1
  O2-  O509  1  0.58217691  0.35501055  0.99895250  1
  O2-  O510  1  0.69365893  0.62940164  0.29162841  1
  O2-  O511  1  0.64818156  0.63433424  0.65569038  1
  O2-  O512  1  0.67339769  0.57842728  0.98330775  1
  O2-  O513  1  0.66496289  0.83482637  0.31213197  1
  O2-  O514  1  0.62661872  0.79724660  0.63200812  1
  O2-  O515  1  0.66882488  0.81978716  0.97988938  1
  O2-  O516  1  0.90973720  0.11435321  0.29473272  1
  O2-  O517  1  0.95071365  0.10144697  0.64281885  1
  O2-  O518  1  0.90674958  0.08272446  0.97455091  1
  O2-  O519  1  0.84281689  0.33122211  0.30255700  1
  O2-  O520  1  0.90574189  0.30989679  0.62738937  1
  O2-  O521  1  0.92245935  0.32794079  0.95755365  1
  O2-  O522  1  0.92382315  0.55535815  0.33828774  1
  O2-  O523  1  0.85401033  0.53105918  0.63100000  1
  O2-  O524  1  0.89455240  0.58341401  0.97516859  1
  O2-  O525  1  0.91602640  0.81693059  0.31739078  1
  O2-  O526  1  0.89810733  0.83308993  0.64459882  1
  O2-  O527  1  0.92425861  0.84488488  0.96616395  1
  O2-  O528  1  0.06117859  0.15814732  0.02116192  1
  O2-  O529  1  0.07097695  0.16321986  0.35654422  1
  O2-  O530  1  0.09086837  0.19630336  0.70394125  1
  O2-  O531  1  0.08954289  0.39716794  0.01255629  1
  O2-  O532  1  0.08005214  0.41511337  0.30481348  1
  O2-  O533  1  0.05833916  0.41252112  0.68012938  1
  O2-  O534  1  0.07076765  0.65582425  -0.02085792  1
  O2-  O535  1  0.08960544  0.66933021  0.36207433  1
  O2-  O536  1  0.13118779  0.68741216  0.67466990  1
  O2-  O537  1  0.09627562  0.91540332  0.01339309  1
  O2-  O538  1  0.08197202  0.90598160  0.36339174  1
  O2-  O539  1  0.06108853  0.90892036  0.68491929  1
  O2-  O540  1  0.32511911  0.15507935  0.02654862  1
  O2-  O541  1  0.40663686  0.17613558  0.36879921  1
  O2-  O542  1  0.32515816  0.17290860  0.68532951  1
  O2-  O543  1  0.33352326  0.40825144  0.01654207  1
  O2-  O544  1  0.33370528  0.43018452  0.35605892  1
  O2-  O545  1  0.35338982  0.41860887  0.69274043  1
  O2-  O546  1  0.34406075  0.66200287  0.01538276  1
  O2-  O547  1  0.34056997  0.67685733  0.35670092  1
  O2-  O548  1  0.34687325  0.68712755  0.67241785  1
  O2-  O549  1  0.34457575  0.91227055  0.00812358  1
  O2-  O550  1  0.32916401  0.90685660  0.35673807  1
  O2-  O551  1  0.31518749  0.91734829  0.67740585  1
  O2-  O552  1  0.60627370  0.21325934  0.01293223  1
  O2-  O553  1  0.60760516  0.16099285  0.36023294  1
  O2-  O554  1  0.56025858  0.14136407  0.70545758  1
  O2-  O555  1  0.64613835  0.43042249  0.03341417  1
  O2-  O556  1  0.52767206  0.33228705  0.36698055  1
  O2-  O557  1  0.60185959  0.46495010  0.66742156  1
  O2-  O558  1  0.59172190  0.65687375  0.02263321  1
  O2-  O559  1  0.58820251  0.67310458  0.35430574  1
  O2-  O560  1  0.58969223  0.65605878  0.68742453  1
  O2-  O561  1  0.57343624  0.88513719  0.03915174  1
  O2-  O562  1  0.58780979  0.92413230  0.29166677  1
  O2-  O563  1  0.62523708  0.94947487  0.67542168  1
  O2-  O564  1  0.83445073  0.16350072  0.00774653  1
  O2-  O565  1  0.80902899  0.17442242  0.33559790  1
  O2-  O566  1  0.82454087  0.13549841  0.68686381  1
  O2-  O567  1  0.80912954  0.44504390  0.03444685  1
  O2-  O568  1  0.82715049  0.37569987  0.35222593  1
  O2-  O569  1  0.80588343  0.37175872  0.67389681  1
  O2-  O570  1  0.82242903  0.66718299  0.02302939  1
  O2-  O571  1  0.83412317  0.65110797  0.35594174  1
  O2-  O572  1  0.80827718  0.68478368  0.69961157  1
  O2-  O573  1  0.83412783  0.91544475  0.01980851  1
  O2-  O574  1  0.83110557  0.90342154  0.36312247  1
  O2-  O575  1  0.85439752  0.94691700  0.68224844  1
