# generated using pymatgen
data_H2O
_symmetry_space_group_name_H-M   'P 1'
_cell_length_a   17.98376614
_cell_length_b   17.98567293
_cell_length_c   22.00670994
_cell_angle_alpha   90.00684289
_cell_angle_beta   89.98702254
_cell_angle_gamma   120.01111056
_symmetry_Int_Tables_number   1
_chemical_formula_structural   H2O
_chemical_formula_sum   'H384 O192'
_cell_volume   6163.74189506
_cell_formula_units_Z   192
loop_
 _symmetry_equiv_pos_site_id
 _symmetry_equiv_pos_as_xyz
  1  'x, y, z'
loop_
 _atom_type_symbol
 _atom_type_oxidation_number
  H+  1.0
  O2-  -2.0
loop_
 _atom_site_type_symbol
 _atom_site_label
 _atom_site_symmetry_multiplicity
 _atom_site_fract_x
 _atom_site_fract_y
 _atom_site_fract_z
 _atom_site_occupancy
  H+  H0  1  0.57576738  0.66772660  0.43547388  1
  H+  H1  1  0.77118203  0.38034374  0.33157223  1
  H+  H2  1  0.28239884  0.39790505  0.16034364  1
  H+  H3  1  0.13320753  0.62167515  0.64840372  1
  H+  H4  1  0.77127171  0.64030754  0.17039489  1
  H+  H5  1  0.11102803  0.38069224  0.49325952  1
  H+  H6  1  0.97333644  0.35438778  0.32685956  1
  H+  H7  1  0.27104936  0.12592819  0.01734777  1
  H+  H8  1  0.61940369  0.81221276  0.15566701  1
  H+  H9  1  0.09816287  0.60546452  0.16855920  1
  H+  H10  1  0.63755863  0.60684139  0.66979398  1
  H+  H11  1  0.07152813  0.57697352  0.47828078  1
  H+  H12  1  0.38685995  0.48861156  0.01022408  1
  H+  H13  1  0.86511907  0.63155751  0.99423757  1
  H+  H14  1  0.16122114  0.82510699  0.50933617  1
  H+  H15  1  0.87405702  0.60700449  0.83855753  1
  H+  H16  1  0.73296785  0.36049012  0.84107502  1
  H+  H17  1  0.48126665  0.58738347  0.85129703  1
  H+  H18  1  0.14310813  0.85996633  0.33657805  1
  H+  H19  1  0.62812883  0.73766798  1.01181349  1
  H+  H20  1  0.89549953  1.02129191  0.50217138  1
  H+  H21  1  0.35858559  0.72140232  0.33506137  1
  H+  H22  1  0.40965321  0.38123995  0.97971167  1
  H+  H23  1  0.22386318  0.60883323  0.32105989  1
  H+  H24  1  0.23776026  0.34632232  0.80870158  1
  H+  H25  1  0.60526346  0.97054166  0.48648321  1
  H+  H26  1  0.37642299  0.40295116  0.32505559  1
  H+  H27  1  0.27752340  0.14557239  0.50573525  1
  H+  H28  1  0.11736374  0.97788852  0.00807925  1
  H+  H29  1  0.35718977  0.69513701  1.08339872  1
  H+  H30  1  0.10685112  0.75040669  0.15897961  1
  H+  H31  1  0.12017191  0.52299036  0.65530612  1
  H+  H32  1  0.41902110  0.85159293  0.91336228  1
  H+  H33  1  0.38777462  0.85083440  0.31815918  1
  H+  H34  1  0.37862677  0.59970210  0.49654056  1
  H+  H35  1  0.88359840  0.35558619  0.49968037  1
  H+  H36  1  0.26015706  0.63086971  0.65074662  1
  H+  H37  1  0.64925833  0.88339245  0.50591526  1
  H+  H38  1  0.88346635  0.35404338  0.32633721  1
  H+  H39  1  0.12899837  0.24472588  0.80392717  1
  H+  H40  1  0.08775183  0.72918976  0.47653649  1
  H+  H41  1  0.14287860  0.03193861  0.85134410  1
  H+  H42  1  0.41943911  0.37311198  0.50925644  1
  H+  H43  1  0.64608826  0.11195269  0.32426547  1
  H+  H44  1  0.37366780  0.98607846  0.67217333  1
  H+  H45  1  0.17831450  0.08609722  0.94145268  1
  H+  H46  1  1.00617562  0.88640409  0.85241707  1
  H+  H47  1  0.32248247  0.64844323  0.80385827  1
  H+  H48  1  0.86725703  0.49178568  0.65912131  1
  H+  H49  1  0.35728753  0.71840208  0.48850082  1
  H+  H50  1  0.10251768  0.36868981  0.66671949  1
  H+  H51  1  0.72488786  0.36124163  0.17446327  1
  H+  H52  1  -0.01978788  0.57313248  0.47723900  1
  H+  H53  1  0.62857538  1.04976223  0.82652179  1
  H+  H54  1  0.27247702  0.88001578  0.01061413  1
  H+  H55  1  0.78451852  0.89630843  0.49961277  1
  H+  H56  1  0.27821408  0.87855779  0.33695090  1
  H+  H57  1  0.56200535  0.71297584  0.81178796  1
  H+  H58  1  0.86584411  0.23526795  0.83257319  1
  H+  H59  1  0.51957859  0.64682689  0.34060640  1
  H+  H60  1  0.10976092  0.27116517  -0.02006285  1
  H+  H61  1  0.86658530  0.14627963  -0.01645029  1
  H+  H62  1  0.39290960  0.53566665  0.32042315  1
  H+  H63  1  0.62502245  0.37564809  0.48301192  1
  H+  H64  1  0.02554052  0.13821391  0.00515857  1
  H+  H65  1  0.78348019  0.89140523  0.01331741  1
  H+  H66  1  0.61705594  0.60778422  0.32621972  1
  H+  H67  1  0.13139759  0.76509584  0.65924818  1
  H+  H68  1  0.13488109  0.51209386  0.50082094  1
  H+  H69  1  0.88291669  0.67940922  0.72285976  1
  H+  H70  1  0.36634093  0.00269229  0.82204934  1
  H+  H71  1  0.89306489  0.10997450  0.33241475  1
  H+  H72  1  0.61666604  0.72196180  0.66686541  1
  H+  H73  1  0.98297635  0.11262216  0.33853125  1
  H+  H74  1  0.33124108  0.15833715  0.07696321  1
  H+  H75  1  0.12725120  0.92142634  0.49473108  1
  H+  H76  1  0.86835942  0.59988364  0.49999057  1
  H+  H77  1  0.76598879  0.36704086  0.48812970  1
  H+  H78  1  0.49645469  0.37534064  0.98375298  1
  H+  H79  1  0.96023768  0.56273572  0.63908450  1
  H+  H80  1  0.09984642  0.35318271  -0.00412802  1
  H+  H81  1  0.15757323  0.57606054  0.55785640  1
  H+  H82  1  0.36409872  0.23304676  0.16646928  1
  H+  H83  1  0.76101505  0.38193449  -0.00598286  1
  H+  H84  1  -0.03234424  0.34812882  0.17442731  1
  H+  H85  1  0.37717043  0.23136783  0.81641131  1
  H+  H86  1  0.89306067  0.77892143  0.65499824  1
  H+  H87  1  0.86072730  0.47555326  0.99263880  1
  H+  H88  1  0.98627006  0.35566571  0.85512375  1
  H+  H89  1  0.11986841  0.14430854  0.49897609  1
  H+  H90  1  0.26864885  0.55203846  0.78794828  1
  H+  H91  1  0.13967468  0.86413678  -0.00589513  1
  H+  H92  1  0.61142832  0.15297447  0.82009232  1
  H+  H93  1  0.48232826  0.63408814  0.17536383  1
  H+  H94  1  0.32178102  0.90923594  0.11016584  1
  H+  H95  1  0.21759241  0.10658406  0.33138157  1
  H+  H96  1  0.65122978  0.58205758  0.26645932  1
  H+  H97  1  0.09378817  0.22468493  0.67488527  1
  H+  H98  1  0.85508847  0.63211941  0.17495871  1
  H+  H99  1  0.54088160  0.38060403  0.48979529  1
  H+  H100  1  0.98194398  0.60680102  0.98496345  1
  H+  H101  1  0.50024897  0.85434674  0.67154147  1
  H+  H102  1  0.63302844  0.35721258  0.66325876  1
  H+  H103  1  0.28868064  0.64948816  0.03029636  1
  H+  H104  1  0.86468733  0.97276570  0.34139517  1
  H+  H105  1  0.35926445  0.45157108  0.84418785  1
  H+  H106  1  0.82738947  0.80949010  0.87511482  1
  H+  H107  1  0.02653688  0.89118460  0.49894082  1
  H+  H108  1  0.90888403  0.03224354  0.17661871  1
  H+  H109  1  0.11891095  0.72926309  -0.00110325  1
  H+  H110  1  0.53404621  0.89104190  0.00207561  1
  H+  H111  1  0.41543913  0.15791191  0.34899555  1
  H+  H112  1  0.29341523  0.90745491  0.48971143  1
  H+  H113  1  0.52467720  0.63365632  0.66414997  1
  H+  H114  1  0.11512157  0.89020862  0.16481695  1
  H+  H115  1  0.36944296  0.14760077  0.34807286  1
  H+  H116  1  0.24873233  0.38399964  0.64078359  1
  H+  H117  1  0.98218537  0.38322253  0.65531005  1
  H+  H118  1  0.88995488  0.12699774  0.84249670  1
  H+  H119  1  0.69155780  0.77123529  0.83985739  1
  H+  H120  1  0.61618401  0.86558103  0.82347164  1
  H+  H121  1  0.40013070  0.27606293  0.51442133  1
  H+  H122  1  0.13776453  0.76784166  0.33411602  1
  H+  H123  1  0.63910352  0.61580694  1.00586506  1
  H+  H124  1  0.38823519  0.67171657  0.17526799  1
  H+  H125  1  0.61209681  -0.02745574  0.33339260  1
  H+  H126  1  0.60991920  0.22261609  0.66675564  1
  H+  H127  1  0.37516080  0.10410104  0.01349865  1
  H+  H128  1  0.14266070  0.12662653  0.66320939  1
  H+  H129  1  0.64424728  0.03099219  0.65586733  1
  H+  H130  1  0.61504427  0.60135996  0.84402848  1
  H+  H131  1  0.50349279  0.92957058  0.81787518  1
  H+  H132  1  0.09551165  0.89416050  0.83986621  1
  H+  H133  1  0.40968943  -0.00389584  0.31353483  1
  H+  H134  1  0.39567291  0.03082260  0.49863502  1
  H+  H135  1  0.13714442  0.03658312  0.51096311  1
  H+  H136  1  0.03532459  0.14624062  0.16026016  1
  H+  H137  1  0.85447324  0.93358508  0.75221468  1
  H+  H138  1  0.35808676  0.90965351  0.83180712  1
  H+  H139  1  0.27515475  0.14129857  0.16894635  1
  H+  H140  1  0.10276642  0.47650304  1.02352425  1
  H+  H141  1  0.72567807  0.60496720  0.67052651  1
  H+  H142  1  0.62679698  0.08882638  0.16794982  1
  H+  H143  1  0.14763682  0.34851819  0.82150124  1
  H+  H144  1  -0.01890237  0.11513387  0.50189043  1
  H+  H145  1  0.58399336  0.67045791  0.75606570  1
  H+  H146  1  0.39170856  0.86944371  1.00414525  1
  H+  H147  1  -0.03192258  0.61366810  0.18144017  1
  H+  H148  1  0.13828830  0.79447674  0.83185711  1
  H+  H149  1  0.22626712  0.88429448  0.83694858  1
  H+  H150  1  0.11922925  0.98751891  0.66616620  1
  H+  H151  1  0.39181269  0.25756546  0.66312445  1
  H+  H152  1  0.63560708  0.85003227  0.66204497  1
  H+  H153  1  0.14039840  0.11509260  0.99701100  1
  H+  H154  1  0.48735349  0.35749558  0.66671325  1
  H+  H155  1  0.23682216  0.37189598  0.32410815  1
  H+  H156  1  0.88428609  0.26727960  0.50329609  1
  H+  H157  1  0.14629372  0.27909841  0.16920596  1
  H+  H158  1  0.09847657  0.46276981  0.16604283  1
  H+  H159  1  0.53583541  0.65186890  0.01681034  1
  H+  H160  1  0.65940135  0.08799428  0.92896035  1
  H+  H161  1  0.37359719  0.37496849  0.82657670  1
  H+  H162  1  0.58807971  0.16403937  0.42764629  1
  H+  H163  1  0.35280000  0.97950459  0.16219812  1
  H+  H164  1  0.88229129  0.75772300  0.33078297  1
  H+  H165  1  0.23345299  0.12764198  0.66290066  1
  H+  H166  1  0.14332860  0.27653414  0.51559219  1
  H+  H167  1  0.86729189  0.88783173  0.66295332  1
  H+  H168  1  0.91720074  0.34160558  0.90460707  1
  H+  H169  1  0.61206652  0.94841033  0.15510509  1
  H+  H170  1  0.38356163  0.62009230  0.32439413  1
  H+  H171  1  0.11524899  0.38193588  0.16441333  1
  H+  H172  1  0.63550048  0.27126135  0.17139971  1
  H+  H173  1  0.61313944  0.73066470  0.34469879  1
  H+  H174  1  0.76212793  0.12909182  0.13899801  1
  H+  H175  1  0.83475852  0.70699890  0.85076207  1
  H+  H176  1  0.60734993  0.64965206  0.49896332  1
  H+  H177  1  0.73031565  0.63539077  0.51609436  1
  H+  H178  1  0.90292055  0.25242564  0.67350144  1
  H+  H179  1  0.63568628  0.10461755  0.49684188  1
  H+  H180  1  0.24399284  0.88789000  0.66182997  1
  H+  H181  1  0.90725578  0.92652190  0.80786742  1
  H+  H182  1  0.84081761  0.22094134  0.14233695  1
  H+  H183  1  0.03304759  0.89584698  0.66237559  1
  H+  H184  1  0.86875297  0.62209971  0.66625232  1
  H+  H185  1  0.11174678  0.63248889  0.33557139  1
  H+  H186  1  0.26624750  0.63023674  0.48844101  1
  H+  H187  1  0.63797043  0.02725831  0.98795686  1
  H+  H188  1  0.01983411  0.71050624  0.12213133  1
  H+  H189  1  0.92819254  0.83247166  0.59309887  1
  H+  H190  1  0.77819798  0.63504633  1.00030067  1
  H+  H191  1  0.88829416  0.77003751  0.17351679  1
  H+  H192  1  0.85796193  0.37981364  -0.00204760  1
  H+  H193  1  0.52675574  0.85782946  0.14861747  1
  H+  H194  1  1.02427206  0.88632725  0.15993774  1
  H+  H195  1  0.72581273  0.12782031  0.83548872  1
  H+  H196  1  0.12423878  0.14805737  0.15472713  1
  H+  H197  1  0.89180710  0.76910282  1.00218914  1
  H+  H198  1  0.62102124  0.22876596  0.33374602  1
  H+  H199  1  0.86433915  0.87898969  0.49990134  1
  H+  H200  1  0.64011932  0.27467242  0.99148089  1
  H+  H201  1  0.62321138  0.89618517  0.84904983  1
  H+  H202  1  0.47695403  0.36519221  0.32417650  1
  H+  H203  1  0.01708000  0.12816427  0.66365733  1
  H+  H204  1  0.55755533  0.44829185  0.84358963  1
  H+  H205  1  0.62896285  0.52597720  0.17184924  1
  H+  H206  1  0.63139389  0.61723407  0.17247833  1
  H+  H207  1  0.36948907  0.48852264  0.16047009  1
  H+  H208  1  0.85534683  0.46826212  0.17158361  1
  H+  H209  1  0.12863060  0.72671621  0.47882615  1
  H+  H210  1  0.60656834  0.47170193  0.33699192  1
  H+  H211  1  0.22695776  0.86834469  0.17880301  1
  H+  H212  1  0.59661295  0.91328820  1.05806196  1
  H+  H213  1  0.08400647  0.67662414  0.05997639  1
  H+  H214  1  0.63694831  0.25845150  0.50490124  1
  H+  H215  1  0.47453387  0.85836075  0.49750435  1
  H+  H216  1  0.87175056  0.89404609  0.16700625  1
  H+  H217  1  0.88449371  0.51947313  0.32831170  1
  H+  H218  1  0.61415271  0.38836610  0.16231643  1
  H+  H219  1  0.33530402  0.26585145  0.35380605  1
  H+  H220  1  0.24325029  0.23213572  0.38406863  1
  H+  H221  1  0.39175433  0.11858128  0.50186429  1
  H+  H222  1  0.12898559  0.44075114  0.86986438  1
  H+  H223  1  0.62150429  0.38962727  1.00616393  1
  H+  H224  1  0.87686732  0.72620087  0.49677177  1
  H+  H225  1  0.52382231  0.13945437  0.01037647  1
  H+  H226  1  0.87131941  0.89002997  0.01474151  1
  H+  H227  1  0.13759378  0.02459803  0.17056803  1
  H+  H228  1  -0.03677467  0.36690762  0.00187833  1
  H+  H229  1  0.47999468  0.11695281  0.65658235  1
  H+  H230  1  0.03659812  0.68918074  0.65031870  1
  H+  H231  1  0.39314881  0.80037782  0.85101421  1
  H+  H232  1  0.86216883  0.21665961  0.33769663  1
  H+  H233  1  0.11968480  0.13708127  0.33822134  1
  H+  H234  1  0.39380881  0.58408784  0.83912047  1
  H+  H235  1  0.14894415  0.62050207  1.01079610  1
  H+  H236  1  0.52540629  0.13368238  0.48649898  1
  H+  H237  1  0.61215949  0.13887186  1.00316437  1
  H+  H238  1  0.38473725  0.86543320  0.65776700  1
  H+  H239  1  0.02080464  0.37827505  0.48922918  1
  H+  H240  1  0.52608633  0.13485534  0.15568788  1
  H+  H241  1  0.32577445  0.19082595  0.44591493  1
  H+  H242  1  0.02155742  0.14620360  0.82434194  1
  H+  H243  1  0.41883697  0.33783213  0.26298239  1
  H+  H244  1  0.39016360  0.12152645  0.17385618  1
  H+  H245  1  0.86150321  0.13057428  0.48962973  1
  H+  H246  1  0.47705673  0.61570888  0.49675255  1
  H+  H247  1  0.86387747  -0.02400687  0.66111924  1
  H+  H248  1  0.85430000  0.37880143  0.16842055  1
  H+  H249  1  0.11907432  0.57129015  0.87615507  1
  H+  H250  1  0.91680750  0.33678313  0.59665580  1
  H+  H251  1  0.36932744  0.14001819  0.66930822  1
  H+  H252  1  0.35940546  -0.03030701  1.02062031  1
  H+  H253  1  0.60879465  0.46950860  0.68868090  1
  H+  H254  1  0.89140646  0.02595996  0.99689851  1
  H+  H255  1  0.39318608  0.37326884  0.17151651  1
  H+  H256  1  0.85674658  0.37380669  0.66938681  1
  H+  H257  1  -0.02518059  0.60708097  0.32828312  1
  H+  H258  1  0.84863855  0.45949450  0.48477110  1
  H+  H259  1  0.33559403  0.46256491  0.61865883  1
  H+  H260  1  0.87065907  0.47779302  0.82054586  1
  H+  H261  1  0.69299449  0.58594395  0.85279382  1
  H+  H262  1  0.02955591  0.87245289  0.34426225  1
  H+  H263  1  0.34443427  0.17429076  0.73216951  1
  H+  H264  1  0.87713694  0.39225541  0.82551287  1
  H+  H265  1  0.39591661  0.48728633  0.48302081  1
  H+  H266  1  0.98169422  0.86110196  1.00108031  1
  H+  H267  1  0.51858915  0.14708378  0.81258236  1
  H+  H268  1  0.11151332  0.46959773  0.33669462  1
  H+  H269  1  0.81781940  0.66863432  0.44068712  1
  H+  H270  1  0.72968214  0.85901487  0.65954829  1
  H+  H271  1  0.40233548  0.63161407  1.00802093  1
  H+  H272  1  0.63159271  0.11152856  0.65265598  1
  H+  H273  1  0.77071012  0.12778292  0.48962907  1
  H+  H274  1  0.13313479  0.01335299  0.32979661  1
  H+  H275  1  0.21007484  0.65108972  0.87669384  1
  H+  H276  1  0.03314587  0.52880284  0.20742909  1
  H+  H277  1  0.10462342  0.65642753  0.79816608  1
  H+  H278  1  0.96955534  0.62441234  0.82469186  1
  H+  H279  1  0.98293511  0.79024497  0.54451040  1
  H+  H280  1  0.10221076  0.35301779  0.90644046  1
  H+  H281  1  0.23837548  0.11199045  0.84448672  1
  H+  H282  1  0.59633088  0.69321852  0.10359336  1
  H+  H283  1  0.89739131  0.11722324  0.65249841  1
  H+  H284  1  0.74090712  0.64598035  0.34643604  1
  H+  H285  1  0.61989034  0.47841207  1.01106347  1
  H+  H286  1  0.77238985  0.86654106  0.83721386  1
  H+  H287  1  0.37681746  0.14033964  0.81353511  1
  H+  H288  1  0.16299532  0.07930002  0.23165838  1
  H+  H289  1  0.08319841  0.40913557  0.39555985  1
  H+  H290  1  0.56400482  0.40199851  0.74411218  1
  H+  H291  1  0.92439672  0.58016208  0.92399788  1
  H+  H292  1  0.08974342  0.91791603  0.06720311  1
  H+  H293  1  0.42607284  0.08077566  0.22405866  1
  H+  H294  1  0.18677808  0.58235933  0.96289437  1
  H+  H295  1  0.87810942  0.27292652  0.98305603  1
  H+  H296  1  0.42579727  0.58366358  0.58511789  1
  H+  H297  1  0.61381227  0.88458019  0.33560079  1
  H+  H298  1  0.58434215  0.40843631  0.39475417  1
  H+  H299  1  0.59052782  0.16598676  0.09978225  1
  H+  H300  1  0.39101909  0.61442309  0.63927703  1
  H+  H301  1  0.91572699  0.08127789  0.58968824  1
  H+  H302  1  0.16483211  0.83071586  0.23856159  1
  H+  H303  1  0.64824321  0.86766283  0.98691787  1
  H+  H304  1  0.44657749  0.35085214  0.90109180  1
  H+  H305  1  0.94137713  0.08974066  0.23579699  1
  H+  H306  1  0.66431335  0.32074071  0.56391175  1
  H+  H307  1  0.69258722  0.83410922  0.93697038  1
  H+  H308  1  0.66681447  0.59615660  0.57196425  1
  H+  H309  1  0.47766123  0.85264164  0.31842766  1
  H+  H310  1  0.66279191  0.07538690  0.55737483  1
  H+  H311  1  0.76591810  0.73268787  0.37924813  1
  H+  H312  1  0.42032392  0.08705882  0.59682388  1
  H+  H313  1  0.52830701  0.80857237  0.71939307  1
  H+  H314  1  0.19648712  0.87943562  0.56932048  1
  H+  H315  1  0.42163088  0.59996649  0.23386498  1
  H+  H316  1  0.66031489  0.06183529  0.22590817  1
  H+  H317  1  0.96521437  0.23057468  0.70776215  1
  H+  H318  1  0.37241086  0.77022021  0.64877945  1
  H+  H319  1  0.85218624  0.18481351  0.77056648  1
  H+  H320  1  0.17509489  0.33638795  0.23021738  1
  H+  H321  1  0.06561695  0.40768324  0.07708443  1
  H+  H322  1  0.42824562  0.59806727  0.94770399  1
  H+  H323  1  0.57570157  0.91054878  0.42717965  1
  H+  H324  1  0.11848271  0.32296636  0.60980761  1
  H+  H325  1  0.64862092  0.57694068  0.94329155  1
  H+  H326  1  0.77722766  0.14556995  0.98177092  1
  H+  H327  1  0.66275698  0.32982442  0.26196424  1
  H+  H328  1  0.88823217  0.55827556  0.55846628  1
  H+  H329  1  0.35932657  0.43457811  0.38745124  1
  H+  H330  1  0.43264004  0.11423758  0.87570897  1
  H+  H331  1  0.06763197  0.44008068  0.72236069  1
  H+  H332  1  0.89583261  0.04165158  0.83358932  1
  H+  H333  1  0.67838212  0.85378165  0.56608684  1
  H+  H334  1  0.14348760  0.36391605  0.32546827  1
  H+  H335  1  0.16931492  0.83877879  0.93255905  1
  H+  H336  1  0.72053107  0.35483312  0.66075426  1
  H+  H337  1  0.07616874  0.69492274  0.74595475  1
  H+  H338  1  0.89823981  0.81286390  0.91952250  1
  H+  H339  1  0.92159856  0.08289835  0.93576755  1
  H+  H340  1  0.17053049  0.09538803  0.57200663  1
  H+  H341  1  0.06824909  0.15427671  0.75833515  1
  H+  H342  1  0.73392286  0.86669500  0.33069949  1
  H+  H343  1  0.41563333  0.83264465  0.55742076  1
  H+  H344  1  0.35448056  0.41995615  0.06177249  1
  H+  H345  1  0.39589735  0.06233243  0.95547741  1
  H+  H346  1  0.06255518  0.63497755  0.39393796  1
  H+  H347  1  0.09454460  0.17514576  0.43796057  1
  H+  H348  1  0.63447366  0.36031270  0.32215763  1
  H+  H349  1  0.92904067  0.82776429  0.23116445  1
  H+  H350  1  0.67453496  0.82691824  0.27133267  1
  H+  H351  1  0.32529690  0.66156090  0.39531600  1
  H+  H352  1  0.31875449  0.39316252  0.48001492  1
  H+  H353  1  0.79364915  0.65635651  0.78916317  1
  H+  H354  1  0.84347050  0.92676077  0.11030546  1
  H+  H355  1  0.95012601  0.74039468  0.30047732  1
  H+  H356  1  0.34083622  0.93027016  0.73381931  1
  H+  H357  1  0.82667447  0.40400756  0.39260435  1
  H+  H358  1  0.43148493  0.33014503  0.60053521  1
  H+  H359  1  0.15483734  0.57711099  0.26566042  1
  H+  H360  1  0.34386917  0.91275013  0.39345388  1
  H+  H361  1  0.83009765  0.40400993  0.73163171  1
  H+  H362  1  0.15200150  0.88967447  0.65647410  1
  H+  H363  1  0.48839912  0.02128451  0.27086326  1
  H+  H364  1  0.90882323  0.31928954  0.23349183  1
  H+  H365  1  0.41166634  0.79716213  0.22593458  1
  H+  H366  1  0.55492301  0.93413688  0.75816146  1
  H+  H367  1  0.83100180  0.15789266  0.39734139  1
  H+  H368  1  0.39688152  0.78342301  1.00290757  1
  H+  H369  1  0.83693640  0.91265760  0.39938971  1
  H+  H370  1  0.37413767  0.89157732  0.48788316  1
  H+  H371  1  0.32582533  0.64409722  0.70354080  1
  H+  H372  1  0.48025264  0.36832565  0.17012190  1
  H+  H373  1  0.12643635  0.23114945  0.33769241  1
  H+  H374  1  0.58682271  0.41729109  0.10160746  1
  H+  H375  1  0.54094521  0.13135463  0.33113063  1
  H+  H376  1  0.08345524  0.92050953  0.40477171  1
  H+  H377  1  0.08988219  0.17770172  0.06124568  1
  H+  H378  1  0.67007394  0.33244274  0.92885002  1
  H+  H379  1  0.58123537  0.16719844  0.72761068  1
  H+  H380  1  0.91295580  0.57841605  0.24373211  1
  H+  H381  1  0.72994918  0.10338305  0.32324212  1
  H+  H382  1  0.21735902  0.36022359  0.55359149  1
  H+  H383  1  0.63839370  0.27980419  0.83671694  1
  O2-  O384  1  0.09566131  0.18029621  0.14132835  1
  O2-  O385  1  0.08936137  0.17443017  0.48309990  1
  O2-  O386  1  0.07842203  0.16647374  0.80328057  1
  O2-  O387  1  0.07638929  0.40415320  0.15041451  1
  O2-  O388  1  0.08125156  0.40870479  0.47364391  1
  O2-  O389  1  0.09416108  0.37872733  0.86526782  1
  O2-  O390  1  0.06317195  0.69618462  0.13510546  1
  O2-  O391  1  0.02514983  0.57232129  0.45150026  1
  O2-  O392  1  0.07331250  0.68691672  0.79152049  1
  O2-  O393  1  0.08591236  0.91907159  0.14562280  1
  O2-  O394  1  0.08529969  0.93772716  0.47977126  1
  O2-  O395  1  0.06135265  0.92256262  0.83232708  1
  O2-  O396  1  0.33635237  0.17098266  0.15496364  1
  O2-  O397  1  0.33680788  0.17655955  0.48752094  1
  O2-  O398  1  0.34318896  0.17257179  0.79985301  1
  O2-  O399  1  0.34385064  0.42797574  0.14716093  1
  O2-  O400  1  0.37798553  0.42734639  0.46614932  1
  O2-  O401  1  0.33549245  0.39972399  0.81876383  1
  O2-  O402  1  0.35996951  0.70642850  0.16241258  1
  O2-  O403  1  0.32679637  0.65830595  0.47277902  1
  O2-  O404  1  0.32604610  0.60208553  0.78366320  1
  O2-  O405  1  0.31869815  0.91650638  0.15465697  1
  O2-  O406  1  0.35079455  0.92781127  0.47064401  1
  O2-  O407  1  0.32940693  0.93711660  0.81103579  1
  O2-  O408  1  0.58828149  0.16176499  0.14508159  1
  O2-  O409  1  0.58663128  0.15998205  0.47313574  1
  O2-  O410  1  0.58259483  0.18183950  0.80043780  1
  O2-  O411  1  0.58488710  0.41990369  0.14700083  1
  O2-  O412  1  0.59495643  0.40498164  0.46655330  1
  O2-  O413  1  0.53093116  0.39077088  0.82403522  1
  O2-  O414  1  0.58812201  0.68935203  0.15006470  1
  O2-  O415  1  0.56911453  0.66891109  0.48023762  1
  O2-  O416  1  0.58700864  0.67696801  0.80264756  1
  O2-  O417  1  0.58771585  0.89022540  0.13572253  1
  O2-  O418  1  0.57341703  0.90906447  0.47257329  1
  O2-  O419  1  0.54700031  0.96940057  0.78881943  1
  O2-  O420  1  0.80752938  0.17363766  0.11376623  1
  O2-  O421  1  0.83169016  0.16145293  0.47505141  1
  O2-  O422  1  0.83684541  0.17637828  0.81441910  1
  O2-  O423  1  0.82260639  0.40863373  0.15614847  1
  O2-  O424  1  0.82546599  0.39914571  0.47037154  1
  O2-  O425  1  0.84306386  0.41677059  0.80744830  1
  O2-  O426  1  0.83304781  0.66936525  0.15995622  1
  O2-  O427  1  0.83285621  0.66554502  0.48361387  1
  O2-  O428  1  0.80384256  0.64679521  0.83120615  1
  O2-  O429  1  0.84550742  0.92886905  0.15522819  1
  O2-  O430  1  0.84406357  0.91533401  0.48210010  1
  O2-  O431  1  0.86289583  0.94091326  0.79807298  1
  O2-  O432  1  0.16844362  0.08477364  0.18671544  1
  O2-  O433  1  0.17261335  0.09720095  0.52624330  1
  O2-  O434  1  0.18551156  0.08781626  0.86909595  1
  O2-  O435  1  0.17557658  0.34028201  0.18498773  1
  O2-  O436  1  0.16128677  0.33507688  0.53153266  1
  O2-  O437  1  0.17394564  0.31955264  0.79770277  1
  O2-  O438  1  0.09286559  0.55814211  0.19377863  1
  O2-  O439  1  0.16105991  0.57403697  0.51262220  1
  O2-  O440  1  0.17987544  0.58836491  0.87620995  1
  O2-  O441  1  0.16373710  0.83463235  0.19337269  1
  O2-  O442  1  0.19738631  0.88448658  0.52317539  1
  O2-  O443  1  0.16661036  0.84920700  0.85427832  1
  O2-  O444  1  0.42013171  0.08750308  0.17995640  1
  O2-  O445  1  0.42374588  0.09000423  0.51644015  1
  O2-  O446  1  0.42247170  0.09757416  0.83320747  1
  O2-  O447  1  0.41991122  0.33922451  0.18629726  1
  O2-  O448  1  0.43824512  0.33606388  0.53027484  1
  O2-  O449  1  0.44270925  0.34288275  0.84935388  1
  O2-  O450  1  0.42087702  0.60321878  0.18799216  1
  O2-  O451  1  0.41402908  0.57478710  0.51092916  1
  O2-  O452  1  0.42412356  0.56749282  0.86878260  1
  O2-  O453  1  0.42162874  0.79482898  0.18114446  1
  O2-  O454  1  0.41289117  0.82888031  0.51235689  1
  O2-  O455  1  0.41497979  0.85759866  0.86761628  1
  O2-  O456  1  0.65076181  0.05218437  0.18149852  1
  O2-  O457  1  0.66473875  0.07297927  0.51184875  1
  O2-  O458  1  0.66592227  0.10304974  0.85062866  1
  O2-  O459  1  0.66150078  0.33118555  0.18707327  1
  O2-  O460  1  0.66888321  0.31970235  0.51890396  1
  O2-  O461  1  0.67478177  0.33520558  0.85863787  1
  O2-  O462  1  0.65793828  0.58516918  0.18958000  1
  O2-  O463  1  0.67062429  0.61507583  0.52973385  1
  O2-  O464  1  0.63158255  0.56276527  0.86389879  1
  O2-  O465  1  0.64238181  0.77687983  0.17419176  1
  O2-  O466  1  0.69818466  0.88348542  0.52669064  1
  O2-  O467  1  0.73490938  0.81806323  0.86507419  1
  O2-  O468  1  0.94579212  0.09297128  0.19109705  1
  O2-  O469  1  0.91976284  0.08254276  0.51544066  1
  O2-  O470  1  0.92385954  0.09848410  0.85408675  1
  O2-  O471  1  0.90749363  0.32385469  0.18841017  1
  O2-  O472  1  0.91562965  0.32826300  0.51750124  1
  O2-  O473  1  0.92510390  0.34021872  0.85940187  1
  O2-  O474  1  0.91000425  0.57549181  0.19713704  1
  O2-  O475  1  0.89007679  0.56054969  0.51368092  1
  O2-  O476  1  0.91461740  0.58514517  0.84559441  1
  O2-  O477  1  0.92456229  0.83253242  0.18680027  1
  O2-  O478  1  0.95021388  0.81633288  0.52933981  1
  O2-  O479  1  0.87855960  0.80188120  0.87523238  1
  O2-  O480  1  0.16087121  0.07310553  0.31224024  1
  O2-  O481  1  0.17342453  0.09726038  0.64734111  1
  O2-  O482  1  0.16953417  0.08158715  0.98726264  1
  O2-  O483  1  0.17594723  0.33541164  0.31060974  1
  O2-  O484  1  0.12007325  0.32437113  0.65479655  1
  O2-  O485  1  0.12222536  0.32881176  0.96512275  1
  O2-  O486  1  0.16123155  0.57601600  0.31004352  1
  O2-  O487  1  0.15782982  0.58594006  0.63619116  1
  O2-  O488  1  0.18047583  0.58747610  1.00684760  1
  O2-  O489  1  0.17094261  0.82870438  0.31894684  1
  O2-  O490  1  0.18590743  0.86071331  0.64136940  1
  O2-  O491  1  0.16829690  0.83227680  0.97779519  1
  O2-  O492  1  0.45708420  0.04595659  0.29056284  1
  O2-  O493  1  0.41816081  0.08704022  0.64217787  1
  O2-  O494  1  0.40848321  0.07248420  0.99867309  1
  O2-  O495  1  0.41657207  0.34182539  0.30846983  1
  O2-  O496  1  0.42773395  0.32400696  0.64717445  1
  O2-  O497  1  0.44179220  0.35462979  0.96031600  1
  O2-  O498  1  0.42107010  0.59766892  0.30813719  1
  O2-  O499  1  0.42305091  0.58391310  0.63104056  1
  O2-  O500  1  0.43452478  0.60363798  0.99241478  1
  O2-  O501  1  0.41705125  0.81966712  0.30278904  1
  O2-  O502  1  0.41078738  0.83260303  0.63941537  1
  O2-  O503  1  0.42435568  0.84282575  0.98560597  1
  O2-  O504  1  0.66897200  0.07522737  0.30846344  1
  O2-  O505  1  0.66329754  0.08453943  0.63409711  1
  O2-  O506  1  0.66094067  0.08770826  0.97441144  1
  O2-  O507  1  0.66495858  0.32964677  0.30791210  1
  O2-  O508  1  0.66093505  0.32775547  0.64381184  1
  O2-  O509  1  0.67182725  0.33538717  0.97574676  1
  O2-  O510  1  0.64945586  0.57894369  0.31204674  1
  O2-  O511  1  0.66461150  0.57162106  0.65922545  1
  O2-  O512  1  0.66344229  0.58198917  0.98715244  1
  O2-  O513  1  0.67165398  0.83398550  0.31531554  1
  O2-  O514  1  0.66859862  0.82387531  0.64550661  1
  O2-  O515  1  0.67976490  0.83526163  0.98056172  1
  O2-  O516  1  0.92524917  0.08020833  0.32022177  1
  O2-  O517  1  0.91551151  0.07744056  0.63561990  1
  O2-  O518  1  0.92156373  0.08613032  0.98076746  1
  O2-  O519  1  0.91249926  0.32145061  0.31289181  1
  O2-  O520  1  0.91818326  0.34082454  0.64203706  1
  O2-  O521  1  0.90621834  0.33988479  0.98067042  1
  O2-  O522  1  0.91402350  0.58041722  0.31422452  1
  O2-  O523  1  0.90162158  0.55241139  0.63991553  1
  O2-  O524  1  0.92200511  0.57455880  0.96921447  1
  O2-  O525  1  0.93863395  0.78705163  0.30868890  1
  O2-  O526  1  0.92003533  0.83814712  0.63974503  1
  O2-  O527  1  0.91956521  0.83165791  0.98954846  1
  O2-  O528  1  0.08792560  0.17383417  0.01585005  1
  O2-  O529  1  0.10116951  0.17449253  0.35913810  1
  O2-  O530  1  0.07414561  0.16269097  0.68432777  1
  O2-  O531  1  0.06257814  0.41485958  0.03186536  1
  O2-  O532  1  0.08324770  0.40833241  0.34995363  1
  O2-  O533  1  0.07174582  0.43619875  0.67851486  1
  O2-  O534  1  0.08971815  0.66877016  0.01574174  1
  O2-  O535  1  0.08082062  0.66137286  0.35176127  1
  O2-  O536  1  0.08965746  0.70181899  0.67091512  1
  O2-  O537  1  0.08919823  0.91595720  0.02170647  1
  O2-  O538  1  0.08811957  0.91380795  0.35959430  1
  O2-  O539  1  0.09415394  0.92534700  0.67511934  1
  O2-  O540  1  0.33133789  0.14999638  0.03224258  1
  O2-  O541  1  0.29034632  0.22010412  0.38025111  1
  O2-  O542  1  0.34346928  0.17506839  0.68435071  1
  O2-  O543  1  0.36175239  0.42637464  0.01725063  1
  O2-  O544  1  0.34674299  0.43302211  0.34318721  1
  O2-  O545  1  0.29421734  0.40168909  0.60992657  1
  O2-  O546  1  0.35142435  0.68478827  0.03837977  1
  O2-  O547  1  0.32456801  0.66050137  0.34963969  1
  O2-  O548  1  0.32374186  0.66097311  0.66140626  1
  O2-  O549  1  0.33021013  0.90654731  0.03019484  1
  O2-  O550  1  0.34054972  0.90588331  0.34809016  1
  O2-  O551  1  0.34243345  0.92564363  0.68823987  1
  O2-  O552  1  0.58614548  0.17284120  0.02002585  1
  O2-  O553  1  0.59736463  0.16894906  0.35079234  1
  O2-  O554  1  0.57928236  0.16192209  0.68151352  1
  O2-  O555  1  0.58923016  0.41646100  0.02347313  1
  O2-  O556  1  0.57896613  0.40996138  0.34867076  1
  O2-  O557  1  0.57632582  0.40695787  0.69977881  1
  O2-  O558  1  0.59674247  0.67976310  0.03207488  1
  O2-  O559  1  0.57892918  0.66913511  0.35725544  1
  O2-  O560  1  0.58268087  0.66209413  0.68436168  1
  O2-  O561  1  0.59622249  0.91919973  0.01279523  1
  O2-  O562  1  0.57896934  0.91133038  0.34791786  1
  O2-  O563  1  0.55168455  0.86154865  0.69596984  1
  O2-  O564  1  0.83895232  0.17977682  -0.02895597  1
  O2-  O565  1  0.83223364  0.15547341  0.35181138  1
  O2-  O566  1  0.90451912  0.20438996  0.69701344  1
  O2-  O567  1  0.82606829  0.41456385  0.00848560  1
  O2-  O568  1  0.83155240  0.40855677  0.34720252  1
  O2-  O569  1  0.82344529  0.40138026  0.68616463  1
  O2-  O570  1  0.84054045  0.66635929  0.00901947  1
  O2-  O571  1  0.78916369  0.69532169  0.36956343  1
  O2-  O572  1  0.85013683  0.66078364  0.68518713  1
  O2-  O573  1  0.84413365  0.92431159  0.02724784  1
  O2-  O574  1  0.82958703  0.91168035  0.35474621  1
  O2-  O575  1  0.83627490  0.91710205  0.67986445  1
