# generated using pymatgen
data_H2O
_symmetry_space_group_name_H-M   'P 1'
_cell_length_a   17.97717086
_cell_length_b   17.98741011
_cell_length_c   21.99851771
_cell_angle_alpha   90.03718047
_cell_angle_beta   89.99080215
_cell_angle_gamma   119.99892719
_symmetry_Int_Tables_number   1
_chemical_formula_structural   H2O
_chemical_formula_sum   'H384 O192'
_cell_volume   6160.53782303
_cell_formula_units_Z   192
loop_
 _symmetry_equiv_pos_site_id
 _symmetry_equiv_pos_as_xyz
  1  'x, y, z'
loop_
 _atom_type_symbol
 _atom_type_oxidation_number
  H+  1.0
  O2-  -2.0
loop_
 _atom_site_type_symbol
 _atom_site_label
 _atom_site_symmetry_multiplicity
 _atom_site_fract_x
 _atom_site_fract_y
 _atom_site_fract_z
 _atom_site_occupancy
  H+  H0  1  0.12235727  -0.01861435  0.80892059  1
  H+  H1  1  0.22340711  0.86447532  0.83463810  1
  H+  H2  1  0.13548485  0.10718553  0.18061737  1
  H+  H3  1  0.76432240  0.62991566  0.32637252  1
  H+  H4  1  0.63453832  0.25416842  0.06082319  1
  H+  H5  1  0.14579724  0.77856190  0.33338707  1
  H+  H6  1  0.45255995  0.57065977  0.19029643  1
  H+  H7  1  0.12307457  0.64304800  0.16518490  1
  H+  H8  1  0.38035129  0.77868932  0.83200001  1
  H+  H9  1  0.87157535  -0.00561531  1.01742182  1
  H+  H10  1  0.52834913  0.99335375  0.05008384  1
  H+  H11  1  0.34663026  0.21930286  0.01891492  1
  H+  H12  1  0.38988192  0.11434747  0.32511369  1
  H+  H13  1  0.36943905  0.47380617  0.02658913  1
  H+  H14  1  0.63712841  0.76735630  0.79916503  1
  H+  H15  1  0.66762267  0.09443174  0.59272302  1
  H+  H16  1  0.66518102  0.40000821  0.98164529  1
  H+  H17  1  0.63535012  0.60955732  0.65300103  1
  H+  H18  1  0.91419162  0.08351687  0.56285818  1
  H+  H19  1  0.63063870  0.01734399  0.50417077  1
  H+  H20  1  0.62114465  0.48179506  0.15892403  1
  H+  H21  1  0.89015745  0.27832612  -0.00093362  1
  H+  H22  1  0.11037589  0.97011512  0.66215741  1
  H+  H23  1  0.64240632  0.60701479  0.50180811  1
  H+  H24  1  1.02397740  0.39914697  1.01524113  1
  H+  H25  1  0.66572826  0.09237716  0.23950555  1
  H+  H26  1  0.64716582  0.86218619  0.33161560  1
  H+  H27  1  0.37148592  0.53099689  0.84438760  1
  H+  H28  1  0.47868089  0.36486100  0.51914506  1
  H+  H29  1  0.53243617  0.39645473  0.82162831  1
  H+  H30  1  0.58996105  0.42341639  0.72769624  1
  H+  H31  1  0.13391735  0.25667064  0.33087391  1
  H+  H32  1  0.85757032  0.10319089  0.33020087  1
  H+  H33  1  0.77203651  0.62672246  0.66874170  1
  H+  H34  1  0.65105168  0.11044640  0.84130296  1
  H+  H35  1  0.88911517  0.11546605  0.65855282  1
  H+  H36  1  0.11860134  0.88686705  0.34162596  1
  H+  H37  1  0.23324852  0.11387107  0.50609736  1
  H+  H38  1  0.97731363  0.86987590  0.33152529  1
  H+  H39  1  0.52859163  0.39150826  0.00154409  1
  H+  H40  1  0.37248975  0.61094424  0.32797955  1
  H+  H41  1  0.38231133  0.14999765  0.49157299  1
  H+  H42  1  0.48744002  0.86210570  0.17187108  1
  H+  H43  1  0.28159496  0.62405145  -0.02828503  1
  H+  H44  1  0.15897290  0.59062322  0.89723814  1
  H+  H45  1  0.39357339  0.26464638  0.17876047  1
  H+  H46  1  0.02111666  0.12655929  0.17289519  1
  H+  H47  1  0.37238195  0.70998128  0.97002974  1
  H+  H48  1  0.66918085  0.40896063  0.65281122  1
  H+  H49  1  0.35203681  0.71996508  0.49932562  1
  H+  H50  1  0.21743623  0.33766974  0.17908099  1
  H+  H51  1  0.03971061  0.64348349  0.33535619  1
  H+  H52  1  0.14005549  0.01959199  0.18112265  1
  H+  H53  1  0.13554893  0.65660004  0.33217894  1
  H+  H54  1  0.01302440  0.38131412  0.48695353  1
  H+  H55  1  0.61754040  0.98744974  0.17071936  1
  H+  H56  1  0.89710627  0.87037051  0.17809678  1
  H+  H57  1  0.87459684  0.72614384  0.16603219  1
  H+  H58  1  0.14454131  1.02438500  0.50609004  1
  H+  H59  1  0.66621082  0.83560791  0.71768359  1
  H+  H60  1  0.65264645  0.61912388  0.17492711  1
  H+  H61  1  0.58783360  0.96897767  0.66161347  1
  H+  H62  1  0.22627893  0.37267129  0.83846106  1
  H+  H63  1  0.37934800  0.09802468  0.17333873  1
  H+  H64  1  0.62849608  0.03513750  0.33658748  1
  H+  H65  1  0.86563034  0.22390143  0.18106357  1
  H+  H66  1  0.41543526  0.33863034  0.89465198  1
  H+  H67  1  0.15710422  0.31241175  0.23716203  1
  H+  H68  1  0.88741336  0.78120807  0.33668603  1
  H+  H69  1  0.51793307  0.89633536  0.33715423  1
  H+  H70  1  0.56731924  0.93926630  0.07675638  1
  H+  H71  1  0.37814466  0.89520755  0.50314121  1
  H+  H72  1  0.17300913  0.36144533  0.59160713  1
  H+  H73  1  0.12061423  0.66434930  0.67872465  1
  H+  H74  1  0.39071493  0.12477854  0.65769471  1
  H+  H75  1  0.36544828  0.46938255  0.67134327  1
  H+  H76  1  0.36024026  0.47311846  0.49139824  1
  H+  H77  1  0.35952153  0.37861446  0.67710565  1
  H+  H78  1  0.35699262  0.61930630  0.15638951  1
  H+  H79  1  0.62084502  0.12021897  0.33952655  1
  H+  H80  1  0.89922942  0.12987983  0.00026327  1
  H+  H81  1  0.86238312  0.82129942  -0.03877472  1
  H+  H82  1  0.49577605  0.08984006  0.69113162  1
  H+  H83  1  0.87943260  0.59465990  0.33077952  1
  H+  H84  1  0.72046094  0.34461764  0.32417268  1
  H+  H85  1  0.86215199  0.39165095  0.16491172  1
  H+  H86  1  0.89120008  0.87035715  0.65333114  1
  H+  H87  1  0.86938634  0.39441441  0.82657793  1
  H+  H88  1  0.35716956  -0.01919984  0.82878186  1
  H+  H89  1  0.78228588  0.63850379  0.49070720  1
  H+  H90  1  0.64559403  0.78760549  1.02588303  1
  H+  H91  1  0.00001522  0.41281282  0.18381647  1
  H+  H92  1  0.64035215  0.86879764  1.00600467  1
  H+  H93  1  0.38484557  0.61132355  0.50208351  1
  H+  H94  1  1.02645342  0.12687267  1.01649117  1
  H+  H95  1  0.85354862  0.93680131  0.10759722  1
  H+  H96  1  0.52576251  0.63496996  0.48941302  1
  H+  H97  1  0.64955300  0.53271956  -0.00987634  1
  H+  H98  1  0.38808798  0.02453874  0.33047192  1
  H+  H99  1  0.75568860  0.13219172  0.34326756  1
  H+  H100  1  0.89092383  0.53871328  0.84273006  1
  H+  H101  1  0.26108258  0.64188485  0.81961916  1
  H+  H102  1  0.22471987  0.10862877  0.66113765  1
  H+  H103  1  0.11617142  0.72762870  0.16655393  1
  H+  H104  1  -0.02543741  0.36655660  0.66010351  1
  H+  H105  1  0.24970936  0.13555187  0.82912140  1
  H+  H106  1  0.89051330  0.03208692  0.84642068  1
  H+  H107  1  0.11132510  0.21471800  0.17031881  1
  H+  H108  1  0.37030151  0.70513265  0.66650963  1
  H+  H109  1  0.87818222  0.27177804  0.50757009  1
  H+  H110  1  0.21484758  0.35319538  0.33017953  1
  H+  H111  1  0.33323767  0.16211686  0.11263354  1
  H+  H112  1  0.64333837  0.03831907  0.99872624  1
  H+  H113  1  0.89637401  0.53407186  0.50203211  1
  H+  H114  1  0.96137102  0.63625799  0.99851167  1
  H+  H115  1  0.14116332  0.86276751  0.18544105  1
  H+  H116  1  0.11329697  0.39688680  0.82679812  1
  H+  H117  1  0.78701830  0.41339973  0.66556425  1
  H+  H118  1  0.78768454  0.40422245  0.00575917  1
  H+  H119  1  0.65014848  0.77276142  0.32779719  1
  H+  H120  1  0.11426600  0.40304907  0.01668352  1
  H+  H121  1  0.91728043  0.69735284  0.35816828  1
  H+  H122  1  0.32230428  0.89525720  0.06424276  1
  H+  H123  1  0.12687375  0.77528680  0.83120670  1
  H+  H124  1  0.23477814  0.86604270  0.51495330  1
  H+  H125  1  0.12575944  0.76015294  0.67062034  1
  H+  H126  1  0.46644505  0.06181456  0.10784177  1
  H+  H127  1  0.90771179  0.72952265  0.00485911  1
  H+  H128  1  0.63362990  0.85777633  0.80233886  1
  H+  H129  1  0.10895893  0.48407704  0.82595309  1
  H+  H130  1  0.60485502  0.71635524  0.67227666  1
  H+  H131  1  0.34997283  0.64127131  0.81885825  1
  H+  H132  1  0.77486793  0.89304932  0.81980551  1
  H+  H133  1  0.36045399  0.87291152  0.15996281  1
  H+  H134  1  0.11275684  0.11357546  0.82543621  1
  H+  H135  1  0.78078693  0.14228910  0.67073325  1
  H+  H136  1  0.07640456  0.43944994  0.11197876  1
  H+  H137  1  0.37362651  0.89651031  0.34960420  1
  H+  H138  1  0.26964606  0.38520746  0.49163127  1
  H+  H139  1  0.08826598  0.90725128  0.11651024  1
  H+  H140  1  0.77761285  0.88971092  0.67722470  1
  H+  H141  1  0.27396742  0.13279431  0.17210651  1
  H+  H142  1  0.88358725  0.11425963  0.18109936  1
  H+  H143  1  0.75862060  0.63158493  0.81954373  1
  H+  H144  1  0.36008934  0.90287740  0.67216011  1
  H+  H145  1  1.02440048  0.13510410  0.49556858  1
  H+  H146  1  0.60092713  0.22258944  0.35487482  1
  H+  H147  1  0.77169521  0.39304289  0.49062350  1
  H+  H148  1  0.02888570  0.88456427  0.49610346  1
  H+  H149  1  0.58063235  0.08438421  0.69087936  1
  H+  H150  1  0.62626183  0.62239046  0.82400392  1
  H+  H151  1  0.88717383  0.02416042  0.18047557  1
  H+  H152  1  0.02858421  0.88506234  0.17536013  1
  H+  H153  1  0.11469939  0.13659713  0.49882398  1
  H+  H154  1  0.62953771  0.86716863  0.66611117  1
  H+  H155  1  0.11056927  0.87705032  0.65987106  1
  H+  H156  1  0.12891161  0.62302450  0.83859253  1
  H+  H157  1  0.02039346  0.65480299  0.82285601  1
  H+  H158  1  0.64211899  0.28193344  0.83508718  1
  H+  H159  1  0.12625641  0.09863657  0.01847486  1
  H+  H160  1  0.89218695  0.12224203  0.84199758  1
  H+  H161  1  0.78863484  0.63666508  0.16335315  1
  H+  H162  1  0.12560312  0.52523204  0.65522754  1
  H+  H163  1  0.21918164  0.60629681  0.65164144  1
  H+  H164  1  0.63658623  0.86793118  0.50503909  1
  H+  H165  1  0.62541542  0.37218008  0.50741427  1
  H+  H166  1  0.38584774  0.36035415  0.51143232  1
  H+  H167  1  0.65944002  0.59100836  0.88509128  1
  H+  H168  1  0.87104302  0.01472003  0.32876935  1
  H+  H169  1  1.02220300  0.14734495  0.82410501  1
  H+  H170  1  0.77413456  0.88577924  0.49351673  1
  H+  H171  1  0.63519798  0.51397484  0.50853417  1
  H+  H172  1  0.78406056  0.14435343  1.01310896  1
  H+  H173  1  0.26546060  0.12533523  1.02639359  1
  H+  H174  1  0.10872619  0.72224856  0.00941084  1
  H+  H175  1  0.11695839  0.50368372  0.17083013  1
  H+  H176  1  0.33352161  0.42413831  0.76748100  1
  H+  H177  1  0.89283102  0.75653008  0.81773930  1
  H+  H178  1  0.46833497  0.86539351  0.99487118  1
  H+  H179  1  0.86757940  0.38443623  0.67294904  1
  H+  H180  1  0.36647119  0.51780231  0.33037814  1
  H+  H181  1  0.37105676  0.23223193  0.49655433  1
  H+  H182  1  0.53391732  0.39309504  0.32806310  1
  H+  H183  1  -0.01309830  0.61525039  0.18543136  1
  H+  H184  1  0.79121897  0.90307763  0.16640936  1
  H+  H185  1  0.02535983  0.13806909  0.67124008  1
  H+  H186  1  0.35734791  0.96069180  0.16102012  1
  H+  H187  1  0.53348243  0.64572755  0.81985516  1
  H+  H188  1  0.91992666  0.57760966  0.26975065  1
  H+  H189  1  0.66216749  0.27244326  0.67638798  1
  H+  H190  1  0.77501607  0.13988657  0.17197880  1
  H+  H191  1  1.02481462  0.64191136  0.50137902  1
  H+  H192  1  0.27959408  0.88844886  0.34845446  1
  H+  H193  1  0.36821043  0.71079004  0.14346097  1
  H+  H194  1  0.12961547  0.36141192  0.49343128  1
  H+  H195  1  0.30884871  0.27901565  0.95342699  1
  H+  H196  1  0.61156715  0.47956406  0.66665026  1
  H+  H197  1  0.33094069  0.92767842  0.76621364  1
  H+  H198  1  0.16905541  0.56487763  0.32279704  1
  H+  H199  1  0.64441824  1.01919509  0.83441512  1
  H+  H200  1  0.13386844  0.27506512  0.50253109  1
  H+  H201  1  0.86131674  0.38182170  0.33533483  1
  H+  H202  1  0.28391371  0.14067512  0.33980113  1
  H+  H203  1  0.66347724  0.79801798  0.17162280  1
  H+  H204  1  0.21968000  0.61056187  0.50107479  1
  H+  H205  1  0.47746861  0.36021021  0.66244623  1
  H+  H206  1  0.61404080  0.72332519  0.49386103  1
  H+  H207  1  0.61784889  0.48888488  0.82022233  1
  H+  H208  1  0.14861809  1.02256932  0.33044462  1
  H+  H209  1  0.45103628  0.14380976  0.84123445  1
  H+  H210  1  0.16105677  0.83247172  0.93631773  1
  H+  H211  1  0.22544406  0.85447391  -0.00629291  1
  H+  H212  1  0.87804000  0.61914222  0.83581973  1
  H+  H213  1  0.88933986  0.02657335  0.65875912  1
  H+  H214  1  0.47645134  0.60313188  0.65619920  1
  H+  H215  1  0.55674067  0.12661156  0.08706503  1
  H+  H216  1  0.33509893  0.13071878  0.83669553  1
  H+  H217  1  0.34938399  0.86400948  1.00477694  1
  H+  H218  1  0.36513982  0.39877682  0.82718264  1
  H+  H219  1  0.38469267  0.86917522  0.83543683  1
  H+  H220  1  0.38174960  0.27855986  0.83722707  1
  H+  H221  1  0.87963210  0.36186741  0.50686082  1
  H+  H222  1  0.54377576  0.12586902  0.84950449  1
  H+  H223  1  -0.01307684  0.87073785  0.65070484  1
  H+  H224  1  0.22458897  0.37807005  0.00071544  1
  H+  H225  1  0.39983820  0.60537322  0.99026979  1
  H+  H226  1  0.55983713  0.67497576  0.15845260  1
  H+  H227  1  0.36107479  0.38782806  0.34006728  1
  H+  H228  1  0.39851949  0.28008271  0.32973677  1
  H+  H229  1  0.64877403  0.65310693  0.33983158  1
  H+  H230  1  0.63700244  0.35160672  0.31531199  1
  H+  H231  1  0.08020748  0.17357510  0.76178043  1
  H+  H232  1  0.27982258  0.65888737  0.33612113  1
  H+  H233  1  0.88981531  0.28113304  0.84162254  1
  H+  H234  1  0.75896463  0.34136393  0.15271611  1
  H+  H235  1  0.11434243  0.87393891  0.02069944  1
  H+  H236  1  0.35612486  0.79625455  0.67043040  1
  H+  H237  1  0.64985183  0.13046852  0.17739517  1
  H+  H238  1  0.76586541  0.13425966  0.49576831  1
  H+  H239  1  0.34824157  0.45239768  0.17301169  1
  H+  H240  1  0.16901568  0.08244201  0.60024084  1
  H+  H241  1  0.78199634  0.90867537  1.03046811  1
  H+  H242  1  0.77486308  0.88613289  0.33943269  1
  H+  H243  1  0.54308135  0.63996767  0.01707579  1
  H+  H244  1  0.02934661  0.48275583  0.29360071  1
  H+  H245  1  0.38344453  0.59534702  0.65714210  1
  H+  H246  1  0.21774145  0.87065796  0.65940153  1
  H+  H247  1  0.84146809  0.89404405  0.86667804  1
  H+  H248  1  0.86889747  0.23057385  0.67162111  1
  H+  H249  1  0.95456379  0.32544550  0.27183137  1
  H+  H250  1  0.12602992  0.13391039  0.34416489  1
  H+  H251  1  0.02858005  0.48739989  0.32754432  1
  H+  H252  1  0.77964931  0.39366664  0.82196747  1
  H+  H253  1  0.11198058  0.40140098  0.66734620  1
  H+  H254  1  0.36155688  0.22747122  0.67592646  1
  H+  H255  1  0.63015071  0.23089949  0.69138743  1
  H+  H256  1  0.88473342  0.76778655  0.50518197  1
  H+  H257  1  0.88489642  0.85941331  0.50359012  1
  H+  H258  1  0.13948903  0.88637045  0.81763410  1
  H+  H259  1  0.63234922  0.26092519  1.02718607  1
  H+  H260  1  0.12488190  0.73621092  0.50746529  1
  H+  H261  1  0.39457627  0.13285621  0.99683748  1
  H+  H262  1  0.35693374  -0.01049399  0.67283286  1
  H+  H263  1  0.46050726  0.09963615  1.00424978  1
  H+  H264  1  0.07077882  0.33146665  0.32518485  1
  H+  H265  1  0.51113983  0.13448270  0.34914843  1
  H+  H266  1  0.49568627  0.88225303  0.66755680  1
  H+  H267  1  0.88493258  0.02341361  0.50390347  1
  H+  H268  1  0.68319562  0.16918154  0.63691223  1
  H+  H269  1  0.89716732  0.62428916  0.49999347  1
  H+  H270  1  0.14003866  0.61873352  -0.00605293  1
  H+  H271  1  0.63602905  0.64854417  0.00859909  1
  H+  H272  1  0.32503631  0.65655366  0.72781612  1
  H+  H273  1  0.17029969  0.83495367  0.57444835  1
  H+  H274  1  0.63956819  0.26265217  0.22226411  1
  H+  H275  1  0.89882640  0.61662355  0.18477898  1
  H+  H276  1  0.68896516  0.98062781  0.36277190  1
  H+  H277  1  0.36186740  0.37012597  0.16902339  1
  H+  H278  1  -0.02194594  0.37066536  0.84194562  1
  H+  H279  1  0.74104980  0.61584095  0.98285891  1
  H+  H280  1  0.09145708  0.16211882  0.40159968  1
  H+  H281  1  0.88194495  0.81652026  0.89305628  1
  H+  H282  1  0.86830142  0.38301794  0.01172504  1
  H+  H283  1  0.53364443  0.90119103  0.47423748  1
  H+  H284  1  0.13722311  0.28452863  0.83851785  1
  H+  H285  1  0.86713744  0.63933228  0.67221427  1
  H+  H286  1  0.62558476  0.90263109  0.16422477  1
  H+  H287  1  -0.00457352  0.64500697  0.66446086  1
  H+  H288  1  0.91230237  0.33452089  0.60075091  1
  H+  H289  1  0.81819179  0.15388538  0.40224233  1
  H+  H290  1  0.62676764  0.28249908  0.51553597  1
  H+  H291  1  0.08519806  0.68798111  0.76308067  1
  H+  H292  1  0.94134586  0.61166997  0.60229832  1
  H+  H293  1  0.44277762  0.56285431  0.95307118  1
  H+  H294  1  0.15958588  0.57838347  0.56110333  1
  H+  H295  1  0.41331295  0.32828969  0.60525518  1
  H+  H296  1  0.66688522  0.57967071  0.59334712  1
  H+  H297  1  0.48175222  0.35621795  0.17306927  1
  H+  H298  1  0.91932714  0.85264940  0.80587513  1
  H+  H299  1  0.41662504  0.80061087  0.22037947  1
  H+  H300  1  0.60602927  0.67295575  0.39696462  1
  H+  H301  1  0.85575924  0.13448544  0.49507268  1
  H+  H302  1  0.83270288  0.41594062  0.43286293  1
  H+  H303  1  0.16621715  0.06716789  0.96341137  1
  H+  H304  1  0.13665627  0.52940038  0.99444954  1
  H+  H305  1  0.10139421  0.05130764  0.87985603  1
  H+  H306  1  0.84724380  0.67887927  0.43010764  1
  H+  H307  1  0.84108316  0.17800722  0.07440075  1
  H+  H308  1  0.61459329  0.93390301  0.42062098  1
  H+  H309  1  0.07838897  0.14750952  0.08006055  1
  H+  H310  1  0.38018140  0.73945322  0.34503158  1
  H+  H311  1  0.42120078  0.07160614  0.22604061  1
  H+  H312  1  0.46419036  0.83101173  0.53468351  1
  H+  H313  1  0.32859824  0.41095851  0.40077547  1
  H+  H314  1  0.32648255  0.16496292  0.73381968  1
  H+  H315  1  0.57129092  0.91960505  0.75771341  1
  H+  H316  1  0.56989080  0.13440197  0.77987710  1
  H+  H317  1  0.62434036  0.39550272  0.15034530  1
  H+  H318  1  0.34969440  0.92650229  0.44347933  1
  H+  H319  1  0.08166793  0.66461087  0.06924196  1
  H+  H320  1  0.83374187  0.91610487  0.43412837  1
  H+  H321  1  0.37365791  0.59942794  0.89417779  1
  H+  H322  1  0.22865506  0.38306488  0.65313049  1
  H+  H323  1  0.86315887  0.47111698  0.33646509  1
  H+  H324  1  0.07690632  0.42165082  0.72987240  1
  H+  H325  1  0.81994079  0.65222433  0.76004178  1
  H+  H326  1  0.91817338  0.83823385  0.58550873  1
  H+  H327  1  0.02536809  0.36234467  0.37139657  1
  H+  H328  1  0.33155180  0.67175887  0.43429049  1
  H+  H329  1  0.86847084  0.89365857  0.34168206  1
  H+  H330  1  0.66509040  0.83757569  0.56451785  1
  H+  H331  1  0.10175189  0.91990072  0.74731837  1
  H+  H332  1  0.89935151  0.07867671  0.26412640  1
  H+  H333  1  0.55600716  0.41288770  0.45536751  1
  H+  H334  1  0.54359165  0.15102901  0.44786406  1
  H+  H335  1  0.11162964  0.13453816  0.67501051  1
  H+  H336  1  0.42573138  0.04026255  0.50223142  1
  H+  H337  1  0.38935552  0.56308941  0.24402727  1
  H+  H338  1  0.65334226  0.82592395  0.91248751  1
  H+  H339  1  0.69986726  0.38226970  0.59141600  1
  H+  H340  1  0.16997541  0.35589174  0.93948998  1
  H+  H341  1  0.78147408  0.13888578  0.82641412  1
  H+  H342  1  0.41795029  0.10215289  0.90772616  1
  H+  H343  1  0.10917468  0.95957714  0.02787117  1
  H+  H344  1  0.35698069  0.35380526  -0.00016019  1
  H+  H345  1  0.92557499  0.09826273  0.93962042  1
  H+  H346  1  -0.03497164  0.82415054  0.02744618  1
  H+  H347  1  0.57879867  0.65581691  0.73137135  1
  H+  H348  1  0.82691467  0.40036224  0.08162171  1
  H+  H349  1  0.58454408  0.42262363  0.06225982  1
  H+  H350  1  0.84327497  0.91628504  0.73221376  1
  H+  H351  1  0.52018756  0.88816484  0.82019178  1
  H+  H352  1  0.41627554  0.57929072  0.55957144  1
  H+  H353  1  0.65555100  0.78563728  0.91702811  1
  H+  H354  1  0.83959121  0.41994004  0.73695368  1
  H+  H355  1  0.11823634  0.88495119  0.49800810  1
  H+  H356  1  0.17693051  0.08223153  0.27103780  1
  H+  H357  1  0.61700382  0.09987637  0.50782499  1
  H+  H358  1  0.69739553  0.37188219  0.92279916  1
  H+  H359  1  0.91805575  0.83679807  0.23928827  1
  H+  H360  1  0.91735432  0.33764047  0.93839769  1
  H+  H361  1  0.22780638  0.85733961  0.17923241  1
  H+  H362  1  0.42111735  0.83553169  0.92991553  1
  H+  H363  1  0.11972749  0.63596959  0.50295858  1
  H+  H364  1  0.61528513  0.68476124  0.10032400  1
  H+  H365  1  0.68053620  0.84696483  0.23495871  1
  H+  H366  1  0.84192300  0.17394796  0.76770356  1
  H+  H367  1  0.67382161  0.54119115  0.32152691  1
  H+  H368  1  0.08835236  0.91659725  0.40028318  1
  H+  H369  1  0.17921639  0.84084672  0.27601502  1
  H+  H370  1  0.34458666  0.17287038  0.39863302  1
  H+  H371  1  0.68704398  0.08122068  0.93549789  1
  H+  H372  1  0.47159786  0.90666306  0.28102738  1
  H+  H373  1  0.64324936  0.37241696  0.82949836  1
  H+  H374  1  0.32855640  0.40455821  0.08169726  1
  H+  H375  1  0.18950799  0.61043755  0.23997049  1
  H+  H376  1  0.23530729  0.61959498  0.17280364  1
  H+  H377  1  0.09975739  0.46825320  0.47806273  1
  H+  H378  1  0.39839607  0.82842441  0.58539727  1
  H+  H379  1  0.43330764  0.10311895  0.60002353  1
  H+  H380  1  0.42468941  0.33542535  0.26907351  1
  H+  H381  1  0.91137948  0.62244291  0.93783235  1
  H+  H382  1  0.68601330  0.58889604  0.23219336  1
  H+  H383  1  0.60777211  0.42172611  0.37764928  1
  O2-  O384  1  0.07997987  0.15135094  0.15617605  1
  O2-  O385  1  0.08565179  0.16720277  0.48260634  1
  O2-  O386  1  0.08273179  0.17580908  0.80833943  1
  O2-  O387  1  0.07484940  0.44254379  0.15716864  1
  O2-  O388  1  0.06909811  0.40747175  0.46523419  1
  O2-  O389  1  0.07955568  0.42345660  0.81108963  1
  O2-  O390  1  0.08814401  0.66846447  0.14918757  1
  O2-  O391  1  0.09081263  0.67304236  0.49328705  1
  O2-  O392  1  0.08228317  0.68457122  0.80991715  1
  O2-  O393  1  0.09040714  0.91455542  0.16209409  1
  O2-  O394  1  0.08940389  0.91616985  0.48195226  1
  O2-  O395  1  0.13099214  0.93648186  0.78867344  1
  O2-  O396  1  0.33566429  0.16145766  0.15815184  1
  O2-  O397  1  0.34441633  0.17225772  0.47899879  1
  O2-  O398  1  0.31145355  0.16500626  0.81818770  1
  O2-  O399  1  0.32586349  0.39438264  0.15401867  1
  O2-  O400  1  0.33115706  0.41175659  0.47833017  1
  O2-  O401  1  0.33331219  0.42757887  0.81326715  1
  O2-  O402  1  0.33087384  0.64920388  0.13515734  1
  O2-  O403  1  0.32494800  0.66214699  0.47983632  1
  O2-  O404  1  0.32048221  0.67129748  0.80164207  1
  O2-  O405  1  0.32699289  0.89980332  0.14582491  1
  O2-  O406  1  0.35638671  0.93345522  0.48867039  1
  O2-  O407  1  0.32860478  0.92177759  0.81213920  1
  O2-  O408  1  0.61721100  0.18682011  0.15278486  1
  O2-  O409  1  0.54433819  0.14523625  0.49394857  1
  O2-  O410  1  0.59057251  0.16167517  0.82173100  1
  O2-  O411  1  0.59014048  0.42226160  0.14010303  1
  O2-  O412  1  0.57351818  0.41457908  0.49706473  1
  O2-  O413  1  0.59256859  0.42619690  0.80718866  1
  O2-  O414  1  0.61792678  0.69043474  0.14656493  1
  O2-  O415  1  0.58761989  0.66423577  0.47747994  1
  O2-  O416  1  0.58926016  0.66839197  0.79993112  1
  O2-  O417  1  0.58810649  0.92725617  0.15397752  1
  O2-  O418  1  0.59570195  0.92561206  0.47589709  1
  O2-  O419  1  0.57937713  0.91828770  0.80262205  1
  O2-  O420  1  0.83656746  0.16960320  0.15769423  1
  O2-  O421  1  0.82607116  0.16587058  0.48065332  1
  O2-  O422  1  0.84277667  0.17575991  0.81298511  1
  O2-  O423  1  0.81485863  0.39076649  0.13949164  1
  O2-  O424  1  0.83326315  0.42027525  0.47813955  1
  O2-  O425  1  0.84072682  0.42433806  0.80746799  1
  O2-  O426  1  0.85034699  0.66541089  0.15373759  1
  O2-  O427  1  0.84391717  0.67459485  0.47874745  1
  O2-  O428  1  0.81989002  0.65521193  0.80654987  1
  O2-  O429  1  0.85308923  0.93275622  0.15453345  1
  O2-  O430  1  0.83518267  0.91453750  0.47974329  1
  O2-  O431  1  0.83785068  0.92326968  0.82845096  1
  O2-  O432  1  0.17121308  0.08125959  0.19463794  1
  O2-  O433  1  0.17323590  0.08459984  0.52168156  1
  O2-  O434  1  0.13300922  0.07207922  0.84195130  1
  O2-  O435  1  0.15656878  0.30747828  0.19184545  1
  O2-  O436  1  0.16384340  0.33766528  0.51246558  1
  O2-  O437  1  0.16604200  0.34461408  0.85393125  1
  O2-  O438  1  0.17868492  0.59930224  0.19321463  1
  O2-  O439  1  0.15814957  0.58170310  0.51530097  1
  O2-  O440  1  0.15900722  0.59169654  0.85146761  1
  O2-  O441  1  0.17021614  0.83034312  0.19928153  1
  O2-  O442  1  0.17342986  0.83259725  0.52651626  1
  O2-  O443  1  0.16096979  0.83961826  0.84603505  1
  O2-  O444  1  0.40770395  0.06337137  0.18207841  1
  O2-  O445  1  0.45374698  0.10347901  0.51401279  1
  O2-  O446  1  0.40626377  0.09285555  0.86096964  1
  O2-  O447  1  0.42369608  0.32690109  0.19153217  1
  O2-  O448  1  0.41341981  0.32898892  0.52901406  1
  O2-  O449  1  0.41850260  0.33954027  0.84981926  1
  O2-  O450  1  0.39310589  0.55526289  0.19647783  1
  O2-  O451  1  0.41718740  0.58186371  0.51416711  1
  O2-  O452  1  0.39951802  0.59290736  0.85650067  1
  O2-  O453  1  0.42360216  0.82405702  0.17955327  1
  O2-  O454  1  0.40592021  0.82176409  0.53624077  1
  O2-  O455  1  0.41498686  0.83805252  0.84847570  1
  O2-  O456  1  0.67164718  0.09045691  0.19471905  1
  O2-  O457  1  0.65595021  0.07891148  0.52078520  1
  O2-  O458  1  0.68042194  0.07797331  0.85222910  1
  O2-  O459  1  0.65854683  0.27209901  0.17947976  1
  O2-  O460  1  0.66398859  0.34480394  0.51838739  1
  O2-  O461  1  0.67537646  0.34376260  0.84494065  1
  O2-  O462  1  0.67388580  0.58003134  0.18736090  1
  O2-  O463  1  0.67405684  0.57873555  0.51710854  1
  O2-  O464  1  0.65562335  0.58595898  0.84056104  1
  O2-  O465  1  0.68502579  0.85583568  0.18971079  1
  O2-  O466  1  0.66656332  0.83640294  0.52014011  1
  O2-  O467  1  0.67025509  0.83323444  0.79015560  1
  O2-  O468  1  0.91248526  0.08409347  0.19968619  1
  O2-  O469  1  0.91329022  0.08457925  0.51736089  1
  O2-  O470  1  0.92409165  0.09418748  0.85830207  1
  O2-  O471  1  0.93790253  0.39392751  0.20881126  1
  O2-  O472  1  0.90964305  0.33195137  0.52339048  1
  O2-  O473  1  0.91755168  0.34104253  0.85784616  1
  O2-  O474  1  0.92805860  0.58675058  0.20314127  1
  O2-  O475  1  0.93011479  0.59549989  0.51430877  1
  O2-  O476  1  0.91761673  0.59989845  0.85384453  1
  O2-  O477  1  0.92353819  0.83690605  0.19413362  1
  O2-  O478  1  0.91545861  0.83034578  0.52101200  1
  O2-  O479  1  0.93884740  0.81754875  0.82648187  1
  O2-  O480  1  0.18201965  0.08363967  0.31660560  1
  O2-  O481  1  0.16446503  0.07696117  0.64556676  1
  O2-  O482  1  0.16275801  0.06794311  1.00744602  1
  O2-  O483  1  0.15601087  0.31690430  0.31383551  1
  O2-  O484  1  0.17734811  0.38032822  0.63449753  1
  O2-  O485  1  0.16680732  0.35886443  0.98418563  1
  O2-  O486  1  0.19933663  0.62381626  0.30800134  1
  O2-  O487  1  0.15958558  0.58423519  0.63718679  1
  O2-  O488  1  0.16753731  0.58763834  0.97484437  1
  O2-  O489  1  0.17926025  0.84234887  0.32166493  1
  O2-  O490  1  0.15935176  0.83816538  0.64166841  1
  O2-  O491  1  0.16255488  0.82777992  0.98074537  1
  O2-  O492  1  0.42024616  0.08297517  0.31184996  1
  O2-  O493  1  0.42099199  0.09372005  0.64392432  1
  O2-  O494  1  0.43722895  0.12371126  0.97412813  1
  O2-  O495  1  0.42849129  0.34073766  0.31444180  1
  O2-  O496  1  0.41502412  0.32792756  0.65109819  1
  O2-  O497  1  0.36456260  0.31051792  0.97357987  1
  O2-  O498  1  0.39392040  0.57448098  0.30955171  1
  O2-  O499  1  0.41625678  0.56981135  0.63913220  1
  O2-  O500  1  0.43558453  0.57623037  0.99499779  1
  O2-  O501  1  0.46025243  0.87446008  0.31849937  1
  O2-  O502  1  0.40143341  0.84311075  0.64794716  1
  O2-  O503  1  0.41499099  0.82137258  0.97402673  1
  O2-  O504  1  0.65206467  0.09364989  0.31925225  1
  O2-  O505  1  0.67598757  0.11163172  0.63753826  1
  O2-  O506  1  0.69005447  0.09106237  0.97986339  1
  O2-  O507  1  0.65928859  0.31119871  0.31105159  1
  O2-  O508  1  0.71904002  0.40894593  0.63253513  1
  O2-  O509  1  0.71350601  0.39591598  0.96440929  1
  O2-  O510  1  0.70489337  0.60155719  0.30808052  1
  O2-  O511  1  0.66435384  0.57765077  0.63907658  1
  O2-  O512  1  0.68011716  0.59300537  0.97474511  1
  O2-  O513  1  0.67692427  0.83465809  0.31156201  1
  O2-  O514  1  0.66612051  0.84038279  0.67117775  1
  O2-  O515  1  0.66842961  0.84924026  1.03451685  1
  O2-  O516  1  0.89236379  0.07526155  0.31216620  1
  O2-  O517  1  0.91813356  0.08510873  0.64113588  1
  O2-  O518  1  0.92709324  0.09747191  0.98484951  1
  O2-  O519  1  0.91008343  0.31136023  0.23890405  1
  O2-  O520  1  0.91208569  0.33403521  0.64654145  1
  O2-  O521  1  0.91805495  0.33922397  0.98378319  1
  O2-  O522  1  0.91422446  0.56950839  0.31723809  1
  O2-  O523  1  0.93673311  0.61057598  0.64695388  1
  O2-  O524  1  0.90890894  0.63305049  0.98167752  1
  O2-  O525  1  0.91588720  0.84208850  0.31872626  1
  O2-  O526  1  0.92387783  0.84447249  0.63391114  1
  O2-  O527  1  0.84392544  0.82768723  0.91965999  1
  O2-  O528  1  0.08358245  0.14417596  0.03481777  1
  O2-  O529  1  0.09337892  0.16251138  0.35658393  1
  O2-  O530  1  0.08281405  0.16541674  0.69061767  1
  O2-  O531  1  0.08304730  0.43286454  0.03201826  1
  O2-  O532  1  0.01659255  0.33304571  0.33234017  1
  O2-  O533  1  0.07285052  0.42216502  0.68466696  1
  O2-  O534  1  0.07862835  0.66162281  0.02376340  1
  O2-  O535  1  0.09905531  0.68050312  0.34932300  1
  O2-  O536  1  0.09606589  0.69837051  0.69445708  1
  O2-  O537  1  0.08321932  0.89933007  0.04223612  1
  O2-  O538  1  0.08684690  0.91700072  0.35508486  1
  O2-  O539  1  0.07567747  0.90852537  0.67564432  1
  O2-  O540  1  0.32851855  0.16179820  0.03621488  1
  O2-  O541  1  0.34588735  0.17326999  0.35325089  1
  O2-  O542  1  0.33044428  0.16516698  0.68888869  1
  O2-  O543  1  0.33135212  0.41189322  0.03573826  1
  O2-  O544  1  0.32588745  0.41226519  0.35524172  1
  O2-  O545  1  0.33151396  0.41170214  0.69099588  1
  O2-  O546  1  0.34378135  0.64658316  -0.03661741  1
  O2-  O547  1  0.34138798  0.68095830  0.35897734  1
  O2-  O548  1  0.32863900  0.64854942  0.68246256  1
  O2-  O549  1  0.31968411  0.89459907  0.01914463  1
  O2-  O550  1  0.34041543  0.92277594  0.36478157  1
  O2-  O551  1  0.32853298  0.93092418  0.69071026  1
  O2-  O552  1  0.50448178  0.07449184  0.07231980  1
  O2-  O553  1  0.56650690  0.16381035  0.37332925  1
  O2-  O554  1  0.53525882  0.08060926  0.71778301  1
  O2-  O555  1  0.58699915  0.42646526  0.01670297  1
  O2-  O556  1  0.59859277  0.42240806  0.33415343  1
  O2-  O557  1  0.58556463  0.41875659  0.68245200  1
  O2-  O558  1  0.60464474  0.67458314  0.02898394  1
  O2-  O559  1  0.61543267  0.68079573  0.35241472  1
  O2-  O560  1  0.57626661  0.65506869  0.68353112  1
  O2-  O561  1  0.54969517  0.95384874  0.03762216  1
  O2-  O562  1  0.62740686  0.94094679  0.36709359  1
  O2-  O563  1  0.56062666  0.91145043  0.67889238  1
  O2-  O564  1  0.84463568  0.17963159  0.02929648  1
  O2-  O565  1  0.81252679  0.14193528  0.35767005  1
  O2-  O566  1  0.84019824  0.16981400  0.68697278  1
  O2-  O567  1  0.83951187  0.41378986  0.03108731  1
  O2-  O568  1  0.83033346  0.40895083  0.35190863  1
  O2-  O569  1  0.84184850  0.41944219  0.69012928  1
  O2-  O570  1  0.90504155  0.78103315  0.01794570  1
  O2-  O571  1  0.85927868  0.68727113  0.36424804  1
  O2-  O572  1  0.82801128  0.65871447  0.68966344  1
  O2-  O573  1  0.84465172  0.93797300  0.03835445  1
  O2-  O574  1  0.83509784  0.92225456  0.35625165  1
  O2-  O575  1  0.84026959  0.91625729  0.68738342  1
