# generated using pymatgen
data_H2O
_symmetry_space_group_name_H-M   'P 1'
_cell_length_a   17.99578589
_cell_length_b   17.99545825
_cell_length_c   22.00130537
_cell_angle_alpha   90.00023898
_cell_angle_beta   90.01983278
_cell_angle_gamma   120.01796327
_symmetry_Int_Tables_number   1
_chemical_formula_structural   H2O
_chemical_formula_sum   'H384 O192'
_cell_volume   6169.27504876
_cell_formula_units_Z   192
loop_
 _symmetry_equiv_pos_site_id
 _symmetry_equiv_pos_as_xyz
  1  'x, y, z'
loop_
 _atom_type_symbol
 _atom_type_oxidation_number
  H+  1.0
  O2-  -2.0
loop_
 _atom_site_type_symbol
 _atom_site_label
 _atom_site_symmetry_multiplicity
 _atom_site_fract_x
 _atom_site_fract_y
 _atom_site_fract_z
 _atom_site_occupancy
  H+  H0  1  0.38276437  0.10446336  0.33223637  1
  H+  H1  1  0.88028204  0.78037148  0.31567531  1
  H+  H2  1  0.88721282  0.60311466  0.50444803  1
  H+  H3  1  0.88553420  1.02993260  0.15779709  1
  H+  H4  1  0.72494523  0.87371993  0.32255660  1
  H+  H5  1  0.90159467  0.89159194  0.66349100  1
  H+  H6  1  0.12867782  0.13225626  0.67434163  1
  H+  H7  1  0.39963129  0.62362122  0.01180995  1
  H+  H8  1  0.27300086  0.88563028  0.83190102  1
  H+  H9  1  0.11233693  0.22548043  0.33718121  1
  H+  H10  1  0.14371411  0.77781750  0.99571378  1
  H+  H11  1  0.61535012  0.89457603  0.33090576  1
  H+  H12  1  0.63722121  0.03052696  0.32326016  1
  H+  H13  1  0.86343819  0.62477871  0.66665140  1
  H+  H14  1  0.13631859  0.51722276  0.50336553  1
  H+  H15  1  0.91562778  0.72174755  0.37619513  1
  H+  H16  1  0.39208437  0.77486198  0.50437815  1
  H+  H17  1  0.37179281  0.89173304  0.00322742  1
  H+  H18  1  0.38340640  0.60990702  0.83865672  1
  H+  H19  1  0.52454404  0.38344943  1.01008852  1
  H+  H20  1  0.63277370  0.27532955  0.32655748  1
  H+  H21  1  0.72605931  0.35773170  0.66173624  1
  H+  H22  1  0.04555108  0.13208967  0.49106205  1
  H+  H23  1  0.00085526  0.36111263  0.00407845  1
  H+  H24  1  0.15198559  0.11261597  0.50258498  1
  H+  H25  1  0.51285953  0.40080965  0.49458976  1
  H+  H26  1  0.88438808  0.52325451  0.32266554  1
  H+  H27  1  0.41778029  0.82917774  0.37989372  1
  H+  H28  1  0.91189882  0.08000776  0.22245541  1
  H+  H29  1  0.87993933  0.37404126  0.50059431  1
  H+  H30  1  1.02125508  0.87191720  1.01126357  1
  H+  H31  1  0.74620740  0.14132298  0.49210452  1
  H+  H32  1  0.64845700  0.52762761  0.64175807  1
  H+  H33  1  0.02706948  0.13446984  0.15947475  1
  H+  H34  1  -0.07431759  0.58656475  0.26562769  1
  H+  H35  1  0.88436314  0.36504081  0.32532877  1
  H+  H36  1  0.89452546  0.86081582  0.85417726  1
  H+  H37  1  0.84840856  0.22660815  0.66703738  1
  H+  H38  1  0.50931887  0.62548268  0.83478386  1
  H+  H39  1  0.82405431  0.17138494  0.39306099  1
  H+  H40  1  0.62208604  0.38545611  0.65836980  1
  H+  H41  1  0.13829831  0.61002079  0.31822044  1
  H+  H42  1  0.39833870  0.86586940  0.17618138  1
  H+  H43  1  0.62186364  0.56287153  0.50267373  1
  H+  H44  1  0.45740766  0.98088331  0.12618837  1
  H+  H45  1  0.85844162  0.38111396  0.67436468  1
  H+  H46  1  0.68036234  0.57360972  0.84683191  1
  H+  H47  1  0.10509661  0.88409687  0.33232682  1
  H+  H48  1  0.91946018  0.57604377  0.60118705  1
  H+  H49  1  0.62425907  0.01897152  0.50471497  1
  H+  H50  1  0.86050423  0.13741927  0.15864613  1
  H+  H51  1  0.43923752  0.66495247  0.66968167  1
  H+  H52  1  0.37937495  0.61187944  0.31630495  1
  H+  H53  1  0.61337611  0.47310346  1.01074183  1
  H+  H54  1  0.72186144  0.87152958  0.50450201  1
  H+  H55  1  0.49187601  0.11249295  0.99358690  1
  H+  H56  1  0.22627728  0.87463022  0.32200033  1
  H+  H57  1  0.34612198  0.71419535  0.33588283  1
  H+  H58  1  0.12518693  0.33295862  -0.00636774  1
  H+  H59  1  1.04454335  0.88688377  0.66220824  1
  H+  H60  1  0.26630474  0.38414135  0.16813650  1
  H+  H61  1  0.61858645  0.10574385  0.50891125  1
  H+  H62  1  0.36862955  0.63281959  0.49383787  1
  H+  H63  1  0.26883601  0.12092501  0.34135630  1
  H+  H64  1  0.61740694  0.48498592  0.33883877  1
  H+  H65  1  0.68315749  0.90559909  -0.00187448  1
  H+  H66  1  0.36237098  0.72411209  0.16295845  1
  H+  H67  1  0.72588839  0.12068807  0.32193003  1
  H+  H68  1  0.87982125  0.25994505  0.84418347  1
  H+  H69  1  0.36559398  0.97168650  0.83094133  1
  H+  H70  1  0.11911717  0.76070784  0.50601049  1
  H+  H71  1  0.23940116  0.11177684  0.66017662  1
  H+  H72  1  0.59478469  0.77546652  0.64322277  1
  H+  H73  1  0.20344697  0.72634196  0.37619104  1
  H+  H74  1  0.52683502  0.89632973  0.33269445  1
  H+  H75  1  0.22822965  0.36032096  0.84004126  1
  H+  H76  1  0.91293659  0.78653370  0.83226429  1
  H+  H77  1  0.80835892  0.66303806  0.81423932  1
  H+  H78  1  0.88433981  0.03007238  0.32296021  1
  H+  H79  1  0.86551017  0.76008815  0.16409604  1
  H+  H80  1  0.36071383  0.38861717  0.16831036  1
  H+  H81  1  0.10596993  0.38073241  0.67103524  1
  H+  H82  1  0.52099192  0.65268960  0.67024405  1
  H+  H83  1  0.11708918  0.22057356  0.16457261  1
  H+  H84  1  0.38666248  0.02014482  0.66009635  1
  H+  H85  1  0.89293366  0.64147711  0.15450584  1
  H+  H86  1  0.51903485  0.64829445  0.32627550  1
  H+  H87  1  0.19231382  0.14730314  0.85638701  1
  H+  H88  1  0.14170247  0.74564246  0.33905421  1
  H+  H89  1  0.14361369  0.27190936  0.50115096  1
  H+  H90  1  0.88447092  0.60614926  -0.01356547  1
  H+  H91  1  0.13120271  0.97988324  0.66626642  1
  H+  H92  1  0.72932523  0.10685547  0.17243986  1
  H+  H93  1  0.64213374  0.37723103  0.17362693  1
  H+  H94  1  0.07451886  0.40290373  0.09636733  1
  H+  H95  1  0.21735661  0.59705405  0.31663092  1
  H+  H96  1  0.62777575  0.25085220  0.50604081  1
  H+  H97  1  0.03931602  0.90037191  0.82359454  1
  H+  H98  1  0.73033714  0.10893461  0.65622519  1
  H+  H99  1  0.11179622  0.63098038  0.49242199  1
  H+  H100  1  0.26709871  0.37697126  0.01082610  1
  H+  H101  1  0.12192315  0.89048817  0.15974435  1
  H+  H102  1  0.85683797  0.89534038  0.12883660  1
  H+  H103  1  0.27985194  0.38795527  0.49724880  1
  H+  H104  1  0.62610874  0.72970181  0.02666328  1
  H+  H105  1  0.97149282  0.36063061  0.65733333  1
  H+  H106  1  0.38689709  0.52617258  0.30792981  1
  H+  H107  1  0.61296245  0.20805211  0.83527774  1
  H+  H108  1  0.36195980  0.97853063  0.33601202  1
  H+  H109  1  0.39393207  0.14317072  0.81719857  1
  H+  H110  1  0.93268654  0.08835921  0.98497734  1
  H+  H111  1  0.90970690  0.74882900  0.64034535  1
  H+  H112  1  0.91403155  0.33528040  0.26556080  1
  H+  H113  1  0.23134123  0.86922763  0.99517470  1
  H+  H114  1  0.38035354  0.27787236  0.18200754  1
  H+  H115  1  0.48391042  0.09970082  0.83686925  1
  H+  H116  1  0.76932185  0.38550528  0.33385617  1
  H+  H117  1  0.15989891  0.57755505  0.22051881  1
  H+  H118  1  0.13956720  0.26627965  0.66107280  1
  H+  H119  1  0.37355475  0.98111490  0.00357289  1
  H+  H120  1  0.13225642  0.35855537  0.17054698  1
  H+  H121  1  0.47103668  0.36489009  0.17428111  1
  H+  H122  1  0.83210317  0.14251582  0.49763849  1
  H+  H123  1  0.97182954  0.35996207  0.17031016  1
  H+  H124  1  0.40751712  0.58814099  0.22924633  1
  H+  H125  1  0.52856365  0.88893197  0.17304535  1
  H+  H126  1  0.13649268  0.35755207  0.50311993  1
  H+  H127  1  0.35754409  0.37862694  0.67179086  1
  H+  H128  1  0.51974047  0.89303471  0.67645799  1
  H+  H129  1  0.91956825  0.81760038  0.55191022  1
  H+  H130  1  0.57755435  0.44757323  0.84021472  1
  H+  H131  1  0.60351379  0.22047946  0.68154986  1
  H+  H132  1  0.80152417  0.78822786  0.18804170  1
  H+  H133  1  0.22333928  0.60979231  0.16346603  1
  H+  H134  1  0.13846024  0.87253593  0.83916683  1
  H+  H135  1  0.35328892  0.38290835  0.83154796  1
  H+  H136  1  0.76486095  0.86843700  0.85951833  1
  H+  H137  1  1.01619211  0.88597966  0.33123985  1
  H+  H138  1  0.63824453  0.61289524  1.00536184  1
  H+  H139  1  0.31053687  0.57948050  0.70104991  1
  H+  H140  1  0.12405416  0.22120682  0.83466743  1
  H+  H141  1  0.61918098  0.89185582  0.16117741  1
  H+  H142  1  0.12089446  0.59122839  0.85965271  1
  H+  H143  1  0.36586142  0.88949757  0.67726176  1
  H+  H144  1  0.14208705  0.86527677  0.65569141  1
  H+  H145  1  0.38779263  0.76974029  0.65956737  1
  H+  H146  1  0.09423919  0.43542610  -0.00903156  1
  H+  H147  1  0.11160704  0.63819604  0.67176688  1
  H+  H148  1  0.64482171  0.58892369  0.25867391  1
  H+  H149  1  0.36305560  0.89074662  0.48778890  1
  H+  H150  1  0.60215066  0.59187287  0.85039775  1
  H+  H151  1  0.08050330  0.19580659  0.99330972  1
  H+  H152  1  0.84216888  0.66217622  0.05673362  1
  H+  H153  1  0.61139639  0.23792795  0.15803886  1
  H+  H154  1  0.97577747  0.60728365  0.66220892  1
  H+  H155  1  0.12781021  0.10649503  0.17453407  1
  H+  H156  1  0.68750650  0.63391540  0.15915456  1
  H+  H157  1  0.37190404  0.86580004  0.33915364  1
  H+  H158  1  0.26946192  0.63801778  0.83942559  1
  H+  H159  1  0.38611018  0.27394304  0.99503586  1
  H+  H160  1  0.63077478  0.00364112  0.17357765  1
  H+  H161  1  0.12319412  0.64745527  0.15016943  1
  H+  H162  1  0.33240812  0.41361046  0.26147524  1
  H+  H163  1  0.21955855  0.60979842  0.66299691  1
  H+  H164  1  0.48387117  0.37661815  0.33534348  1
  H+  H165  1  0.47503427  0.86657648  0.50557878  1
  H+  H166  1  0.58541626  0.75385745  0.48068141  1
  H+  H167  1  0.16154225  0.68867653  0.80623328  1
  H+  H168  1  0.71659833  0.62277596  0.30912068  1
  H+  H169  1  0.88268119  0.64034198  0.33348825  1
  H+  H170  1  0.61383127  0.11683122  0.82909822  1
  H+  H171  1  0.31502412  0.16471761  -0.06669337  1
  H+  H172  1  0.61967357  0.21995052  0.00775811  1
  H+  H173  1  0.22430871  0.36297081  0.31822748  1
  H+  H174  1  0.40352152  0.11403934  0.97983873  1
  H+  H175  1  0.38114305  0.51965807  0.83413881  1
  H+  H176  1  0.87577368  0.77461691  0.48956443  1
  H+  H177  1  0.61430739  0.98265464  0.82400580  1
  H+  H178  1  0.90581062  0.53236601  0.16872861  1
  H+  H179  1  0.82402739  0.89724004  0.91618877  1
  H+  H180  1  0.03993562  0.64736992  0.00408887  1
  H+  H181  1  0.85498214  0.22417524  0.16432666  1
  H+  H182  1  0.72961420  0.87952168  0.15831633  1
  H+  H183  1  0.72041671  0.61682725  0.49851480  1
  H+  H184  1  0.65689980  0.83095753  0.90493365  1
  H+  H185  1  0.04378138  0.13964257  0.67787158  1
  H+  H186  1  0.44593502  0.34043541  0.85731081  1
  H+  H187  1  0.62366422  0.76175208  0.85104396  1
  H+  H188  1  0.87191388  0.28272254  0.50081925  1
  H+  H189  1  0.86782211  0.48124468  0.99433740  1
  H+  H190  1  0.84220447  0.01111083  0.68515694  1
  H+  H191  1  0.13080658  0.76609658  0.65549793  1
  H+  H192  1  0.52003103  0.15361891  0.16177095  1
  H+  H193  1  0.93631528  0.92540585  0.64392243  1
  H+  H194  1  0.08160942  0.91438212  0.42805124  1
  H+  H195  1  0.47577448  0.35804343  0.65194150  1
  H+  H196  1  0.42889453  0.84211219  0.93317137  1
  H+  H197  1  0.15864458  0.32235994  0.59880647  1
  H+  H198  1  0.73717988  0.13281539  0.81693050  1
  H+  H199  1  0.10847503  0.47097263  0.15125527  1
  H+  H200  1  0.35924071  0.72856523  0.83360828  1
  H+  H201  1  0.85589625  0.47452659  0.82748447  1
  H+  H202  1  0.63492212  0.78516782  0.31789970  1
  H+  H203  1  0.86211726  0.27129950  0.99822226  1
  H+  H204  1  0.72008747  0.35734217  0.84471563  1
  H+  H205  1  0.10625975  0.47019531  0.33472359  1
  H+  H206  1  -0.02116127  0.60778806  0.50411088  1
  H+  H207  1  0.12634581  1.00470772  0.00875217  1
  H+  H208  1  0.38535788  0.86147173  0.84292421  1
  H+  H209  1  0.15949250  0.56299522  1.01778251  1
  H+  H210  1  0.22371204  0.60696714  0.50456735  1
  H+  H211  1  0.39571991  0.53319456  1.01046986  1
  H+  H212  1  0.49355928  0.88267492  0.98882850  1
  H+  H213  1  0.85555482  0.67757119  0.75157000  1
  H+  H214  1  0.38884816  0.26667244  0.65476359  1
  H+  H215  1  0.37089545  0.23031931  0.49115858  1
  H+  H216  1  0.53331902  0.64334658  1.02559289  1
  H+  H217  1  0.51453045  0.12870049  0.49354164  1
  H+  H218  1  0.22794433  0.86533520  0.16732740  1
  H+  H219  1  0.60663580  0.64880081  0.33506248  1
  H+  H220  1  0.01825927  0.38154141  0.33799549  1
  H+  H221  1  1.02095493  0.88827482  0.48570045  1
  H+  H222  1  0.59516925  0.47866070  0.15459986  1
  H+  H223  1  0.97680326  0.33995424  0.84763750  1
  H+  H224  1  0.85849707  0.89471686  0.33550311  1
  H+  H225  1  0.75946243  0.13360837  0.00952390  1
  H+  H226  1  0.36758134  0.47443337  0.50537803  1
  H+  H227  1  0.61401660  0.44165488  0.50779977  1
  H+  H228  1  0.11191644  0.46522267  0.83216483  1
  H+  H229  1  0.63799521  0.36708074  0.32863302  1
  H+  H230  1  0.88542543  0.36466696  0.17061640  1
  H+  H231  1  0.61103454  0.89462272  0.48922276  1
  H+  H232  1  0.13624136  0.35334763  0.84143560  1
  H+  H233  1  0.85998337  0.23186975  0.33456619  1
  H+  H234  1  -0.00322678  0.62214060  0.16715968  1
  H+  H235  1  0.37632158  0.11481029  0.18027028  1
  H+  H236  1  0.12023544  0.85272980  0.50416542  1
  H+  H237  1  0.47581824  0.86372861  0.83831148  1
  H+  H238  1  0.27091136  0.38092968  0.67242776  1
  H+  H239  1  0.62450078  0.87122889  0.65916444  1
  H+  H240  1  0.86281577  0.97827779  0.49420791  1
  H+  H241  1  0.46864260  0.61856880  0.50924002  1
  H+  H242  1  0.02251180  0.38844581  0.49000634  1
  H+  H243  1  0.72835597  0.84071996  0.69156642  1
  H+  H244  1  0.99262924  0.61659922  0.83678351  1
  H+  H245  1  0.78025156  0.63730812  0.66276546  1
  H+  H246  1  0.63152838  1.01239312  0.66286086  1
  H+  H247  1  0.62488760  0.34316760  0.85131116  1
  H+  H248  1  0.28378474  0.65945474  1.00915950  1
  H+  H249  1  1.00274190  0.22274405  0.62881202  1
  H+  H250  1  0.81331281  0.17013260  0.72763612  1
  H+  H251  1  0.88645765  0.11941882  0.32042183  1
  H+  H252  1  0.84808870  0.47680190  0.49791895  1
  H+  H253  1  0.37076236  0.61403181  0.16439793  1
  H+  H254  1  0.11702186  0.87962169  1.01442745  1
  H+  H255  1  0.86605726  0.38050324  -0.00530057  1
  H+  H256  1  0.85937203  0.46996419  0.67378732  1
  H+  H257  1  0.11752742  -0.01686231  0.16084441  1
  H+  H258  1  0.52019689  0.13736073  0.34069148  1
  H+  H259  1  0.77879531  0.39907725  0.15927958  1
  H+  H260  1  0.13413973  0.36136631  0.32774448  1
  H+  H261  1  0.12770956  1.01884564  0.32543351  1
  H+  H262  1  0.36776000  0.98125338  0.48789227  1
  H+  H263  1  0.25929280  0.13460658  0.17043582  1
  H+  H264  1  0.85562116  0.88704504  0.49159366  1
  H+  H265  1  0.14613370  0.02136126  0.50379617  1
  H+  H266  1  0.10658408  0.47035583  0.67157924  1
  H+  H267  1  0.28434367  0.13859970  0.49562856  1
  H+  H268  1  -0.01485247  0.10252997  0.84298285  1
  H+  H269  1  0.93396479  0.12904292  0.48927653  1
  H+  H270  1  0.79734203  0.61484651  0.14762288  1
  H+  H271  1  0.35022660  0.19972133  0.82382048  1
  H+  H272  1  0.37067738  0.51675511  0.17063092  1
  H+  H273  1  0.63296262  0.63108461  0.68344048  1
  H+  H274  1  0.39230871  0.03480886  0.17197989  1
  H+  H275  1  0.39244454  0.11654223  0.50744946  1
  H+  H276  1  0.36861524  0.13318842  0.66532583  1
  H+  H277  1  0.12613572  0.74866830  0.82741177  1
  H+  H278  1  0.58139077  0.92317224  0.42856633  1
  H+  H279  1  0.14047654  0.77465028  0.16276180  1
  H+  H280  1  0.60550057  0.88605085  0.82378791  1
  H+  H281  1  0.38347296  0.36191175  1.00850278  1
  H+  H282  1  0.15780797  0.09900807  0.03355762  1
  H+  H283  1  1.02186356  0.13812430  0.33633113  1
  H+  H284  1  0.87705824  1.00555611  0.67089060  1
  H+  H285  1  0.61077773  0.14134274  0.33777942  1
  H+  H286  1  0.89864434  0.76900976  0.98932819  1
  H+  H287  1  0.90945565  0.62438104  0.83097580  1
  H+  H288  1  0.37233720  0.39471890  0.31866479  1
  H+  H289  1  0.53498501  0.37089103  0.79102239  1
  H+  H290  1  0.76523642  0.84839481  0.75761993  1
  H+  H291  1  0.15884439  0.33025801  0.23270527  1
  H+  H292  1  0.16357989  0.83913587  0.90146058  1
  H+  H293  1  0.19117634  0.09318280  0.91099924  1
  H+  H294  1  0.13648469  0.64722801  1.00371503  1
  H+  H295  1  0.81591368  0.62263765  0.41896882  1
  H+  H296  1  0.16581993  0.31732813  0.93431092  1
  H+  H297  1  0.33855140  0.91940825  0.73652137  1
  H+  H298  1  0.59040539  0.43381291  0.40194465  1
  H+  H299  1  0.58893280  0.64374551  0.11653741  1
  H+  H300  1  0.82073408  0.41386764  0.76982479  1
  H+  H301  1  0.32881974  0.92139804  0.39771642  1
  H+  H302  1  0.41697265  0.08217853  0.27119422  1
  H+  H303  1  0.67167510  0.34500499  0.23152005  1
  H+  H304  1  0.28216792  0.12493689  -0.00496718  1
  H+  H305  1  0.10417314  0.15932669  0.77854468  1
  H+  H306  1  0.65044987  0.57367463  0.94327710  1
  H+  H307  1  0.09277021  0.66859913  0.43263754  1
  H+  H308  1  0.37883597  0.74355446  0.01009215  1
  H+  H309  1  0.13244233  0.11033266  0.32436465  1
  H+  H310  1  0.16497451  0.58289401  0.60111210  1
  H+  H311  1  0.47543656  0.11008546  0.66148549  1
  H+  H312  1  0.60616500  0.32346896  0.51628840  1
  H+  H313  1  0.42695389  0.07449175  0.89683967  1
  H+  H314  1  0.89598983  1.01544042  0.84415323  1
  H+  H315  1  0.66647472  0.08035327  0.23401830  1
  H+  H316  1  0.55680465  0.69491641  0.42008988  1
  H+  H317  1  0.09818000  0.92165294  0.76479152  1
  H+  H318  1  0.41713162  0.33253575  0.56138036  1
  H+  H319  1  0.57422721  0.15744633  0.73854758  1
  H+  H320  1  0.57673158  0.15909824  0.43287806  1
  H+  H321  1  0.76935587  0.38747025  -0.00184867  1
  H+  H322  1  0.32881176  0.40972012  0.76685243  1
  H+  H323  1  0.33844069  0.67609131  0.09703734  1
  H+  H324  1  0.42603307  0.33834169  0.27676107  1
  H+  H325  1  0.64537289  0.36587435  0.99771405  1
  H+  H326  1  0.16701170  0.83805814  0.26215324  1
  H+  H327  1  0.67634228  0.60270759  0.59149074  1
  H+  H328  1  0.42003894  0.08174098  0.56658955  1
  H+  H329  1  0.41549421  0.82851844  0.60043367  1
  H+  H330  1  0.32367697  0.17219951  0.11457564  1
  H+  H331  1  0.58210235  0.16683352  0.06813106  1
  H+  H332  1  0.99076733  0.77050877  0.60031291  1
  H+  H333  1  0.32241178  0.65305359  0.74556603  1
  H+  H334  1  0.08738194  0.67667425  0.72997577  1
  H+  H335  1  0.43544803  0.60304636  0.57637578  1
  H+  H336  1  0.94016687  0.11481298  0.56052916  1
  H+  H337  1  0.83594972  0.42259375  0.09906553  1
  H+  H338  1  0.33128782  0.65368631  0.39206557  1
  H+  H339  1  0.66686042  0.06800344  0.88674924  1
  H+  H340  1  0.77220224  0.22804581  0.78875925  1
  H+  H341  1  0.15639549  0.07184649  0.23418382  1
  H+  H342  1  0.09527448  0.16469752  0.42801913  1
  H+  H343  1  0.65949568  0.07204780  0.59532751  1
  H+  H344  1  0.43828361  0.70047454  0.45535630  1
  H+  H345  1  0.08191217  0.41512368  0.43099313  1
  H+  H346  1  0.92169939  0.58163569  0.92828616  1
  H+  H347  1  0.37022951  0.93300296  0.09085522  1
  H+  H348  1  0.90871313  0.15797651  0.65227836  1
  H+  H349  1  0.94135242  0.83351551  0.93367382  1
  H+  H350  1  0.32228732  0.41211917  0.07177011  1
  H+  H351  1  0.33098878  0.15353531  0.39962299  1
  H+  H352  1  0.15097930  0.82158133  0.58593497  1
  H+  H353  1  0.66603540  0.72097891  0.71417956  1
  H+  H354  1  0.91253585  0.33792423  0.59706221  1
  H+  H355  1  0.83027063  0.92310850  0.39659868  1
  H+  H356  1  0.08235875  0.41171905  0.76968196  1
  H+  H357  1  0.75436748  0.38832587  0.49379259  1
  H+  H358  1  0.77574099  0.53321444  0.45277257  1
  H+  H359  1  0.17923274  0.08235596  0.60018586  1
  H+  H360  1  0.60388834  0.43510981  0.71018184  1
  H+  H361  1  0.38620366  0.36564230  0.50345271  1
  H+  H362  1  0.77347724  0.63297569  1.00246970  1
  H+  H363  1  0.09561329  0.68023074  0.08984153  1
  H+  H364  1  0.66457028  0.31855290  0.60277473  1
  H+  H365  1  0.58005590  0.92298255  0.73790496  1
  H+  H366  1  0.67783911  0.84915226  0.22171330  1
  H+  H367  1  0.35218685  0.17096277  0.72635489  1
  H+  H368  1  0.57724223  0.41386280  0.10001552  1
  H+  H369  1  0.40835346  0.82833830  0.23958148  1
  H+  H370  1  0.88970892  0.06956824  0.92027903  1
  H+  H371  1  0.81383071  0.17276603  0.07015483  1
  H+  H372  1  0.06205980  0.10164925  0.98550637  1
  H+  H373  1  0.81892121  0.92205922  0.07279618  1
  H+  H374  1  0.39292801  0.33361875  0.91446454  1
  H+  H375  1  0.82509482  0.41869361  0.39405124  1
  H+  H376  1  0.67257155  0.33296103  0.93706608  1
  H+  H377  1  0.08536072  0.91387270  0.09516792  1
  H+  H378  1  0.90675451  0.32381617  0.93421678  1
  H+  H379  1  0.16711465  0.58232357  0.91794290  1
  H+  H380  1  0.82632725  0.97838280  -0.01965685  1
  H+  H381  1  0.58358986  0.65420252  0.78251224  1
  H+  H382  1  0.90112968  0.83719474  0.25675342  1
  H+  H383  1  0.65946987  0.84422985  0.56330308  1
  O2-  O384  1  0.08963835  0.15947750  0.15213444  1
  O2-  O385  1  0.10350291  0.16686195  0.47350751  1
  O2-  O386  1  0.10207869  0.15973436  0.82342924  1
  O2-  O387  1  0.07742258  0.40833956  0.14147378  1
  O2-  O388  1  0.08335004  0.41637734  0.47675670  1
  O2-  O389  1  0.08343074  0.40670490  0.81462173  1
  O2-  O390  1  0.09547900  0.68107637  0.13703529  1
  O2-  O391  1  0.08002336  0.65945859  0.47704313  1
  O2-  O392  1  0.10765031  0.68941858  0.80734512  1
  O2-  O393  1  0.09029538  0.92022090  0.14421833  1
  O2-  O394  1  0.08202072  0.91414557  0.47361213  1
  O2-  O395  1  0.09952911  0.92403913  0.80956308  1
  O2-  O396  1  0.32224981  0.16945907  0.15880554  1
  O2-  O397  1  0.34385828  0.16857639  0.47900051  1
  O2-  O398  1  0.38638214  0.18831043  0.79659065  1
  O2-  O399  1  0.32932314  0.42034429  0.15728920  1
  O2-  O400  1  0.34089926  0.41783799  0.48490609  1
  O2-  O401  1  0.32665563  0.41477947  0.81220813  1
  O2-  O402  1  0.33236393  0.66628036  0.14342481  1
  O2-  O403  1  0.37572452  0.67863053  0.46445707  1
  O2-  O404  1  0.32566484  0.66766650  0.81816737  1
  O2-  O405  1  0.39573207  0.94593830  0.13391976  1
  O2-  O406  1  0.33895346  0.92349965  0.46835321  1
  O2-  O407  1  0.33298295  0.90973794  0.81708312  1
  O2-  O408  1  0.57752324  0.17823418  0.14324798  1
  O2-  O409  1  0.57698001  0.15718710  0.47867200  1
  O2-  O410  1  0.58337809  0.15084404  0.81583471  1
  O2-  O411  1  0.57442260  0.41762917  0.14564448  1
  O2-  O412  1  0.57393923  0.44347478  0.47897037  1
  O2-  O413  1  0.55666687  0.38521278  0.83242891  1
  O2-  O414  1  0.57822469  0.62955476  0.16121952  1
  O2-  O415  1  0.53617243  0.70488694  0.45965554  1
  O2-  O416  1  0.57510492  0.65434088  0.82741010  1
  O2-  O417  1  0.58580503  0.92365525  0.15426818  1
  O2-  O418  1  0.57750431  0.92205093  0.47386041  1
  O2-  O419  1  0.57726895  0.91703152  0.80766419  1
  O2-  O420  1  0.82397782  0.16375635  0.14898176  1
  O2-  O421  1  0.80791920  0.17384066  0.47747246  1
  O2-  O422  1  0.79245122  0.18742309  0.79499356  1
  O2-  O423  1  0.83961542  0.42595124  0.14379699  1
  O2-  O424  1  0.81148063  0.42349366  0.47413009  1
  O2-  O425  1  0.81643502  0.41495106  0.81471244  1
  O2-  O426  1  0.85386149  0.66277623  0.13736588  1
  O2-  O427  1  0.79887067  0.59461367  0.46004499  1
  O2-  O428  1  0.86508895  0.68308970  0.79717096  1
  O2-  O429  1  0.83142731  0.93067432  0.11762821  1
  O2-  O430  1  0.82785862  0.91980156  0.47716780  1
  O2-  O431  1  0.82677075  0.89565111  0.87107403  1
  O2-  O432  1  0.15746509  0.07203495  0.18797538  1
  O2-  O433  1  0.17831588  0.08037998  0.52094549  1
  O2-  O434  1  0.22908006  0.12992042  0.87864457  1
  O2-  O435  1  0.16477941  0.33147810  0.18732838  1
  O2-  O436  1  0.16696766  0.32934381  0.52067844  1
  O2-  O437  1  0.16847256  0.32592835  0.85749170  1
  O2-  O438  1  0.16139789  0.57979982  0.17515001  1
  O2-  O439  1  0.16489204  0.57797743  0.51991166  1
  O2-  O440  1  0.16137875  0.57268442  0.87156622  1
  O2-  O441  1  0.16815663  0.83598819  0.18057931  1
  O2-  O442  1  0.14202081  0.81818689  0.52543930  1
  O2-  O443  1  0.16470038  0.83739146  0.85615656  1
  O2-  O444  1  0.41194561  0.08976374  0.19355402  1
  O2-  O445  1  0.42151708  0.08389874  0.52058356  1
  O2-  O446  1  0.42235680  0.07254099  0.85156190  1
  O2-  O447  1  0.41252542  0.33980442  0.19288239  1
  O2-  O448  1  0.42038340  0.33637505  0.51586138  1
  O2-  O449  1  0.38764515  0.32625876  0.86961952  1
  O2-  O450  1  0.39954638  0.58082768  0.18242108  1
  O2-  O451  1  0.41673282  0.58230962  0.53418834  1
  O2-  O452  1  0.41509616  0.58009268  0.84917140  1
  O2-  O453  1  0.41555972  0.82634149  0.19564036  1
  O2-  O454  1  0.41526935  0.83313124  0.52193275  1
  O2-  O455  1  0.41700408  0.83147004  0.85709385  1
  O2-  O456  1  0.66756861  0.07241891  0.18833117  1
  O2-  O457  1  0.65215178  0.07771162  0.52423802  1
  O2-  O458  1  0.66038662  0.06902233  0.84276632  1
  O2-  O459  1  0.67646546  0.35044546  0.18628933  1
  O2-  O460  1  0.65272523  0.31158208  0.52346079  1
  O2-  O461  1  0.66237792  0.32049465  0.86465836  1
  O2-  O462  1  0.63223195  0.59163089  0.17676504  1
  O2-  O463  1  0.67089874  0.61651252  0.51817345  1
  O2-  O464  1  0.62416954  0.55121879  0.86539559  1
  O2-  O465  1  0.67180463  0.84659361  0.17687314  1
  O2-  O466  1  0.66096878  0.84619605  0.51771545  1
  O2-  O467  1  0.65528374  0.82465441  0.86017319  1
  O2-  O468  1  0.91571778  0.08748230  0.17753205  1
  O2-  O469  1  0.93415985  0.08874511  0.51879490  1
  O2-  O470  1  0.92259613  0.07786130  0.84974538  1
  O2-  O471  1  0.91221523  0.33184789  0.18705241  1
  O2-  O472  1  0.90864449  0.34272789  0.51547144  1
  O2-  O473  1  0.92269550  0.30648697  0.87050962  1
  O2-  O474  1  0.93679396  0.59278001  0.18415451  1
  O2-  O475  1  0.92085548  0.57977459  0.52408664  1
  O2-  O476  1  0.93241845  0.58988492  0.85015862  1
  O2-  O477  1  0.86266360  0.81011402  0.18123972  1
  O2-  O478  1  0.90849030  0.83040264  0.50924895  1
  O2-  O479  1  0.93802192  0.84147475  0.85469854  1
  O2-  O480  1  0.16014830  0.07805471  0.30828744  1
  O2-  O481  1  0.17741298  0.07988196  0.64559752  1
  O2-  O482  1  0.15698623  0.06758138  0.99728411  1
  O2-  O483  1  0.16112532  0.32888370  0.31070034  1
  O2-  O484  1  0.15148828  0.32276324  0.64391315  1
  O2-  O485  1  0.16203081  0.31003776  0.97980161  1
  O2-  O486  1  0.15760493  0.57164898  0.30068091  1
  O2-  O487  1  0.16031713  0.58289492  0.64627829  1
  O2-  O488  1  0.17965989  0.60949881  0.98833688  1
  O2-  O489  1  0.16500997  0.83987724  0.30724909  1
  O2-  O490  1  0.16007917  0.82486422  0.63556556  1
  O2-  O491  1  0.17019303  0.84010682  0.98195807  1
  O2-  O492  1  0.41823501  0.07798950  0.31637042  1
  O2-  O493  1  0.41652097  0.07974811  0.64185233  1
  O2-  O494  1  0.43112704  0.07858406  0.97547338  1
  O2-  O495  1  0.42371603  0.34842874  0.32070595  1
  O2-  O496  1  0.41503387  0.32739997  0.63905971  1
  O2-  O497  1  0.41886740  0.33763764  0.99196027  1
  O2-  O498  1  0.41542963  0.58976764  0.29782024  1
  O2-  O499  1  0.48498210  0.66733468  0.64387905  1
  O2-  O500  1  0.43466854  0.59562223  1.00749419  1
  O2-  O501  1  0.40302092  0.83027605  0.33722665  1
  O2-  O502  1  0.41849631  0.82939690  0.64595512  1
  O2-  O503  1  0.43196961  0.84679178  0.97889244  1
  O2-  O504  1  0.66503529  0.09029898  0.30666524  1
  O2-  O505  1  0.66753186  0.07208589  0.64145891  1
  O2-  O506  1  0.65120296  0.03688857  0.98078539  1
  O2-  O507  1  0.66560081  0.33566457  0.31104398  1
  O2-  O508  1  0.66473833  0.32858913  0.64723742  1
  O2-  O509  1  0.68041785  0.34032136  0.98298676  1
  O2-  O510  1  0.65456383  0.58992918  0.30329814  1
  O2-  O511  1  0.68021769  0.59108766  0.63618424  1
  O2-  O512  1  0.66451859  0.57997210  0.98741214  1
  O2-  O513  1  0.66622338  0.84653616  0.30434961  1
  O2-  O514  1  0.64504608  0.83391076  0.64011310  1
  O2-  O515  1  0.70070933  0.86344723  0.98550199  1
  O2-  O516  1  0.91689992  0.08933849  0.30583933  1
  O2-  O517  1  0.95872090  0.16194471  0.62929928  1
  O2-  O518  1  0.87464419  0.06039901  0.96515668  1
  O2-  O519  1  0.91444498  0.33401121  0.31112379  1
  O2-  O520  1  0.91079997  0.33174687  0.64213089  1
  O2-  O521  1  0.90056398  0.33242493  0.98045345  1
  O2-  O522  1  0.91715040  0.58485068  0.31028761  1
  O2-  O523  1  0.91556438  0.57449915  0.64663242  1
  O2-  O524  1  0.91645543  0.57617119  0.97357647  1
  O2-  O525  1  0.90913455  0.84076178  0.30180454  1
  O2-  O526  1  0.95698427  0.79569268  0.61473865  1
  O2-  O527  1  0.93742101  0.83028132  0.97890240  1
  O2-  O528  1  0.03817568  0.13518711  0.00294376  1
  O2-  O529  1  0.08191460  0.16474025  0.35225198  1
  O2-  O530  1  0.10318189  0.16583800  0.69256252  1
  O2-  O531  1  0.06268138  0.38477145  0.01650626  1
  O2-  O532  1  0.07893655  0.41177534  0.35336506  1
  O2-  O533  1  0.07508635  0.41026301  0.68665062  1
  O2-  O534  1  0.09898076  0.68037946  0.01975938  1
  O2-  O535  1  0.14398545  0.69826993  0.36214099  1
  O2-  O536  1  0.08172874  0.67021684  0.68467063  1
  O2-  O537  1  0.08193797  0.90488022  0.03190736  1
  O2-  O538  1  0.07433125  0.91263509  0.34987561  1
  O2-  O539  1  0.10244159  0.91772127  0.68047577  1
  O2-  O540  1  0.33704514  0.16435142  -0.02503185  1
  O2-  O541  1  0.32847205  0.14329346  0.35512548  1
  O2-  O542  1  0.33974659  0.16524709  0.68107408  1
  O2-  O543  1  0.32688236  0.41146065  0.02705206  1
  O2-  O544  1  0.33554435  0.42197376  0.30555993  1
  O2-  O545  1  0.32925947  0.40880607  0.68961082  1
  O2-  O546  1  0.34377485  0.68414460  0.02659157  1
  O2-  O547  1  0.32036760  0.65267455  0.34726414  1
  O2-  O548  1  0.32133648  0.63836296  0.70059104  1
  O2-  O549  1  0.34168670  0.92086742  0.02104048  1
  O2-  O550  1  0.32561006  0.91691496  0.35105392  1
  O2-  O551  1  0.33979706  0.92314274  0.69140140  1
  O2-  O552  1  0.58380899  0.16111663  0.02282682  1
  O2-  O553  1  0.58122131  0.17029532  0.35607106  1
  O2-  O554  1  0.57003813  0.15963889  0.69339612  1
  O2-  O555  1  0.58591641  0.41178926  0.02408567  1
  O2-  O556  1  0.59415929  0.42733776  0.35722565  1
  O2-  O557  1  0.59352696  0.42143758  0.66710449  1
  O2-  O558  1  0.59588356  0.66908825  0.03905740  1
  O2-  O559  1  0.57717687  0.68138487  0.34513370  1
  O2-  O560  1  0.61239729  0.66394217  0.70808250  1
  O2-  O561  1  0.61622268  0.95942389  0.00057809  1
  O2-  O562  1  0.58625713  0.92594978  0.34810153  1
  O2-  O563  1  0.58075106  0.92578391  0.69064932  1
  O2-  O564  1  0.80960550  0.18431992  0.02659143  1
  O2-  O565  1  0.82840687  0.17006146  0.34831923  1
  O2-  O566  1  0.82199314  0.16594598  0.68177874  1
  O2-  O567  1  0.83586474  0.41889072  0.01086924  1
  O2-  O568  1  0.83020431  0.41689660  0.34922218  1
  O2-  O569  1  0.82635527  0.40970772  0.68890997  1
  O2-  O570  1  0.83635062  0.66036644  0.01181009  1
  O2-  O571  1  0.86357416  0.68038149  0.35485613  1
  O2-  O572  1  0.84126164  0.66441051  0.67815118  1
  O2-  O573  1  0.79483770  0.90805828  -0.00516332  1
  O2-  O574  1  0.82927191  0.92532986  0.35128356  1
  O2-  O575  1  0.75564218  0.81776950  0.71930107  1
