# generated using pymatgen
data_H2O
_symmetry_space_group_name_H-M   'P 1'
_cell_length_a   18.00114481
_cell_length_b   17.99385908
_cell_length_c   22.01308209
_cell_angle_alpha   89.99503438
_cell_angle_beta   89.99992621
_cell_angle_gamma   120.01284888
_symmetry_Int_Tables_number   1
_chemical_formula_structural   H2O
_chemical_formula_sum   'H384 O192'
_cell_volume   6174.18557527
_cell_formula_units_Z   192
loop_
 _symmetry_equiv_pos_site_id
 _symmetry_equiv_pos_as_xyz
  1  'x, y, z'
loop_
 _atom_type_symbol
 _atom_type_oxidation_number
  H+  1.0
  O2-  -2.0
loop_
 _atom_site_type_symbol
 _atom_site_label
 _atom_site_symmetry_multiplicity
 _atom_site_fract_x
 _atom_site_fract_y
 _atom_site_fract_z
 _atom_site_occupancy
  H+  H0  1  0.24981126  0.90027527  0.32875213  1
  H+  H1  1  0.94691567  0.83510564  1.00066822  1
  H+  H2  1  0.35634319  0.21694236  0.00126547  1
  H+  H3  1  0.17633706  0.84294874  0.60614541  1
  H+  H4  1  0.86809305  0.47531291  0.67771126  1
  H+  H5  1  0.38194959  0.65787134  0.15065057  1
  H+  H6  1  0.63422826  0.02584523  0.83524981  1
  H+  H7  1  0.22124150  0.94063535  0.27650112  1
  H+  H8  1  0.51940169  0.14720916  0.67693892  1
  H+  H9  1  0.13433966  0.12170295  0.83615632  1
  H+  H10  1  0.62976660  0.77246745  0.84548650  1
  H+  H11  1  0.11777909  0.71908690  1.00940633  1
  H+  H12  1  0.90078266  0.53073223  0.32337027  1
  H+  H13  1  0.40483448  0.07798539  0.89837501  1
  H+  H14  1  0.13473668  0.53376846  0.52237890  1
  H+  H15  1  0.85682659  0.37365416  1.00090961  1
  H+  H16  1  0.09441106  0.95330994  -0.00121056  1
  H+  H17  1  0.14327640  0.92370289  0.35230402  1
  H+  H18  1  0.57968097  0.91494683  0.77200492  1
  H+  H19  1  0.09562042  0.42851375  0.58512090  1
  H+  H20  1  0.97653485  0.62653287  1.00543447  1
  H+  H21  1  0.02652007  0.12786038  0.15266083  1
  H+  H22  1  0.77855915  0.62437600  0.50426016  1
  H+  H23  1  0.92625964  0.83136786  0.34276430  1
  H+  H24  1  0.14066821  0.51837463  0.99573654  1
  H+  H25  1  0.36291323  0.80959711  0.26962077  1
  H+  H26  1  0.13466938  0.77918766  0.51134909  1
  H+  H27  1  0.64049507  0.79762945  0.51633765  1
  H+  H28  1  0.88344423  0.85779250  0.50407771  1
  H+  H29  1  0.84273196  0.89148946  0.32937376  1
  H+  H30  1  0.22010781  0.35980344  0.51335559  1
  H+  H31  1  -0.08475906  0.33299587  0.58837298  1
  H+  H32  1  0.14262708  0.75963903  0.16637853  1
  H+  H33  1  0.62283072  0.64205668  0.15293512  1
  H+  H34  1  0.97559995  0.60382894  0.85304861  1
  H+  H35  1  0.12338312  0.48052052  0.15028865  1
  H+  H36  1  0.39212059  1.02396075  0.33524028  1
  H+  H37  1  0.63299503  0.61270914  0.32168877  1
  H+  H38  1  0.76559874  0.87968262  0.83270808  1
  H+  H39  1  0.22629580  0.12114487  0.69280035  1
  H+  H40  1  0.78162448  0.14049412  -0.00908093  1
  H+  H41  1  0.09666856  0.61168762  0.32916071  1
  H+  H42  1  0.54906644  0.26864442  0.27628243  1
  H+  H43  1  0.60964802  0.88758365  0.67863229  1
  H+  H44  1  0.62023204  0.64096399  0.83087743  1
  H+  H45  1  0.89058713  0.35947172  0.67603725  1
  H+  H46  1  0.24113928  0.59182859  0.31860258  1
  H+  H47  1  0.81489682  0.68945903  0.98969629  1
  H+  H48  1  0.34313116  0.46901567  0.67620577  1
  H+  H49  1  0.13363937  0.86753053  0.51401489  1
  H+  H50  1  0.85984591  0.12981434  0.84391371  1
  H+  H51  1  0.01385172  0.13117515  0.68301498  1
  H+  H52  1  0.35183424  0.47526206  0.50159550  1
  H+  H53  1  0.13121774  0.61815508  0.50331291  1
  H+  H54  1  0.35708538  0.88257971  0.34947304  1
  H+  H55  1  0.88380480  0.76867458  0.50694207  1
  H+  H56  1  0.21814376  0.84681034  0.84333053  1
  H+  H57  1  0.36540794  0.23859464  0.68064636  1
  H+  H58  1  0.04619181  0.59929659  0.42428473  1
  H+  H59  1  0.77985687  0.38897578  0.66948976  1
  H+  H60  1  0.63863938  0.13462174  0.49847468  1
  H+  H61  1  0.64584628  0.88702026  0.52243536  1
  H+  H62  1  0.64504243  0.52801060  0.67437265  1
  H+  H63  1  0.88837652  0.01790132  0.15861660  1
  H+  H64  1  0.12633761  0.02872704  0.52261186  1
  H+  H65  1  0.39430342  0.39327737  0.16922932  1
  H+  H66  1  1.02130919  0.88722370  0.50451938  1
  H+  H67  1  0.49525991  0.87979311  0.30963350  1
  H+  H68  1  0.58071595  0.67409411  0.06661740  1
  H+  H69  1  0.11242633  0.71202815  0.83479451  1
  H+  H70  1  0.38761841  0.61705512  0.99060994  1
  H+  H71  1  0.25728576  0.88033704  0.67520723  1
  H+  H72  1  0.48368434  0.36138135  -0.01322302  1
  H+  H73  1  0.64563717  0.38230328  0.15843373  1
  H+  H74  1  0.16114850  0.07839035  0.74639688  1
  H+  H75  1  0.14370183  0.61138041  0.99834588  1
  H+  H76  1  0.97920046  0.11156546  0.50655396  1
  H+  H77  1  0.63210653  0.11596732  0.67496803  1
  H+  H78  1  0.37273404  0.48118513  -0.00100745  1
  H+  H79  1  0.63353263  0.26629801  0.98374885  1
  H+  H80  1  0.05552722  0.92131560  0.35066414  1
  H+  H81  1  0.88952515  0.88725093  0.84941665  1
  H+  H82  1  0.87687602  0.34916121  0.83649344  1
  H+  H83  1  0.77960861  0.88783443  0.68012200  1
  H+  H84  1  0.62676141  0.51883709  0.32564929  1
  H+  H85  1  0.52284801  0.13322778  -0.00520216  1
  H+  H86  1  0.10393265  0.23419408  0.83421202  1
  H+  H87  1  0.29402773  0.15662626  0.32565754  1
  H+  H88  1  0.48981744  0.60371712  0.17830444  1
  H+  H89  1  0.37060310  0.02546254  0.51458374  1
  H+  H90  1  0.35564134  0.97580494  0.82627697  1
  H+  H91  1  0.03605136  0.63294342  0.16438242  1
  H+  H92  1  0.42480377  0.59110626  0.93216887  1
  H+  H93  1  0.03628570  0.38603758  0.66904812  1
  H+  H94  1  0.10351217  0.13376767  0.69733261  1
  H+  H95  1  0.88008913  0.23545562  0.14565679  1
  H+  H96  1  0.64987781  0.58306438  0.51332925  1
  H+  H97  1  0.14251776  0.52325736  0.85025109  1
  H+  H98  1  0.82930962  0.40771478  0.05903425  1
  H+  H99  1  0.61371666  0.23182063  0.68100778  1
  H+  H100  1  0.10707481  0.22773585  0.49366199  1
  H+  H101  1  0.97664685  0.78112074  0.32766302  1
  H+  H102  1  0.27150685  0.89223424  0.50060205  1
  H+  H103  1  0.51922533  0.88717690  0.83025468  1
  H+  H104  1  0.13327813  0.27485669  0.32961147  1
  H+  H105  1  0.61197100  0.22777192  0.33312568  1
  H+  H106  1  0.77619781  0.89393391  0.49262613  1
  H+  H107  1  0.87790798  0.14404482  0.14595893  1
  H+  H108  1  0.38091964  1.01981750  -0.01311927  1
  H+  H109  1  0.38123562  0.77398614  0.67048148  1
  H+  H110  1  0.61000880  0.74638569  0.00577719  1
  H+  H111  1  0.64749909  0.78036139  0.66780186  1
  H+  H112  1  0.14312661  0.87265906  0.66415562  1
  H+  H113  1  0.33105661  0.12898957  0.51004694  1
  H+  H114  1  -0.03150198  0.60237472  0.50666730  1
  H+  H115  1  0.02094061  0.15245339  0.00042579  1
  H+  H116  1  0.78706270  0.40033627  0.15501060  1
  H+  H117  1  -0.00541301  0.67670986  0.33560879  1
  H+  H118  1  0.07101818  0.45562175  0.77234374  1
  H+  H119  1  0.89350449  0.27581620  0.52917752  1
  H+  H120  1  0.44795528  0.51080666  0.20455991  1
  H+  H121  1  0.89670665  1.02609352  0.31651095  1
  H+  H122  1  0.83570962  0.17788026  0.33894961  1
  H+  H123  1  0.73995314  0.61491737  0.66958067  1
  H+  H124  1  0.21818415  0.08971361  0.98269833  1
  H+  H125  1  0.48718689  0.63250464  0.32946189  1
  H+  H126  1  0.38377519  0.78102148  0.51204640  1
  H+  H127  1  0.54579977  0.10946532  0.47908212  1
  H+  H128  1  0.71459162  0.86312968  0.99672265  1
  H+  H129  1  0.13314322  0.36252556  0.52538442  1
  H+  H130  1  0.38355112  0.77527730  0.83468384  1
  H+  H131  1  0.65069395  1.12298251  -0.01481166  1
  H+  H132  1  0.45332006  0.61578854  0.52786756  1
  H+  H133  1  0.35447400  0.87852265  0.67987709  1
  H+  H134  1  0.07527121  0.90604003  0.72948275  1
  H+  H135  1  0.60375376  0.36463917  0.48864597  1
  H+  H136  1  0.86029967  0.12753248  0.67891095  1
  H+  H137  1  1.11062453  0.97461933  0.67827890  1
  H+  H138  1  0.08780953  0.76374782  0.33059641  1
  H+  H139  1  0.47251799  0.87066812  0.52129184  1
  H+  H140  1  0.37925467  0.15083031  0.32935243  1
  H+  H141  1  0.27477383  0.63329624  0.83457575  1
  H+  H142  1  0.66191866  0.33235914  0.89881570  1
  H+  H143  1  0.52553945  0.41853979  0.15752306  1
  H+  H144  1  0.22702395  0.12451516  0.83218488  1
  H+  H145  1  0.51984171  0.39073814  0.33921279  1
  H+  H146  1  0.36953286  0.76062772  0.32914860  1
  H+  H147  1  0.68121358  0.59812325  0.90433967  1
  H+  H148  1  0.15894882  0.81425751  0.90246793  1
  H+  H149  1  0.58284959  0.65257681  0.49017562  1
  H+  H150  1  0.61239746  0.39167439  0.83481664  1
  H+  H151  1  1.02778891  0.87643335  0.15539718  1
  H+  H152  1  0.73433724  0.62244302  0.84290755  1
  H+  H153  1  0.24432960  0.62196715  0.16074353  1
  H+  H154  1  0.13463467  0.65470265  0.32113367  1
  H+  H155  1  0.26836547  0.12908512  0.14998823  1
  H+  H156  1  0.13458904  1.01476010  0.17238728  1
  H+  H157  1  0.72784691  0.35367323  0.98884292  1
  H+  H158  1  0.63985955  0.98654100  0.16309054  1
  H+  H159  1  0.61828585  0.48486432  0.83668427  1
  H+  H160  1  0.62150155  0.73002913  0.15400668  1
  H+  H161  1  0.21496650  0.85916362  0.99318030  1
  H+  H162  1  0.97766711  0.86109269  0.65969982  1
  H+  H163  1  0.13262578  0.37738589  0.83122772  1
  H+  H164  1  0.37643163  0.64746361  0.34211615  1
  H+  H165  1  0.46395295  0.10896233  0.83913310  1
  H+  H166  1  0.87048955  0.60069236  0.32725319  1
  H+  H167  1  0.61490887  0.39931037  0.68268477  1
  H+  H168  1  0.44033823  0.59677454  0.68908512  1
  H+  H169  1  0.85666656  0.96959971  -0.00731563  1
  H+  H170  1  0.10186041  0.38195296  0.15693895  1
  H+  H171  1  0.63783589  0.15657795  0.13731210  1
  H+  H172  1  0.36706016  0.63934315  0.82838466  1
  H+  H173  1  0.60206782  0.34651772  0.32059580  1
  H+  H174  1  0.38100694  0.35830688  0.50467394  1
  H+  H175  1  0.55427048  0.64646464  0.65538149  1
  H+  H176  1  0.26444332  0.37263056  0.67694296  1
  H+  H177  1  0.85310354  0.46649547  0.50683308  1
  H+  H178  1  0.36216331  0.89546195  0.50486370  1
  H+  H179  1  0.48211521  0.10847323  0.32835744  1
  H+  H180  1  0.27185465  0.62885075  0.00213499  1
  H+  H181  1  0.89049400  0.40356515  0.31621050  1
  H+  H182  1  0.47732922  0.36898862  0.67386474  1
  H+  H183  1  0.02221399  0.88950342  0.82143462  1
  H+  H184  1  0.54242457  0.56916183  0.45122065  1
  H+  H185  1  0.34724754  0.88100629  0.99301768  1
  H+  H186  1  0.88585873  0.11580777  0.97369952  1
  H+  H187  1  0.62947850  0.02416965  0.67345845  1
  H+  H188  1  0.13382826  0.10418874  0.16937384  1
  H+  H189  1  0.87203966  0.72948286  0.83098677  1
  H+  H190  1  0.40268722  0.06609813  0.22922437  1
  H+  H191  1  0.36630218  0.23477733  0.83378321  1
  H+  H192  1  0.62869820  0.86785267  0.30066484  1
  H+  H193  1  0.35321015  0.64397519  0.50160455  1
  H+  H194  1  0.11922512  0.84604190  -0.00636239  1
  H+  H195  1  0.72588005  0.35465312  0.50742876  1
  H+  H196  1  0.38825230  0.36443387  0.32794656  1
  H+  H197  1  0.86938815  0.63492232  0.67923611  1
  H+  H198  1  0.87309684  0.13171135  0.51308970  1
  H+  H199  1  0.46439597  0.34698705  0.49665208  1
  H+  H200  1  0.00982917  0.38401651  0.32223990  1
  H+  H201  1  0.61130850  0.45423530  0.49836874  1
  H+  H202  1  0.11109252  0.97348904  0.81470820  1
  H+  H203  1  0.93113299  0.58751875  0.23058360  1
  H+  H204  1  0.38829737  0.36659287  0.66858335  1
  H+  H205  1  0.66758838  0.53471827  0.99524960  1
  H+  H206  1  0.80173038  0.40559527  0.31722189  1
  H+  H207  1  1.01191148  0.39324542  0.82579696  1
  H+  H208  1  0.38267082  0.10973771  0.98907523  1
  H+  H209  1  0.37762238  0.39349207  0.99954817  1
  H+  H210  1  0.63565756  0.64059454  0.67316952  1
  H+  H211  1  0.62696889  0.74397741  0.32852960  1
  H+  H212  1  0.48122435  0.61481485  0.83835829  1
  H+  H213  1  0.27175066  0.39582284  0.82500930  1
  H+  H214  1  0.45256375  0.85568649  0.98937385  1
  H+  H215  1  0.70424094  0.09423745  0.30963914  1
  H+  H216  1  0.16087085  1.04948735  0.32928648  1
  H+  H217  1  0.75621976  0.36020458  0.82536620  1
  H+  H218  1  0.62540301  0.12921511  0.32458901  1
  H+  H219  1  0.60396971  0.13698236  0.82919254  1
  H+  H220  1  0.26866831  0.64508653  0.68032527  1
  H+  H221  1  0.62896044  0.86146950  0.84521729  1
  H+  H222  1  0.97565566  0.11791549  0.87931703  1
  H+  H223  1  0.89498142  0.27122059  0.84135916  1
  H+  H224  1  0.15138663  0.50263505  0.31284415  1
  H+  H225  1  0.12298676  0.11618843  0.51325748  1
  H+  H226  1  0.60536560  1.01800964  0.30253853  1
  H+  H227  1  0.39278790  0.13341475  0.67346751  1
  H+  H228  1  0.89018484  1.02086829  0.50520054  1
  H+  H229  1  0.64553719  0.53301266  0.17332538  1
  H+  H230  1  0.36855349  0.76465300  -0.01812101  1
  H+  H231  1  0.11070333  0.25919817  0.17646302  1
  H+  H232  1  0.38684394  0.37097468  0.83901651  1
  H+  H233  1  0.89024486  0.26918014  0.67760546  1
  H+  H234  1  0.77337435  0.13170808  0.68610772  1
  H+  H235  1  0.23699945  0.13217325  0.51329150  1
  H+  H236  1  0.24879665  0.35764485  0.97700781  1
  H+  H237  1  0.62228190  0.99515201  0.52502601  1
  H+  H238  1  0.86675752  0.88332410  0.67797949  1
  H+  H239  1  0.88645253  0.76849020  0.15447756  1
  H+  H240  1  0.65199147  0.83213994  0.93913452  1
  H+  H241  1  0.87152193  0.39134649  0.15277333  1
  H+  H242  1  0.85625472  0.38010948  0.51218639  1
  H+  H243  1  0.91016087  0.11764241  0.30507481  1
  H+  H244  1  0.36038130  0.14118338  0.83323674  1
  H+  H245  1  0.14844622  0.53280216  0.65598854  1
  H+  H246  1  0.03696338  0.13619873  0.33577926  1
  H+  H247  1  0.97327493  0.60417520  0.67339855  1
  H+  H248  1  0.33210521  0.45711914  0.14911768  1
  H+  H249  1  0.73966328  0.11733960  0.53420427  1
  H+  H250  1  0.57362942  0.87612977  0.02583149  1
  H+  H251  1  0.25600261  0.36220300  0.34939828  1
  H+  H252  1  0.84644023  0.69990480  0.34159416  1
  H+  H253  1  0.77267106  0.64538023  0.14988847  1
  H+  H254  1  0.63851709  0.26177432  0.50713689  1
  H+  H255  1  0.75283494  0.61818037  0.34448911  1
  H+  H256  1  0.84852306  0.87666033  1.00007223  1
  H+  H257  1  0.47824903  0.37403430  0.84046216  1
  H+  H258  1  0.35328501  0.12466870  0.15049968  1
  H+  H259  1  0.28097041  0.87414554  0.14640743  1
  H+  H260  1  0.86959082  0.72529829  0.67615615  1
  H+  H261  1  0.62112587  0.27217849  0.84045247  1
  H+  H262  1  0.87190982  0.88329495  0.14910072  1
  H+  H263  1  0.67207899  0.59071489  0.23265433  1
  H+  H264  1  0.44324440  0.12541608  0.51459819  1
  H+  H265  1  0.89109720  0.60884789  0.84922835  1
  H+  H266  1  0.58154755  0.41137833  0.39837006  1
  H+  H267  1  0.11506101  0.62475469  0.83748250  1
  H+  H268  1  0.09128509  0.93019663  0.45114408  1
  H+  H269  1  0.11035810  0.23914813  1.00317973  1
  H+  H270  1  0.75062892  0.12893818  0.15243594  1
  H+  H271  1  0.37830040  0.01093700  0.16784864  1
  H+  H272  1  0.12884997  0.25931528  0.66975991  1
  H+  H273  1  0.10088564  0.62668070  0.68382823  1
  H+  H274  1  0.88698154  0.01674576  0.66528361  1
  H+  H275  1  0.62493330  0.38120532  -0.01030079  1
  H+  H276  1  0.89252366  0.29879491  0.30833068  1
  H+  H277  1  0.38989004  0.52688612  0.83870891  1
  H+  H278  1  0.36139846  0.88844130  0.82520653  1
  H+  H279  1  0.13161571  0.36304248  0.32900646  1
  H+  H280  1  0.51831388  0.88509641  0.67766427  1
  H+  H281  1  0.74005778  0.85939015  0.16478194  1
  H+  H282  1  0.34388313  0.22795777  0.50102065  1
  H+  H283  1  0.63420862  0.24318311  0.13892911  1
  H+  H284  1  0.90573721  0.52948891  0.17053881  1
  H+  H285  1  0.89705945  0.27557619  0.98508943  1
  H+  H286  1  0.42316381  0.58726116  0.27554907  1
  H+  H287  1  0.03088024  0.39279177  -0.00101112  1
  H+  H288  1  0.07171267  0.90268489  0.06167791  1
  H+  H289  1  0.71743916  0.44226215  0.61818262  1
  H+  H290  1  0.08392702  0.16835384  0.43318543  1
  H+  H291  1  0.02510084  0.39452794  0.53423043  1
  H+  H292  1  0.82578085  0.65478119  0.44001582  1
  H+  H293  1  0.13805427  0.32063825  0.23484404  1
  H+  H294  1  0.81625654  0.65994928  0.08505837  1
  H+  H295  1  0.91829401  0.60287596  0.94889778  1
  H+  H296  1  0.98200644  0.37052377  0.15839916  1
  H+  H297  1  0.92564682  0.34131565  0.21930956  1
  H+  H298  1  0.33527595  0.92001515  0.41058442  1
  H+  H299  1  0.84098361  0.67221837  0.77120812  1
  H+  H300  1  0.89943538  0.82390499  0.93927000  1
  H+  H301  1  0.55238334  0.89636202  0.15488387  1
  H+  H302  1  0.32196255  0.40914530  0.44406846  1
  H+  H303  1  0.37470287  0.88247175  0.13395836  1
  H+  H304  1  0.97335817  0.93321844  0.89000795  1
  H+  H305  1  0.11802236  0.87798887  0.15381432  1
  H+  H306  1  0.12846375  0.63510794  0.16118516  1
  H+  H307  1  0.91689969  0.07602823  0.60527042  1
  H+  H308  1  0.92394415  0.33861678  0.92872609  1
  H+  H309  1  0.33880709  0.17963728  0.74093229  1
  H+  H310  1  0.12497950  0.38348139  0.66475626  1
  H+  H311  1  0.51417414  0.64517558  1.00410402  1
  H+  H312  1  0.05445578  0.68853017  0.42074089  1
  H+  H313  1  0.17834459  0.82692246  0.22182534  1
  H+  H314  1  0.82799224  0.90859832  0.77390900  1
  H+  H315  1  0.59216617  0.94261045  0.46409164  1
  H+  H316  1  0.06828104  0.64437407  0.74697480  1
  H+  H317  1  0.06170758  0.16443017  0.78329651  1
  H+  H318  1  0.06296755  0.41299885  0.38810422  1
  H+  H319  1  0.91814593  0.58000547  0.61018627  1
  H+  H320  1  0.17478554  0.09102159  0.26210458  1
  H+  H321  1  0.79969418  0.08975668  0.37125315  1
  H+  H322  1  0.41921460  0.33516993  0.93114427  1
  H+  H323  1  0.68570578  0.10808170  0.20826971  1
  H+  H324  1  0.67597795  0.84547003  0.61190347  1
  H+  H325  1  0.43442809  0.37874273  0.23278708  1
  H+  H326  1  0.40777344  0.83280313  0.61016437  1
  H+  H327  1  0.33245462  0.41911950  0.76773019  1
  H+  H328  1  0.92416370  0.07759970  0.21731835  1
  H+  H329  1  0.84101458  0.15608073  0.77757589  1
  H+  H330  1  0.17301122  0.60362722  0.60431115  1
  H+  H331  1  0.41268901  0.09463585  0.61531545  1
  H+  H332  1  0.19037054  0.57638772  0.22102818  1
  H+  H333  1  0.58793113  0.17053536  0.05192819  1
  H+  H334  1  0.82803601  0.91873051  0.42983508  1
  H+  H335  1  0.32699348  0.66957957  0.74264556  1
  H+  H336  1  0.67768438  0.09362302  0.92591965  1
  H+  H337  1  0.61122197  0.17260071  0.39727366  1
  H+  H338  1  0.72413501  0.11461957  0.83428759  1
  H+  H339  1  0.13065088  0.14790662  0.33782085  1
  H+  H340  1  0.91901472  0.81733210  0.21829559  1
  H+  H341  1  0.28160187  0.30310379  0.38509134  1
  H+  H342  1  0.32501812  0.15511867  0.05959008  1
  H+  H343  1  0.08936483  0.17110083  0.09824860  1
  H+  H344  1  0.39052580  0.75349129  0.13926264  1
  H+  H345  1  0.44926804  0.85838577  0.18576565  1
  H+  H346  1  0.66140345  0.34366783  0.21813769  1
  H+  H347  1  0.26926403  0.65004874  0.49417414  1
  H+  H348  1  0.17786872  0.58232615  0.91076679  1
  H+  H349  1  0.39926768  0.28336873  0.31618507  1
  H+  H350  1  0.76078339  0.89997922  0.32926626  1
  H+  H351  1  0.57243627  0.16679162  0.77177996  1
  H+  H352  1  0.91328797  0.82883135  0.60301864  1
  H+  H353  1  0.32452870  0.91207182  0.74182642  1
  H+  H354  1  0.36542454  0.61667882  0.67545272  1
  H+  H355  1  0.55907404  0.90927211  0.36379931  1
  H+  H356  1  0.67149314  0.09322896  0.59071153  1
  H+  H357  1  0.34034109  0.66971019  0.05749796  1
  H+  H358  1  0.21303017  0.27159281  0.94087935  1
  H+  H359  1  0.32605505  0.40721298  0.08926521  1
  H+  H360  1  0.83703100  0.91329881  0.09142446  1
  H+  H361  1  0.60894325  0.68404008  0.38772315  1
  H+  H362  1  0.81809960  0.38886857  0.76650614  1
  H+  H363  1  0.33810158  0.67326853  0.40105736  1
  H+  H364  1  0.50736789  0.87673298  0.07380377  1
  H+  H365  1  0.59166603  0.66786383  0.76959372  1
  H+  H366  1  0.84628058  0.16683798  0.04864176  1
  H+  H367  1  0.16862645  0.34508906  0.88720221  1
  H+  H368  1  0.67645284  0.56508049  0.57876485  1
  H+  H369  1  0.09508736  0.66203297  0.06987297  1
  H+  H370  1  0.08944086  0.41894736  0.05793381  1
  H+  H371  1  0.65462713  0.86831306  0.17192068  1
  H+  H372  1  0.40748214  0.83271803  0.89441112  1
  H+  H373  1  0.88510128  0.60906837  0.51287689  1
  H+  H374  1  0.58821106  0.42661283  0.74594915  1
  H+  H375  1  0.58272464  0.47024512  0.10061748  1
  H+  H376  1  0.58929557  0.39792463  0.04982928  1
  H+  H377  1  0.67541780  0.83797430  0.25214874  1
  H+  H378  1  0.39216953  0.58028657  0.58372819  1
  H+  H379  1  0.84318024  0.17690509  0.46381468  1
  H+  H380  1  0.16176251  0.05979735  0.92293990  1
  H+  H381  1  0.32848309  0.91575294  0.05465262  1
  H+  H382  1  0.16272282  0.31246496  0.60620832  1
  H+  H383  1  0.66963113  0.35032746  0.59127480  1
  O2-  O384  1  0.08890387  0.15933027  0.14281519  1
  O2-  O385  1  0.07740213  0.16694661  0.47852746  1
  O2-  O386  1  0.07128465  0.17062333  0.82821309  1
  O2-  O387  1  0.08541350  0.42097959  0.13521001  1
  O2-  O388  1  0.08935895  0.42833933  0.53978328  1
  O2-  O389  1  0.07404136  0.43110898  0.81110780  1
  O2-  O390  1  0.09752220  0.66578490  0.14777329  1
  O2-  O391  1  0.05795558  0.64807425  0.45025473  1
  O2-  O392  1  0.08075327  0.64952101  0.82104408  1
  O2-  O393  1  0.08888622  0.91040609  0.14172356  1
  O2-  O394  1  0.08459023  0.92167354  0.49589784  1
  O2-  O395  1  0.07769638  0.91377082  0.79998910  1
  O2-  O396  1  0.32630115  0.15595626  0.13179586  1
  O2-  O397  1  0.30234393  0.16091809  0.49463082  1
  O2-  O398  1  0.33265674  0.17449990  0.81842249  1
  O2-  O399  1  0.31882504  0.40056230  0.13420270  1
  O2-  O400  1  0.32482574  0.41434279  0.48947298  1
  O2-  O401  1  0.33369932  0.42334202  0.81328900  1
  O2-  O402  1  0.35084946  0.68426919  0.13347639  1
  O2-  O403  1  0.33134783  0.67918296  0.48236550  1
  O2-  O404  1  0.33343093  0.66660310  0.81439607  1
  O2-  O405  1  0.33914208  0.91168976  0.12928989  1
  O2-  O406  1  0.33317111  0.92610855  0.48761929  1
  O2-  O407  1  0.32825118  0.91576662  0.80951824  1
  O2-  O408  1  0.60382083  0.18336345  0.12467460  1
  O2-  O409  1  0.60513004  0.15370250  0.47157164  1
  O2-  O410  1  0.56971883  0.16460324  0.81696489  1
  O2-  O411  1  0.58205437  0.43503293  0.13467287  1
  O2-  O412  1  0.57691347  0.39943544  0.47587160  1
  O2-  O413  1  0.58440573  0.42540841  0.82017041  1
  O2-  O414  1  0.58976021  0.66962712  0.13769873  1
  O2-  O415  1  0.59673448  0.62090752  0.46076954  1
  O2-  O416  1  0.58683550  0.66769048  0.81423038  1
  O2-  O417  1  0.61090122  0.92429566  0.17321625  1
  O2-  O418  1  0.58849618  0.93386294  0.50792508  1
  O2-  O419  1  0.58100491  0.91590264  0.81723650  1
  O2-  O420  1  0.84917080  0.17479428  0.12943782  1
  O2-  O421  1  0.84129542  0.16543446  0.50717450  1
  O2-  O422  1  0.83530950  0.16070871  0.82232242  1
  O2-  O423  1  0.84646041  0.42761928  0.13941242  1
  O2-  O424  1  0.82246368  0.40499269  0.49498582  1
  O2-  O425  1  0.80967592  0.36561033  0.80814709  1
  O2-  O426  1  0.82766265  0.67821288  0.12788711  1
  O2-  O427  1  0.83555155  0.66243374  0.48494107  1
  O2-  O428  1  0.83629948  0.67078091  0.81664266  1
  O2-  O429  1  0.83961373  0.91296210  0.13685565  1
  O2-  O430  1  0.83442159  0.91821095  0.47457927  1
  O2-  O431  1  0.82607898  0.90726908  0.81895954  1
  O2-  O432  1  0.16277386  0.07449670  0.18870318  1
  O2-  O433  1  0.15496208  0.09068558  0.53370797  1
  O2-  O434  1  0.16300617  0.08630053  0.83523864  1
  O2-  O435  1  0.10831025  0.30794992  0.19539809  1
  O2-  O436  1  0.15929369  0.32492636  0.52766370  1
  O2-  O437  1  0.16349907  0.34633190  0.84211948  1
  O2-  O438  1  0.18483627  0.58671808  0.17654624  1
  O2-  O439  1  0.16721326  0.59852935  0.52314621  1
  O2-  O440  1  0.18066215  0.58320549  0.86443465  1
  O2-  O441  1  0.17462177  0.82430490  0.17752512  1
  O2-  O442  1  0.16793407  0.83869708  0.52484820  1
  O2-  O443  1  0.15938572  0.80797570  0.85755321  1
  O2-  O444  1  0.39594385  0.06836710  0.18522775  1
  O2-  O445  1  0.38795280  0.08407079  0.53178936  1
  O2-  O446  1  0.40243793  0.07853821  0.85232651  1
  O2-  O447  1  0.44876579  0.41004448  0.19322798  1
  O2-  O448  1  0.40315316  0.31800184  0.50886241  1
  O2-  O449  1  0.41704570  0.34076067  0.85435654  1
  O2-  O450  1  0.43829973  0.56037409  0.20068459  1
  O2-  O451  1  0.39278554  0.58137988  0.53810161  1
  O2-  O452  1  0.42114035  0.58757668  0.85411158  1
  O2-  O453  1  0.44027889  0.84357861  0.14294872  1
  O2-  O454  1  0.41047246  0.83975636  0.53099789  1
  O2-  O455  1  0.41307511  0.83633255  0.84841881  1
  O2-  O456  1  0.68779737  0.09828896  0.16486712  1
  O2-  O457  1  0.67724159  0.09179563  0.54405466  1
  O2-  O458  1  0.66247672  0.08802911  0.84583458  1
  O2-  O459  1  0.67540599  0.35312108  0.17463335  1
  O2-  O460  1  0.66123234  0.32207478  0.51874298  1
  O2-  O461  1  0.65501901  0.33361760  0.85304946  1
  O2-  O462  1  0.67309038  0.59353063  0.18730750  1
  O2-  O463  1  0.67830796  0.55527706  0.53377960  1
  O2-  O464  1  0.67421207  0.59392379  0.85943904  1
  O2-  O465  1  0.67995648  0.82987252  0.18167144  1
  O2-  O466  1  0.67804961  0.85567449  0.53124403  1
  O2-  O467  1  0.65807054  0.83130115  0.86311053  1
  O2-  O468  1  0.91825421  0.07905702  0.17276880  1
  O2-  O469  1  0.91930994  0.07924175  0.52405321  1
  O2-  O470  1  0.91441018  0.08622149  0.89256861  1
  O2-  O471  1  0.92113544  0.33563206  0.17327029  1
  O2-  O472  1  0.91780264  0.33612474  0.54244854  1
  O2-  O473  1  0.92106774  0.33311980  0.85181916  1
  O2-  O474  1  0.94162155  0.58890979  0.18656805  1
  O2-  O475  1  0.91343605  0.57724571  0.52875730  1
  O2-  O476  1  0.91638208  0.57818407  0.86953792  1
  O2-  O477  1  0.92140437  0.82791418  0.17452567  1
  O2-  O478  1  0.91403886  0.82968478  0.52145642  1
  O2-  O479  1  0.93560801  0.87797775  0.87080170  1
  O2-  O480  1  0.18545627  0.10463454  0.30724334  1
  O2-  O481  1  0.16289547  0.08522479  0.70178879  1
  O2-  O482  1  0.15869868  0.05323060  0.96731494  1
  O2-  O483  1  0.16617629  0.33580091  0.31615850  1
  O2-  O484  1  0.16474726  0.31831450  0.65139414  1
  O2-  O485  1  0.19679904  0.31321451  0.95412384  1
  O2-  O486  1  0.19801357  0.55112441  0.29005739  1
  O2-  O487  1  0.17391574  0.59563914  0.64893552  1
  O2-  O488  1  0.17521655  0.58185686  0.98235898  1
  O2-  O489  1  0.19809304  0.89272280  0.30519345  1
  O2-  O490  1  0.17877851  0.84647889  0.65099277  1
  O2-  O491  1  0.15417978  0.81980308  0.98057693  1
  O2-  O492  1  0.42218542  0.08148247  0.31534511  1
  O2-  O493  1  0.42626480  0.10593281  0.65868795  1
  O2-  O494  1  0.41387579  0.08084810  0.97230349  1
  O2-  O495  1  0.42686617  0.34769063  0.30726408  1
  O2-  O496  1  0.41853940  0.33526084  0.65737396  1
  O2-  O497  1  0.42156821  0.33460409  0.97666385  1
  O2-  O498  1  0.42535026  0.60139593  0.31951127  1
  O2-  O499  1  0.39354210  0.58166330  0.66048518  1
  O2-  O500  1  0.42451549  0.59108649  0.97779322  1
  O2-  O501  1  0.39015516  0.82122593  0.30951350  1
  O2-  O502  1  0.41089537  0.83502789  0.65544585  1
  O2-  O503  1  0.39525875  0.82528790  0.96714188  1
  O2-  O504  1  0.64572430  0.08217331  0.29649384  1
  O2-  O505  1  0.66318994  0.08590494  0.66047731  1
  O2-  O506  1  0.68649439  0.09880039  0.97054171  1
  O2-  O507  1  0.60497542  0.29920474  0.29641943  1
  O2-  O508  1  0.68580363  0.38234756  0.63120485  1
  O2-  O509  1  0.66677421  0.32857341  0.97076842  1
  O2-  O510  1  0.66115388  0.57907129  0.31006691  1
  O2-  O511  1  0.67873764  0.58599106  0.65362421  1
  O2-  O512  1  0.69361188  0.59746233  0.98683651  1
  O2-  O513  1  0.66802076  0.84460252  0.29796454  1
  O2-  O514  1  0.67257627  0.84213751  0.65685324  1
  O2-  O515  1  0.65232108  0.83153424  0.98505833  1
  O2-  O516  1  0.93762973  0.08313877  0.29871001  1
  O2-  O517  1  0.91386701  0.07766487  0.65025370  1
  O2-  O518  1  0.91740635  0.08352570  0.95943613  1
  O2-  O519  1  0.93168047  0.35529936  0.29253548  1
  O2-  O520  1  0.92271345  0.32981540  0.66277941  1
  O2-  O521  1  0.92439186  0.33751425  0.97418861  1
  O2-  O522  1  0.91855655  0.59314773  0.31267992  1
  O2-  O523  1  0.91195695  0.57678716  0.65510519  1
  O2-  O524  1  0.92396085  0.62475980  0.99111523  1
  O2-  O525  1  0.93849389  0.80215109  0.31045698  1
  O2-  O526  1  0.91494044  0.82879036  0.64817638  1
  O2-  O527  1  0.88769576  0.81050840  0.98344282  1
  O2-  O528  1  0.06734696  0.19114652  0.02786928  1
  O2-  O529  1  0.09365891  0.16959516  0.35609840  1
  O2-  O530  1  0.07098439  0.16517147  0.70333662  1
  O2-  O531  1  0.09184663  0.42285683  0.01264275  1
  O2-  O532  1  0.07162345  0.40787115  0.34505708  1
  O2-  O533  1  0.09957342  0.42228212  0.66349358  1
  O2-  O534  1  0.09416083  0.65898584  0.02454836  1
  O2-  O535  1  0.03500528  0.73644475  0.35460591  1
  O2-  O536  1  0.06158671  0.64400616  0.70146723  1
  O2-  O537  1  0.06041281  0.89460210  0.01715670  1
  O2-  O538  1  0.11038305  0.94865104  0.37209532  1
  O2-  O539  1  0.07989680  0.91109048  0.68298476  1
  O2-  O540  1  0.32607928  0.15576679  0.01304048  1
  O2-  O541  1  0.35493867  0.18797868  0.33928174  1
  O2-  O542  1  0.33372952  0.17658350  0.69561540  1
  O2-  O543  1  0.34175326  0.41972285  0.01148117  1
  O2-  O544  1  0.30527952  0.36306650  0.37312515  1
  O2-  O545  1  0.32489492  0.41081158  0.69172519  1
  O2-  O546  1  0.33595098  0.66326003  0.01204867  1
  O2-  O547  1  0.34099882  0.67480870  0.35598956  1
  O2-  O548  1  0.32938170  0.67269389  0.69625473  1
  O2-  O549  1  0.32224513  0.91583989  0.00915028  1
  O2-  O550  1  0.33714996  0.92184623  0.36497299  1
  O2-  O551  1  0.32272657  0.90822146  0.69445028  1
  O2-  O552  1  0.58474115  0.16624331  0.00604811  1
  O2-  O553  1  0.60272643  0.17110762  0.35179005  1
  O2-  O554  1  0.58189855  0.17152246  0.69262729  1
  O2-  O555  1  0.59563020  0.41379867  0.00680333  1
  O2-  O556  1  0.58180754  0.41530017  0.35281402  1
  O2-  O557  1  0.58744483  0.43029742  0.69999027  1
  O2-  O558  1  0.57654077  0.68032648  0.02057635  1
  O2-  O559  1  0.59987238  0.68345251  0.34373135  1
  O2-  O560  1  0.60201627  0.67099603  0.68396812  1
  O2-  O561  1  0.53368685  0.89706238  0.03327901  1
  O2-  O562  1  0.55855459  0.91625424  0.31991431  1
  O2-  O563  1  0.57907552  0.91810050  0.69201169  1
  O2-  O564  1  0.84489152  0.16557261  0.00336780  1
  O2-  O565  1  0.80183183  0.11603550  0.33200574  1
  O2-  O566  1  0.83476268  0.16001586  0.69820492  1
  O2-  O567  1  0.81687496  0.39299420  0.01542679  1
  O2-  O568  1  0.85862389  0.43348069  0.33525682  1
  O2-  O569  1  0.83689352  0.41229356  0.68857765  1
  O2-  O570  1  0.78387430  0.62820119  0.00345912  1
  O2-  O571  1  0.81232673  0.64451916  0.36260136  1
  O2-  O572  1  0.83883911  0.66598372  0.69372147  1
  O2-  O573  1  0.82344345  0.91326444  0.01322968  1
  O2-  O574  1  0.82124247  0.92696117  0.34690393  1
  O2-  O575  1  0.84033363  0.91694118  0.69409987  1
