# generated using pymatgen
data_H2O
_symmetry_space_group_name_H-M   'P 1'
_cell_length_a   17.98831648
_cell_length_b   17.98272219
_cell_length_c   21.98725768
_cell_angle_alpha   90.01103857
_cell_angle_beta   89.99584447
_cell_angle_gamma   120.01409716
_symmetry_Int_Tables_number   1
_chemical_formula_structural   H2O
_chemical_formula_sum   'H384 O192'
_cell_volume   6158.65582858
_cell_formula_units_Z   192
loop_
 _symmetry_equiv_pos_site_id
 _symmetry_equiv_pos_as_xyz
  1  'x, y, z'
loop_
 _atom_type_symbol
 _atom_type_oxidation_number
  H+  1.0
  O2-  -2.0
loop_
 _atom_site_type_symbol
 _atom_site_label
 _atom_site_symmetry_multiplicity
 _atom_site_fract_x
 _atom_site_fract_y
 _atom_site_fract_z
 _atom_site_occupancy
  H+  H0  1  0.74053988  0.86885231  0.16256973  1
  H+  H1  1  0.76737423  0.63475041  0.90565823  1
  H+  H2  1  0.38848073  0.36620885  0.98394904  1
  H+  H3  1  0.87896362  0.76911782  0.50973841  1
  H+  H4  1  0.55911242  0.62298665  0.71268827  1
  H+  H5  1  0.36347192  0.38538404  0.67429050  1
  H+  H6  1  0.59351679  0.94837746  0.49309194  1
  H+  H7  1  0.39765563  0.61380930  -0.01123303  1
  H+  H8  1  0.76230106  0.38076523  0.49562883  1
  H+  H9  1  0.75444304  0.86986346  1.00072830  1
  H+  H10  1  0.13213971  0.29022007  0.66270681  1
  H+  H11  1  0.13732083  0.10684921  0.30425618  1
  H+  H12  1  0.13297240  0.85532101  0.18996898  1
  H+  H13  1  0.53826781  0.12503146  0.49789532  1
  H+  H14  1  0.13796609  0.36011747  0.31296517  1
  H+  H15  1  0.02617757  0.89309359  0.02929195  1
  H+  H16  1  0.36604072  0.23152534  -0.03071839  1
  H+  H17  1  0.26928877  0.89202390  0.18170117  1
  H+  H18  1  0.10909516  0.22417096  0.14427649  1
  H+  H19  1  0.87884241  0.88942796  0.16021747  1
  H+  H20  1  0.86733277  0.88775995  0.34368652  1
  H+  H21  1  0.08969431  0.90803587  0.10875824  1
  H+  H22  1  0.12012282  0.11004006  0.84085332  1
  H+  H23  1  -0.02133818  0.36571695  0.84242274  1
  H+  H24  1  0.00005911  0.13719205  0.82712174  1
  H+  H25  1  0.35003640  0.21295903  0.11229717  1
  H+  H26  1  0.63896208  0.89068518  0.00146221  1
  H+  H27  1  0.36698434  0.40514082  0.49503120  1
  H+  H28  1  0.38721288  0.64943811  0.65065160  1
  H+  H29  1  0.38959577  0.01403348  0.18024064  1
  H+  H30  1  0.02835416  0.37391246  0.48277613  1
  H+  H31  1  0.96920044  0.42074415  0.53292283  1
  H+  H32  1  0.98093605  0.86339077  0.33137705  1
  H+  H33  1  0.27144780  0.38366663  -0.00227386  1
  H+  H34  1  0.33415899  0.16839887  0.88644700  1
  H+  H35  1  0.61001782  0.36947863  0.49142914  1
  H+  H36  1  0.30147047  0.82494111  0.00173842  1
  H+  H37  1  0.22738529  0.11829964  0.43407401  1
  H+  H38  1  0.12678273  0.61130910  0.65409199  1
  H+  H39  1  0.63113196  0.87773027  0.82807422  1
  H+  H40  1  0.45942659  0.61145626  0.32411014  1
  H+  H41  1  0.73165383  0.86083667  0.67179094  1
  H+  H42  1  -0.03259490  0.35293949  -0.00735467  1
  H+  H43  1  0.31256314  0.10883110  0.53800417  1
  H+  H44  1  0.36509281  0.88704328  0.84198116  1
  H+  H45  1  0.50849641  0.85941097  0.99035096  1
  H+  H46  1  0.36240725  0.97490883  0.34072620  1
  H+  H47  1  0.78020936  0.64227454  0.16680089  1
  H+  H48  1  0.13321441  0.85215937  0.84706701  1
  H+  H49  1  0.27497820  0.13847915  -0.02622254  1
  H+  H50  1  0.64506607  0.87973529  0.31559536  1
  H+  H51  1  0.10905288  0.88505112  1.01467360  1
  H+  H52  1  0.82477795  0.40416017  0.07636387  1
  H+  H53  1  0.22707475  0.86921507  0.50498292  1
  H+  H54  1  0.40122681  0.82580057  0.23019971  1
  H+  H55  1  0.49092527  0.27899182  0.46066437  1
  H+  H56  1  0.86207685  0.38774550  0.67570548  1
  H+  H57  1  0.48001731  0.62097882  0.16848038  1
  H+  H58  1  0.42851685  0.35100534  0.89429625  1
  H+  H59  1  0.13616651  0.76810190  0.18802066  1
  H+  H60  1  0.11984906  0.39881636  0.67896198  1
  H+  H61  1  0.13199663  0.79339816  0.49515900  1
  H+  H62  1  0.70758495  0.08165191  0.51368899  1
  H+  H63  1  0.65043885  0.53349942  0.78976656  1
  H+  H64  1  0.27045160  0.62670251  0.15495636  1
  H+  H65  1  0.61035444  0.22051494  0.16684349  1
  H+  H66  1  0.35269181  -0.02817074  0.66746481  1
  H+  H67  1  0.45795602  0.67111991  0.50078291  1
  H+  H68  1  0.65615301  0.62570857  0.78668502  1
  H+  H69  1  0.29826865  0.43318012  0.81814944  1
  H+  H70  1  0.10413067  0.01808298  0.52038950  1
  H+  H71  1  0.85348565  0.38723556  0.49814892  1
  H+  H72  1  0.11481804  0.87798077  0.35332419  1
  H+  H73  1  0.02629593  0.63237449  0.16777999  1
  H+  H74  1  0.96457258  0.60143688  0.49188906  1
  H+  H75  1  0.85142532  0.88969862  0.84430977  1
  H+  H76  1  0.33658000  0.99595058  0.02552626  1
  H+  H77  1  0.13231011  0.60693362  0.17245946  1
  H+  H78  1  0.89575175  0.08099060  0.60848139  1
  H+  H79  1  0.09841466  0.93443584  0.67355000  1
  H+  H80  1  0.28993801  0.06561217  0.55368617  1
  H+  H81  1  0.72312270  0.35395213  0.66355687  1
  H+  H82  1  0.29586908  0.80568938  1.03300689  1
  H+  H83  1  0.51803663  0.88399882  0.33635936  1
  H+  H84  1  0.96350206  0.36530478  0.16793008  1
  H+  H85  1  0.63535424  0.34818023  0.17823747  1
  H+  H86  1  0.12624858  0.51345891  0.49723348  1
  H+  H87  1  0.54214021  0.63001277  0.49751918  1
  H+  H88  1  0.84278351  0.71405722  0.67941229  1
  H+  H89  1  0.72957528  0.35135511  0.17050800  1
  H+  H90  1  0.27038298  0.16726427  0.15605052  1
  H+  H91  1  0.14573693  0.03168651  0.99978973  1
  H+  H92  1  0.40548356  0.38277783  0.32743462  1
  H+  H93  1  0.63620628  0.78364121  0.81635735  1
  H+  H94  1  0.60758418  0.36925459  0.66668298  1
  H+  H95  1  0.40697732  0.63814020  0.82885646  1
  H+  H96  1  0.41393207  0.29923144  0.32357674  1
  H+  H97  1  1.00449401  0.85788520  0.83593613  1
  H+  H98  1  0.22970715  0.36443742  0.31725352  1
  H+  H99  1  0.54006388  0.40067073  0.33696329  1
  H+  H100  1  0.22248757  0.60399077  0.31581037  1
  H+  H101  1  0.11644322  -0.03357730  0.33689125  1
  H+  H102  1  0.14407098  0.61726672  0.99694815  1
  H+  H103  1  0.53330434  0.40407206  0.82003751  1
  H+  H104  1  0.66909615  0.60677342  0.37629241  1
  H+  H105  1  0.89489525  0.60304522  1.00543934  1
  H+  H106  1  0.37777493  0.26733928  0.66342806  1
  H+  H107  1  0.63800514  0.59277403  0.63555184  1
  H+  H108  1  0.61440733  0.88161653  0.68080443  1
  H+  H109  1  0.63268746  0.90028866  0.14758209  1
  H+  H110  1  0.48166342  0.37012454  -0.01582080  1
  H+  H111  1  0.10200189  0.04320549  0.69633907  1
  H+  H112  1  0.12548269  0.25580866  0.83636773  1
  H+  H113  1  0.85492302  0.37638541  0.01436868  1
  H+  H114  1  0.38133639  0.47541311  0.16385007  1
  H+  H115  1  0.84824283  -0.02808220  0.50071174  1
  H+  H116  1  0.25759198  0.13290951  0.69217033  1
  H+  H117  1  0.48279686  0.87624015  0.83889598  1
  H+  H118  1  0.36640044  0.77535006  0.65311634  1
  H+  H119  1  1.00863985  0.15004980  0.67178336  1
  H+  H120  1  0.89473619  0.61195552  0.18063983  1
  H+  H121  1  0.27247411  0.88478934  0.34704486  1
  H+  H122  1  0.52370532  0.13323639  1.01204306  1
  H+  H123  1  0.14374213  0.77026197  0.84616068  1
  H+  H124  1  0.86961214  0.73045393  0.16752388  1
  H+  H125  1  0.16039908  0.82220845  0.59411115  1
  H+  H126  1  0.61046153  0.38745748  1.00018310  1
  H+  H127  1  0.27945978  0.39468290  0.67577482  1
  H+  H128  1  0.62021855  0.98427642  0.82707395  1
  H+  H129  1  0.41078826  0.00768811  0.51795379  1
  H+  H130  1  0.12854412  0.11034531  0.15359014  1
  H+  H131  1  0.38545629  0.60785074  0.16717009  1
  H+  H132  1  0.40077478  0.38278055  0.83423869  1
  H+  H133  1  0.35340621  0.87531933  0.49209839  1
  H+  H134  1  0.28236974  0.63773755  1.00193045  1
  H+  H135  1  0.62876771  0.09593784  0.49710733  1
  H+  H136  1  0.33414434  0.61849610  0.48462046  1
  H+  H137  1  0.58637870  0.12390369  0.67771292  1
  H+  H138  1  0.87788621  0.85705231  0.67084522  1
  H+  H139  1  0.11549605  0.47809692  0.00086517  1
  H+  H140  1  0.89416834  0.77400027  0.32963604  1
  H+  H141  1  0.10028967  0.15656609  0.67811840  1
  H+  H142  1  0.98587460  0.86228132  0.17735131  1
  H+  H143  1  0.86710741  0.38973115  0.33650005  1
  H+  H144  1  0.66539154  0.78233663  0.99678764  1
  H+  H145  1  0.87530955  -0.02231295  0.15510440  1
  H+  H146  1  0.72509767  0.11752847  0.84239782  1
  H+  H147  1  0.41108933  0.55114867  0.82650604  1
  H+  H148  1  0.95913782  0.11612231  0.52012174  1
  H+  H149  1  0.63214222  0.26404752  0.66512715  1
  H+  H150  1  0.76933488  0.11783543  -0.02449975  1
  H+  H151  1  0.63452487  0.02157842  0.32934446  1
  H+  H152  1  0.61649870  0.22686239  0.33811320  1
  H+  H153  1  0.86748738  0.23738298  0.83556913  1
  H+  H154  1  0.39156728  0.12062015  0.98188058  1
  H+  H155  1  0.31265723  0.16821739  0.36238322  1
  H+  H156  1  0.59683472  0.86168937  0.49705301  1
  H+  H157  1  0.61247385  0.13030571  0.16598312  1
  H+  H158  1  0.36534550  0.75514347  0.49828679  1
  H+  H159  1  0.93484695  -0.00711470  1.01806579  1
  H+  H160  1  0.21992787  0.09714011  0.29461067  1
  H+  H161  1  0.75695563  0.62430372  0.49211702  1
  H+  H162  1  0.12413077  0.23269088  0.31118141  1
  H+  H163  1  0.89444839  0.27918225  0.67162578  1
  H+  H164  1  0.47033934  0.35147570  0.65928908  1
  H+  H165  1  0.85742741  0.47366901  0.66988590  1
  H+  H166  1  0.36623055  0.31742191  0.17385329  1
  H+  H167  1  0.87498474  0.11262904  0.67118226  1
  H+  H168  1  0.63669546  0.27076373  1.00046543  1
  H+  H169  1  0.72806913  0.11990768  0.17272083  1
  H+  H170  1  0.26041275  0.64390371  0.66822062  1
  H+  H171  1  0.87888679  0.60683864  0.65840536  1
  H+  H172  1  0.54155548  0.64326709  0.00165836  1
  H+  H173  1  0.89045649  0.27970679  0.31628979  1
  H+  H174  1  0.11310061  0.72406671  0.01480951  1
  H+  H175  1  0.60847275  0.45760839  0.66026305  1
  H+  H176  1  0.78371877  0.20253704  0.46508902  1
  H+  H177  1  0.19791486  0.08885889  0.53925730  1
  H+  H178  1  0.23296276  0.35896821  0.16094258  1
  H+  H179  1  0.68445522  0.57659303  0.55256161  1
  H+  H180  1  0.87986533  0.63812683  0.34122153  1
  H+  H181  1  0.61873913  0.74150028  0.15568668  1
  H+  H182  1  0.40023488  0.11814827  0.32502556  1
  H+  H183  1  0.72490172  0.36006945  0.99968095  1
  H+  H184  1  0.36762971  0.49399190  0.49068247  1
  H+  H185  1  0.14895500  0.28802011  0.51915117  1
  H+  H186  1  0.47517741  0.10548905  0.83941971  1
  H+  H187  1  0.11395595  0.38630594  0.15113001  1
  H+  H188  1  0.72570397  0.10994457  0.32648514  1
  H+  H189  1  0.72906462  0.36104148  0.32368635  1
  H+  H190  1  0.62612933  0.72161237  0.49932254  1
  H+  H191  1  0.65531596  0.61887078  0.49678321  1
  H+  H192  1  0.87372110  0.25344974  0.49402654  1
  H+  H193  1  0.26586455  0.88157212  0.84342840  1
  H+  H194  1  0.84929825  0.88270843  0.50230796  1
  H+  H195  1  0.28548244  0.65304981  0.82423170  1
  H+  H196  1  0.37774491  0.76970377  0.32432811  1
  H+  H197  1  0.87526440  0.92448316  0.06865324  1
  H+  H198  1  0.86116763  0.20149805  0.97745296  1
  H+  H199  1  0.36069290  0.47227459  0.99296831  1
  H+  H200  1  0.85162921  -0.02014862  0.85212679  1
  H+  H201  1  0.09680779  0.42297797  0.89135747  1
  H+  H202  1  0.87460670  0.51930172  0.50401489  1
  H+  H203  1  0.11238818  0.25942988  0.98554320  1
  H+  H204  1  0.24742065  0.62255859  0.48474299  1
  H+  H205  1  0.47321442  0.37521650  0.50956647  1
  H+  H206  1  0.35217573  0.88264438  0.16869643  1
  H+  H207  1  0.26203784  0.87856963  0.66252238  1
  H+  H208  1  0.24310164  0.16449408  0.44240328  1
  H+  H209  1  0.60734225  0.13647013  0.83046775  1
  H+  H210  1  0.12160233  0.38608501  0.48591678  1
  H+  H211  1  0.58807484  0.16274925  0.43275084  1
  H+  H212  1  0.89417777  0.37599572  0.83681396  1
  H+  H213  1  0.86772273  0.13858577  0.33244635  1
  H+  H214  1  0.23660905  0.37938808  0.50963805  1
  H+  H215  1  0.60895563  0.46658999  0.17469166  1
  H+  H216  1  0.36037535  0.87199377  0.65151319  1
  H+  H217  1  0.02060753  0.38280800  0.32533603  1
  H+  H218  1  0.73531032  0.88379210  0.31879738  1
  H+  H219  1  0.58504918  0.95173494  0.67321292  1
  H+  H220  1  -0.01789928  0.37028075  0.67062040  1
  H+  H221  1  0.67617853  0.07960254  0.64215727  1
  H+  H222  1  0.11794027  0.97415766  0.16116568  1
  H+  H223  1  0.09589633  0.62282704  0.45293550  1
  H+  H224  1  0.02415902  0.64064701  0.83321417  1
  H+  H225  1  0.22465902  0.31484099  0.84998630  1
  H+  H226  1  0.87128984  0.11527284  0.51018521  1
  H+  H227  1  1.00989899  0.97354806  0.44798942  1
  H+  H228  1  0.74132651  0.61263831  0.99649367  1
  H+  H229  1  0.71756039  0.85491341  0.51384018  1
  H+  H230  1  0.72808284  0.87447932  0.83613418  1
  H+  H231  1  0.13170584  0.38778101  0.84169100  1
  H+  H232  1  0.85728155  0.76387702  0.86071789  1
  H+  H233  1  0.94808781  0.09936223  0.91380104  1
  H+  H234  1  0.85617337  0.22850986  0.16340318  1
  H+  H235  1  0.78078984  0.15976536  0.69813813  1
  H+  H236  1  0.86307348  0.09913926  0.92119056  1
  H+  H237  1  0.62650541  0.35673132  0.84376805  1
  H+  H238  1  0.10990711  0.38505632  1.00116716  1
  H+  H239  1  0.15016027  0.57582983  0.55583562  1
  H+  H240  1  0.36302386  -0.01825376  0.83962176  1
  H+  H241  1  0.37128913  0.76811904  0.17016226  1
  H+  H242  1  0.90948810  0.33089145  0.93402867  1
  H+  H243  1  0.59647907  0.64473834  0.33279368  1
  H+  H244  1  0.86976187  0.63549337  0.49142178  1
  H+  H245  1  0.79000984  0.63932901  0.34377449  1
  H+  H246  1  0.00203374  0.85639483  0.67422161  1
  H+  H247  1  0.13082076  0.51447272  0.16691670  1
  H+  H248  1  0.37153725  0.10485965  0.66841581  1
  H+  H249  1  0.41936156  0.85755321  0.99644858  1
  H+  H250  1  0.13046439  0.50709809  0.31490150  1
  H+  H251  1  0.15591668  0.08103985  0.93759353  1
  H+  H252  1  0.56070917  0.53845309  0.22508423  1
  H+  H253  1  0.38700933  0.10892668  0.84474723  1
  H+  H254  1  0.97126842  0.11190290  0.16834483  1
  H+  H255  1  0.21052580  0.87394325  1.00980268  1
  H+  H256  1  0.86217524  0.97842136  0.68451067  1
  H+  H257  1  0.14312748  0.62392953  0.83785361  1
  H+  H258  1  0.89469119  0.83301891  0.91028131  1
  H+  H259  1  0.98220612  0.62040074  0.34544881  1
  H+  H260  1  0.43528895  0.62250144  0.56458956  1
  H+  H261  1  0.40921092  0.58335787  0.26023292  1
  H+  H262  1  0.45994485  0.83982285  0.50076330  1
  H+  H263  1  0.87146283  0.71707306  1.01399857  1
  H+  H264  1  0.52946440  0.65357533  0.81051081  1
  H+  H265  1  0.62562945  0.39044695  0.33372807  1
  H+  H266  1  0.12302057  0.83662863  0.65667942  1
  H+  H267  1  0.10757270  0.71600836  0.67028171  1
  H+  H268  1  0.60952262  0.64987285  0.16630739  1
  H+  H269  1  0.38272611  0.86073125  0.32812456  1
  H+  H270  1  0.15470620  0.54103441  0.84145938  1
  H+  H271  1  0.21138181  0.11790532  0.84352146  1
  H+  H272  1  0.86647856  0.14747105  0.84331978  1
  H+  H273  1  0.89093886  0.51200064  1.00558392  1
  H+  H274  1  0.48472944  0.11083877  0.32789431  1
  H+  H275  1  0.37688183  0.72227521  0.00291157  1
  H+  H276  1  0.51526889  0.38990980  0.17303638  1
  H+  H277  1  0.88041643  0.48991075  0.83061105  1
  H+  H278  1  0.88948560  0.02375350  0.32639939  1
  H+  H279  1  -0.02262135  0.11225434  0.31491961  1
  H+  H280  1  0.61673847  0.13714171  0.33874160  1
  H+  H281  1  0.02877496  0.63023316  0.01539057  1
  H+  H282  1  0.72854479  0.60004591  0.64682819  1
  H+  H283  1  0.10028109  0.13618785  0.52546136  1
  H+  H284  1  0.49439033  0.11105733  0.17551467  1
  H+  H285  1  0.89336823  0.52833773  0.33143022  1
  H+  H286  1  0.13021387  0.76518971  0.35340337  1
  H+  H287  1  0.88480613  0.61532693  0.86440517  1
  H+  H288  1  0.15636074  0.81512165  0.28830153  1
  H+  H289  1  0.05974611  0.15102532  0.09261069  1
  H+  H290  1  0.66030360  0.62269400  0.98298752  1
  H+  H291  1  0.34839834  0.62923955  0.32899149  1
  H+  H292  1  0.42083922  0.07061335  0.94087490  1
  H+  H293  1  0.61658880  0.47746405  -0.00987736  1
  H+  H294  1  0.30403339  0.93957749  0.08662646  1
  H+  H295  1  0.35610843  0.47863407  0.33283648  1
  H+  H296  1  0.91573534  0.34102958  0.25715685  1
  H+  H297  1  0.10320463  0.17206166  0.36745509  1
  H+  H298  1  0.95711406  0.86474161  0.51024301  1
  H+  H299  1  0.84581500  0.17693073  0.39076661  1
  H+  H300  1  0.46240624  0.10957264  0.67300820  1
  H+  H301  1  0.42853081  0.08066189  0.24028319  1
  H+  H302  1  0.16146905  0.56961394  0.24852855  1
  H+  H303  1  0.33011912  0.42350456  0.39413470  1
  H+  H304  1  0.07790551  0.66476097  0.77034825  1
  H+  H305  1  0.17188155  0.33125511  0.21790901  1
  H+  H306  1  0.83348284  0.91727643  0.40171355  1
  H+  H307  1  0.08288514  0.40996552  0.38437480  1
  H+  H308  1  0.60279859  0.92086062  0.05911819  1
  H+  H309  1  0.09264552  0.43314551  0.73747535  1
  H+  H310  1  0.66161561  0.81966556  0.57476544  1
  H+  H311  1  0.58562204  0.91973464  0.76649578  1
  H+  H312  1  0.76568170  0.63119494  0.83463833  1
  H+  H313  1  0.33312560  0.65934131  0.09689897  1
  H+  H314  1  0.05519398  0.16879945  0.76500719  1
  H+  H315  1  0.58342426  0.41042081  0.75889854  1
  H+  H316  1  0.32479867  0.67962357  0.72725741  1
  H+  H317  1  0.83654693  0.92381054  0.74608684  1
  H+  H318  1  0.63964547  0.26305518  0.50793471  1
  H+  H319  1  0.43801082  0.06884941  0.57590786  1
  H+  H320  1  0.06483858  0.93178307  0.43040132  1
  H+  H321  1  0.39994372  0.24123536  0.48440605  1
  H+  H322  1  0.43102583  0.83883670  0.90084700  1
  H+  H323  1  0.15702767  0.07990136  0.21250455  1
  H+  H324  1  0.62614525  0.98547968  0.14791345  1
  H+  H325  1  0.92712304  0.34546545  0.58039601  1
  H+  H326  1  0.40101582  0.20498975  0.39533521  1
  H+  H327  1  0.17181544  0.35437563  0.60569570  1
  H+  H328  1  0.59914843  0.22288378  0.83421159  1
  H+  H329  1  0.39352218  0.82685900  0.58778270  1
  H+  H330  1  0.57233469  0.16268900  0.74054200  1
  H+  H331  1  0.91009927  0.07682202  0.22676477  1
  H+  H332  1  0.41151646  0.34218415  0.56781834  1
  H+  H333  1  0.92697508  0.58554194  0.23957387  1
  H+  H334  1  0.89814867  0.82282957  0.60857344  1
  H+  H335  1  0.08105346  0.41668615  0.09437819  1
  H+  H336  1  0.08816652  0.66538782  0.10870505  1
  H+  H337  1  0.58300797  0.15909406  0.07087472  1
  H+  H338  1  0.64892136  0.58952631  0.25701511  1
  H+  H339  1  0.13410514  0.52715810  0.65556564  1
  H+  H340  1  0.01620093  0.63002442  0.67352852  1
  H+  H341  1  0.65031560  0.32374177  0.90476543  1
  H+  H342  1  0.47763031  0.65852215  0.66343216  1
  H+  H343  1  0.59605173  0.67146004  0.06247509  1
  H+  H344  1  0.43377270  0.59535885  0.92816811  1
  H+  H345  1  0.84037817  0.66009443  0.07397299  1
  H+  H346  1  0.68238856  0.85112169  0.22242745  1
  H+  H347  1  0.31114082  0.65284565  0.38841809  1
  H+  H348  1  0.57440804  0.90448112  0.39631209  1
  H+  H349  1  0.37330314  0.23814894  0.83594431  1
  H+  H350  1  0.92439333  0.83540163  0.23623598  1
  H+  H351  1  0.97353223  0.83661827  0.96386978  1
  H+  H352  1  0.57359354  0.66164679  0.39851144  1
  H+  H353  1  0.63464203  0.01525216  0.98827459  1
  H+  H354  1  0.84731881  0.43147549  0.76995527  1
  H+  H355  1  0.86842009  0.36267487  0.16875848  1
  H+  H356  1  0.65971840  0.08015222  0.89864598  1
  H+  H357  1  0.85531813  0.13907381  0.15996651  1
  H+  H358  1  0.64947815  0.52069883  0.34256465  1
  H+  H359  1  0.84697748  0.67036814  0.42876260  1
  H+  H360  1  0.60884041  0.04981734  0.59218520  1
  H+  H361  1  0.91188618  0.87204127  0.00162654  1
  H+  H362  1  0.37328018  0.74210577  0.82200956  1
  H+  H363  1  0.05761573  0.87303357  0.77506226  1
  H+  H364  1  0.07569335  0.16755007  0.46639449  1
  H+  H365  1  0.91295385  0.58337270  0.59793694  1
  H+  H366  1  0.84519877  0.17748432  0.75146678  1
  H+  H367  1  0.13297999  0.06911892  0.62624866  1
  H+  H368  1  0.66929672  0.32625707  0.26385387  1
  H+  H369  1  0.17515136  0.59579180  0.93413287  1
  H+  H370  1  0.92610418  0.58191133  0.91266503  1
  H+  H371  1  0.63176073  0.10435398  -0.00612113  1
  H+  H372  1  0.58617257  0.40250956  0.42958207  1
  H+  H373  1  0.34965667  0.43766632  0.75738846  1
  H+  H374  1  0.66474627  0.08141745  0.23099508  1
  H+  H375  1  0.84529681  0.45462738  0.16176791  1
  H+  H376  1  0.66422024  0.32124468  0.56879379  1
  H+  H377  1  0.33412508  0.91907800  0.43634375  1
  H+  H378  1  0.83243901  0.41391287  0.39673931  1
  H+  H379  1  0.64182715  0.77427906  0.67811529  1
  H+  H380  1  0.32408754  0.16201549  0.74611507  1
  H+  H381  1  0.15755261  0.32085361  0.93174296  1
  H+  H382  1  0.16357920  0.83249284  0.94525990  1
  H+  H383  1  0.78129335  0.63803847  0.72617084  1
  O2-  O384  1  0.07359998  0.16117361  0.13663869  1
  O2-  O385  1  0.07324765  0.16999847  0.51058004  1
  O2-  O386  1  0.05825680  0.16323032  0.81022068  1
  O2-  O387  1  0.08335843  0.41759558  0.13977937  1
  O2-  O388  1  0.08627558  0.40816239  0.46548681  1
  O2-  O389  1  0.10293911  0.42232219  0.84712171  1
  O2-  O390  1  0.08845764  0.66348336  0.15426058  1
  O2-  O391  1  0.03975009  0.61402922  0.43982468  1
  O2-  O392  1  0.08356715  0.66777896  0.81560460  1
  O2-  O393  1  0.08870744  0.91067761  0.15448295  1
  O2-  O394  1  0.04096990  0.94792728  0.46695062  1
  O2-  O395  1  0.06125003  0.87228420  0.81966469  1
  O2-  O396  1  0.33140213  0.21442056  0.15362681  1
  O2-  O397  1  0.43475585  0.22362936  0.46040828  1
  O2-  O398  1  0.33937348  0.17407388  0.83998123  1
  O2-  O399  1  0.35187931  0.41340703  0.15094121  1
  O2-  O400  1  0.33480163  0.43337349  0.47824181  1
  O2-  O401  1  0.35553947  0.44814805  0.80433475  1
  O2-  O402  1  0.33160590  0.65807750  0.14241367  1
  O2-  O403  1  0.30837532  0.65114281  0.46801927  1
  O2-  O404  1  0.34398449  0.68241544  0.80535142  1
  O2-  O405  1  0.32697570  0.92231218  0.16192833  1
  O2-  O406  1  0.33052586  0.91409102  0.48176992  1
  O2-  O407  1  0.33005010  0.91525398  0.82939033  1
  O2-  O408  1  0.57688232  0.15765617  0.15253118  1
  O2-  O409  1  0.59646639  0.16156589  0.47776156  1
  O2-  O410  1  0.57200344  0.16157634  0.81612520  1
  O2-  O411  1  0.57553201  0.40412432  0.17097880  1
  O2-  O412  1  0.56839421  0.38385900  0.47255649  1
  O2-  O413  1  0.59233898  0.42860481  0.80233135  1
  O2-  O414  1  0.58472994  0.67915918  0.14287336  1
  O2-  O415  1  0.60174230  0.66187907  0.48124123  1
  O2-  O416  1  0.59035828  0.68358529  0.78900263  1
  O2-  O417  1  0.60321603  0.92849821  0.12821741  1
  O2-  O418  1  0.56429364  0.88758230  0.47887693  1
  O2-  O419  1  0.58853562  0.92191114  0.81351013  1
  O2-  O420  1  0.82250452  0.16772803  0.14935195  1
  O2-  O421  1  0.83314312  0.19666786  0.47655649  1
  O2-  O422  1  0.83855001  0.17530703  0.82128728  1
  O2-  O423  1  0.81691080  0.39545180  0.14651018  1
  O2-  O424  1  0.82341165  0.41476862  0.47987365  1
  O2-  O425  1  0.85858573  0.43129513  0.81391500  1
  O2-  O426  1  0.83947367  0.66894199  0.15281363  1
  O2-  O427  1  0.84053456  0.66801570  0.47545438  1
  O2-  O428  1  0.80649468  0.65502760  0.86951567  1
  O2-  O429  1  0.85042715  0.91751126  0.13874400  1
  O2-  O430  1  0.81992917  0.91242009  0.48456924  1
  O2-  O431  1  0.82578885  0.92495910  0.82856019  1
  O2-  O432  1  0.16410137  0.08479545  0.16784721  1
  O2-  O433  1  0.13728954  0.06879668  0.54817840  1
  O2-  O434  1  0.15166615  0.08307241  0.85735915  1
  O2-  O435  1  0.17142237  0.33110071  0.17261689  1
  O2-  O436  1  0.17635308  0.35040524  0.52676799  1
  O2-  O437  1  0.17058737  0.31510773  0.85124432  1
  O2-  O438  1  0.16239558  0.57421466  0.18566982  1
  O2-  O439  1  0.15055929  0.57418544  0.51036298  1
  O2-  O440  1  0.18154027  0.60206822  0.85316831  1
  O2-  O441  1  0.16177784  0.82536173  0.20843014  1
  O2-  O442  1  0.16653249  0.84337159  0.52064259  1
  O2-  O443  1  0.17248216  0.83059519  0.86214036  1
  O2-  O444  1  0.42901410  0.07754433  0.19374454  1
  O2-  O445  1  0.46067295  0.05485245  0.53955125  1
  O2-  O446  1  0.41310139  0.07252105  0.85455013  1
  O2-  O447  1  0.39839835  0.37989144  0.18597429  1
  O2-  O448  1  0.41286340  0.35161620  0.52293019  1
  O2-  O449  1  0.42919180  0.35064143  0.84775945  1
  O2-  O450  1  0.42010214  0.58274395  0.18390456  1
  O2-  O451  1  0.43698197  0.61410635  0.51830121  1
  O2-  O452  1  0.44277971  0.61231141  0.84128883  1
  O2-  O453  1  0.39230386  0.82692560  0.18575864  1
  O2-  O454  1  0.39891650  0.81460888  0.51496206  1
  O2-  O455  1  0.42321077  0.84498447  0.85598781  1
  O2-  O456  1  0.66478662  0.08606796  0.18602504  1
  O2-  O457  1  0.64524408  0.05466819  0.51658913  1
  O2-  O458  1  0.66299982  0.08289339  0.85236315  1
  O2-  O459  1  0.66599304  0.31720989  0.18958061  1
  O2-  O460  1  0.66609780  0.32364070  0.52318117  1
  O2-  O461  1  0.64097733  0.31444660  0.86003021  1
  O2-  O462  1  0.62168971  0.57644612  0.21642700  1
  O2-  O463  1  0.68947376  0.58842272  0.50690169  1
  O2-  O464  1  0.68915406  0.59631305  0.77903756  1
  O2-  O465  1  0.68021557  0.84338745  0.17678133  1
  O2-  O466  1  0.65774726  0.81694718  0.52935933  1
  O2-  O467  1  0.66159815  0.84022882  0.83876573  1
  O2-  O468  1  0.91023164  0.07698878  0.18154459  1
  O2-  O469  1  0.89639051  0.08298713  0.52863461  1
  O2-  O470  1  0.89580601  0.08407443  0.88908719  1
  O2-  O471  1  0.90638322  0.33572787  0.18705534  1
  O2-  O472  1  0.93294645  0.35821521  0.53476592  1
  O2-  O473  1  0.91765105  0.33777030  0.85350739  1
  O2-  O474  1  0.92585154  0.58255851  0.19413842  1
  O2-  O475  1  0.91084862  0.58098565  0.51675095  1
  O2-  O476  1  0.92391251  0.59145579  0.86777357  1
  O2-  O477  1  0.92399264  0.83264271  0.19081065  1
  O2-  O478  1  0.89998842  0.82664766  0.52884723  1
  O2-  O479  1  0.89127838  0.82825797  0.86520043  1
  O2-  O480  1  0.15738800  0.06570833  0.29273519  1
  O2-  O481  1  0.14411329  0.08794256  0.66979573  1
  O2-  O482  1  0.17449817  0.08905087  0.98090220  1
  O2-  O483  1  0.17074222  0.33214701  0.29831123  1
  O2-  O484  1  0.16850137  0.35192387  0.65108929  1
  O2-  O485  1  0.15066202  0.32118504  0.97637044  1
  O2-  O486  1  0.16142691  0.56850668  0.29789981  1
  O2-  O487  1  0.15964852  0.58477738  0.63614381  1
  O2-  O488  1  0.17398596  0.58773920  0.97900048  1
  O2-  O489  1  0.16223100  0.82315943  0.33346663  1
  O2-  O490  1  0.16082966  0.81597349  0.63991433  1
  O2-  O491  1  0.15409626  0.82992845  0.98983515  1
  O2-  O492  1  0.42393057  0.08087237  0.31173902  1
  O2-  O493  1  0.40354776  0.07620247  0.65481413  1
  O2-  O494  1  0.41923921  0.08373756  0.98433301  1
  O2-  O495  1  0.44442578  0.36148457  0.31505610  1
  O2-  O496  1  0.40899797  0.32600412  0.64610588  1
  O2-  O497  1  0.42113005  0.33906503  0.96648921  1
  O2-  O498  1  0.40060019  0.58104259  0.30567275  1
  O2-  O499  1  0.43090508  0.63615313  0.63380839  1
  O2-  O500  1  0.43053881  0.58682828  0.97262059  1
  O2-  O501  1  0.41225338  0.83059046  0.31136420  1
  O2-  O502  1  0.39404751  0.83447492  0.63345673  1
  O2-  O503  1  0.44490791  0.82792040  0.97546694  1
  O2-  O504  1  0.66461844  0.08211340  0.31372905  1
  O2-  O505  1  0.61434597  0.05409166  0.63741438  1
  O2-  O506  1  0.65852519  0.07507120  0.97167318  1
  O2-  O507  1  0.66786179  0.32980437  0.31003266  1
  O2-  O508  1  0.66349955  0.32263423  0.64633324  1
  O2-  O509  1  0.66461127  0.33000647  0.98365044  1
  O2-  O510  1  0.67839999  0.58700760  0.33722705  1
  O2-  O511  1  0.67134288  0.56574217  0.62415169  1
  O2-  O512  1  0.69236878  0.59470711  0.96768201  1
  O2-  O513  1  0.68038796  0.85789637  0.29667524  1
  O2-  O514  1  0.67205202  0.82856685  0.65492468  1
  O2-  O515  1  0.69643906  0.84367947  0.98379148  1
  O2-  O516  1  0.91477466  0.08224481  0.30745075  1
  O2-  O517  1  0.90424449  0.08286147  0.65338033  1
  O2-  O518  1  1.01277573  0.09752345  1.02124137  1
  O2-  O519  1  0.92153951  0.34108997  0.30404638  1
  O2-  O520  1  0.92256956  0.33785365  0.65336184  1
  O2-  O521  1  0.90694416  0.32082330  0.97865208  1
  O2-  O522  1  0.92555840  0.58973837  0.31879030  1
  O2-  O523  1  0.91167376  0.57979299  0.64324854  1
  O2-  O524  1  0.92561853  0.57328375  0.99027387  1
  O2-  O525  1  0.92083782  0.83523219  0.31587349  1
  O2-  O526  1  0.90023750  0.82026419  0.65394159  1
  O2-  O527  1  0.92028230  0.81964234  0.98573678  1
  O2-  O528  1  0.03178296  0.14331522  -0.02905951  1
  O2-  O529  1  0.09449683  0.16904589  0.32366509  1
  O2-  O530  1  0.06818111  0.18641727  0.68868591  1
  O2-  O531  1  0.08032028  0.41699402  0.01407109  1
  O2-  O532  1  0.08330382  0.41162960  0.33908228  1
  O2-  O533  1  0.08633164  0.42742053  0.69337016  1
  O2-  O534  1  0.09020591  0.66380643  0.02948659  1
  O2-  O535  1  0.05797503  0.66929106  0.38537567  1
  O2-  O536  1  0.07624152  0.65743865  0.68931513  1
  O2-  O537  1  0.08858677  0.92220475  0.03467889  1
  O2-  O538  1  0.08616745  0.91333915  0.36158903  1
  O2-  O539  1  0.06224750  0.87679877  0.68951588  1
  O2-  O540  1  0.33777973  0.16839858  -0.03990518  1
  O2-  O541  1  0.37288243  0.19030339  0.35256101  1
  O2-  O542  1  0.31953699  0.16019201  0.70147845  1
  O2-  O543  1  0.33318674  0.41175316  0.00645529  1
  O2-  O544  1  0.32905014  0.41843162  0.34913690  1
  O2-  O545  1  0.33969675  0.42130317  0.68981715  1
  O2-  O546  1  0.34197407  0.66226598  0.01821834  1
  O2-  O547  1  0.31367169  0.65634932  0.34307368  1
  O2-  O548  1  0.32145095  0.68073501  0.68185587  1
  O2-  O549  1  0.28527216  0.95094162  0.04701104  1
  O2-  O550  1  0.33464337  0.91601936  0.35843955  1
  O2-  O551  1  0.32408188  0.90802208  0.67564084  1
  O2-  O552  1  0.58480503  0.16023957  0.02562324  1
  O2-  O553  1  0.58526786  0.16636564  0.35434621  1
  O2-  O554  1  0.56783296  0.16307984  0.69469527  1
  O2-  O555  1  0.57945116  0.41953499  0.00705885  1
  O2-  O556  1  0.60127779  0.42461218  0.35297420  1
  O2-  O557  1  0.57627053  0.40026408  0.67919135  1
  O2-  O558  1  0.60147178  0.67203725  0.01729638  1
  O2-  O559  1  0.55784197  0.65800288  0.35525347  1
  O2-  O560  1  0.56762275  0.67978000  0.72357485  1
  O2-  O561  1  0.60051096  0.91460243  0.01224252  1
  O2-  O562  1  0.57834947  0.91611761  0.35202718  1
  O2-  O563  1  0.57747825  0.90271857  0.69809788  1
  O2-  O564  1  0.83169000  0.13854109  -0.02859232  1
  O2-  O565  1  0.83878525  0.17100932  0.34640928  1
  O2-  O566  1  0.84104487  0.17777664  0.70461950  1
  O2-  O567  1  0.82913621  0.41061373  0.02913112  1
  O2-  O568  1  0.83452906  0.41765200  0.35174026  1
  O2-  O569  1  0.82780057  0.41478141  0.68780198  1
  O2-  O570  1  0.84214243  0.65665609  0.02887885  1
  O2-  O571  1  0.85083729  0.67145409  0.35760346  1
  O2-  O572  1  0.81235049  0.65059586  0.68677322  1
  O2-  O573  1  0.88922125  0.93118121  0.02338028  1
  O2-  O574  1  0.84193875  0.92340816  0.35706117  1
  O2-  O575  1  0.83592680  0.91881603  0.70094307  1
