# generated using pymatgen
data_H2O
_symmetry_space_group_name_H-M   'P 1'
_cell_length_a   17.98946961
_cell_length_b   17.99217293
_cell_length_c   22.00896519
_cell_angle_alpha   90.02524807
_cell_angle_beta   90.01800359
_cell_angle_gamma   119.99810857
_symmetry_Int_Tables_number   1
_chemical_formula_structural   H2O
_chemical_formula_sum   'H384 O192'
_cell_volume   6169.36383032
_cell_formula_units_Z   192
loop_
 _symmetry_equiv_pos_site_id
 _symmetry_equiv_pos_as_xyz
  1  'x, y, z'
loop_
 _atom_type_symbol
 _atom_type_oxidation_number
  H+  1.0
  O2-  -2.0
loop_
 _atom_site_type_symbol
 _atom_site_label
 _atom_site_symmetry_multiplicity
 _atom_site_fract_x
 _atom_site_fract_y
 _atom_site_fract_z
 _atom_site_occupancy
  H+  H0  1  0.39206055  0.77815414  0.33418240  1
  H+  H1  1  0.06110822  0.15586708  0.39491330  1
  H+  H2  1  0.97613969  0.61791587  0.50384999  1
  H+  H3  1  0.87777394  0.60586967  1.01070456  1
  H+  H4  1  0.19588435  0.36151620  0.32321965  1
  H+  H5  1  0.87252008  0.88701978  1.02138894  1
  H+  H6  1  0.49873511  0.38831893  0.82816221  1
  H+  H7  1  0.36169314  0.14686349  0.68295057  1
  H+  H8  1  0.77133977  0.88438343  0.83029110  1
  H+  H9  1  0.60380086  0.65058545  0.16877201  1
  H+  H10  1  0.49593619  0.35407440  0.99638685  1
  H+  H11  1  0.62283291  0.35295694  0.84632639  1
  H+  H12  1  0.85113265  0.71750807  0.16986652  1
  H+  H13  1  1.00936101  0.12207984  0.67225578  1
  H+  H14  1  0.11517569  0.23009714  0.00266621  1
  H+  H15  1  0.30341019  0.17590688  0.86179276  1
  H+  H16  1  0.11999078  0.60148325  0.64840298  1
  H+  H17  1  0.34966125  0.92211257  0.77523315  1
  H+  H18  1  0.43588752  0.46142760  0.44908686  1
  H+  H19  1  0.62066405  0.71027419  0.00578294  1
  H+  H20  1  0.62541073  0.94892949  0.00859560  1
  H+  H21  1  0.07559862  0.96564225  0.87286688  1
  H+  H22  1  0.60828389  0.05072856  0.16568423  1
  H+  H23  1  0.83648764  0.20292142  0.00966938  1
  H+  H24  1  0.03345426  0.90962931  0.63333688  1
  H+  H25  1  0.02263642  0.38764181  0.48558779  1
  H+  H26  1  0.89246070  0.28492523  0.50923604  1
  H+  H27  1  0.22377793  0.36597764  0.83214453  1
  H+  H28  1  0.85992138  0.07970089  0.64687114  1
  H+  H29  1  0.13543214  0.36572271  0.16836749  1
  H+  H30  1  0.12851781  0.48757420  1.00883980  1
  H+  H31  1  -0.01734110  0.84810189  0.51235465  1
  H+  H32  1  0.36951171  0.40085412  0.81814569  1
  H+  H33  1  0.91930184  0.80110169  0.66251037  1
  H+  H34  1  0.63212979  0.03678361  0.31107171  1
  H+  H35  1  0.77890817  0.63924175  0.01068314  1
  H+  H36  1  0.33052282  0.34286184  0.30270091  1
  H+  H37  1  0.22893306  0.13146701  0.66433649  1
  H+  H38  1  0.81079971  -0.08321967  0.50647024  1
  H+  H39  1  0.37307619  0.89099375  0.33920114  1
  H+  H40  1  0.89361106  1.01964476  -0.00434562  1
  H+  H41  1  0.39045762  0.89895836  0.67982122  1
  H+  H42  1  0.87699678  0.89061049  0.80544788  1
  H+  H43  1  0.59157592  0.24751283  0.01595153  1
  H+  H44  1  0.89309265  0.76004609  0.50875819  1
  H+  H45  1  0.41582349  0.33360684  0.60726623  1
  H+  H46  1  0.39700252  0.86418082  0.84102269  1
  H+  H47  1  0.58699603  0.35013864  0.49778833  1
  H+  H48  1  0.85384073  0.88636414  0.16849254  1
  H+  H49  1  0.14240600  0.61747071  -0.00654784  1
  H+  H50  1  0.72400676  0.35574592  0.18226484  1
  H+  H51  1  0.71480599  0.50848653  0.22079461  1
  H+  H52  1  0.36921277  0.64139125  0.00501420  1
  H+  H53  1  0.53378073  0.13883055  0.49736621  1
  H+  H54  1  0.68455259  0.64848269  0.52785260  1
  H+  H55  1  0.73459432  0.84978488  0.99911436  1
  H+  H56  1  0.36901372  0.72749227  0.82369065  1
  H+  H57  1  0.11493288  0.25859742  0.50714826  1
  H+  H58  1  0.39445540  0.03396533  0.50832545  1
  H+  H59  1  0.94099777  0.34304479  0.23790273  1
  H+  H60  1  0.31580000  0.41252816  0.38837297  1
  H+  H61  1  0.71583945  0.85130452  0.64809517  1
  H+  H62  1  0.89600903  0.82472536  0.24822644  1
  H+  H63  1  0.79572785  0.38451144  0.35013108  1
  H+  H64  1  0.86746095  0.99686021  0.65895568  1
  H+  H65  1  0.61527094  0.72681505  0.82231203  1
  H+  H66  1  0.86673738  0.16612847  0.46817635  1
  H+  H67  1  0.52253690  0.37468228  0.15141770  1
  H+  H68  1  0.62273173  0.90562992  0.33199297  1
  H+  H69  1  0.38995892  0.86932992  0.50247773  1
  H+  H70  1  0.46472396  0.60744629  0.32138337  1
  H+  H71  1  0.35901847  -0.02391555  0.33603630  1
  H+  H72  1  0.24797897  0.14237105  0.97641293  1
  H+  H73  1  0.89073518  0.60880615  0.17327505  1
  H+  H74  1  0.38900065  0.27291929  0.51334210  1
  H+  H75  1  0.61423278  0.96866113  0.65274040  1
  H+  H76  1  0.64135659  0.83964230  0.99770572  1
  H+  H77  1  0.18154406  0.07033608  0.82477278  1
  H+  H78  1  0.38741118  0.04072226  0.66455562  1
  H+  H79  1  0.68322746  0.83541675  0.55335810  1
  H+  H80  1  0.14233548  0.02023729  0.51143515  1
  H+  H81  1  0.50063386  0.36934423  0.32582717  1
  H+  H82  1  0.86010279  1.01749097  0.34259923  1
  H+  H83  1  0.06575434  0.41033223  0.76704282  1
  H+  H84  1  0.87751336  0.23986689  0.32750927  1
  H+  H85  1  0.12579168  0.72347297  0.80206965  1
  H+  H86  1  0.85209207  0.67550746  0.82127755  1
  H+  H87  1  0.12604341  0.99159877  0.63880198  1
  H+  H88  1  0.60953723  0.64314001  0.33401904  1
  H+  H89  1  0.76174243  0.35742140  0.67908169  1
  H+  H90  1  0.38441778  0.77376398  0.17472423  1
  H+  H91  1  0.60789967  0.36561391  0.15796672  1
  H+  H92  1  0.38563469  0.25517979  0.83735099  1
  H+  H93  1  0.97799828  0.60582091  0.17288532  1
  H+  H94  1  0.97461186  0.35654374  0.84383363  1
  H+  H95  1  0.73325673  0.63043468  0.32787390  1
  H+  H96  1  0.62539483  0.60996080  0.83584621  1
  H+  H97  1  0.46531688  0.62086857  0.50820005  1
  H+  H98  1  0.10383485  0.75999707  0.64279830  1
  H+  H99  1  0.36101152  0.38764213  0.15425090  1
  H+  H100  1  0.61318628  0.14973633  0.33230313  1
  H+  H101  1  0.37591167  0.48416001  0.48563899  1
  H+  H102  1  0.46835741  0.86883466  0.17684341  1
  H+  H103  1  0.88560048  0.79741284  0.79203622  1
  H+  H104  1  0.13466354  0.55598161  0.32657962  1
  H+  H105  1  0.61568257  0.46181096  0.66981129  1
  H+  H106  1  0.71653605  0.61995293  0.83081176  1
  H+  H107  1  0.86079901  0.05170557  0.50696834  1
  H+  H108  1  0.53990607  0.35418149  0.51877235  1
  H+  H109  1  0.38819899  0.61585814  0.83715038  1
  H+  H110  1  0.77379675  0.61948554  0.16513498  1
  H+  H111  1  0.65130874  0.50972128  0.98924989  1
  H+  H112  1  0.37348506  0.61085931  0.50984946  1
  H+  H113  1  0.37564869  0.39116557  0.67302435  1
  H+  H114  1  0.69103217  0.10204273  0.56187532  1
  H+  H115  1  0.08369012  0.21233939  0.33404389  1
  H+  H116  1  0.16231122  0.15100656  0.97650534  1
  H+  H117  1  0.14762317  0.12749628  0.16741311  1
  H+  H118  1  0.83515280  0.45671949  1.02472325  1
  H+  H119  1  0.77379214  0.15265484  0.48570288  1
  H+  H120  1  0.12365174  0.34984591  0.50110614  1
  H+  H121  1  0.87475951  0.86382430  0.33767725  1
  H+  H122  1  0.20739616  0.59964950  0.65817953  1
  H+  H123  1  0.90716600  0.03494924  0.17225995  1
  H+  H124  1  0.31392812  0.90667784  0.25815350  1
  H+  H125  1  0.45124572  0.98273924  0.71546761  1
  H+  H126  1  0.10526917  0.71518744  0.37514146  1
  H+  H127  1  0.35831358  0.63949148  0.16012245  1
  H+  H128  1  0.10031141  0.13469572  0.82413481  1
  H+  H129  1  0.13980635  1.00955154  0.14697213  1
  H+  H130  1  0.24134815  0.87620483  0.97050080  1
  H+  H131  1  0.27931553  0.63730982  0.82586354  1
  H+  H132  1  0.87983367  0.39913753  0.50190654  1
  H+  H133  1  0.61263739  0.61815806  1.00903807  1
  H+  H134  1  0.11131816  0.47091908  0.47166393  1
  H+  H135  1  0.77973890  0.14001659  0.82052173  1
  H+  H136  1  0.66950322  0.84349292  0.26185366  1
  H+  H137  1  0.94031056  0.84249229  0.95698721  1
  H+  H138  1  0.37691402  0.76942436  0.65774890  1
  H+  H139  1  0.48250338  0.11369293  0.83624654  1
  H+  H140  1  0.16010175  1.00931241  0.31168236  1
  H+  H141  1  0.97277779  0.10925554  0.83979260  1
  H+  H142  1  0.59357463  0.17342502  0.39808066  1
  H+  H143  1  0.86738973  0.64875494  0.33700529  1
  H+  H144  1  0.48977036  0.40344893  0.33372584  1
  H+  H145  1  0.64850375  0.86247488  0.84753548  1
  H+  H146  1  0.28203325  0.64580523  1.00250672  1
  H+  H147  1  0.64975695  0.28382806  0.33895219  1
  H+  H148  1  1.04332411  0.63038087  0.80595843  1
  H+  H149  1  0.08765912  0.22034514  0.67132608  1
  H+  H150  1  0.04434242  0.88477481  0.00785706  1
  H+  H151  1  0.12546358  0.87891644  0.50009789  1
  H+  H152  1  0.37527961  0.98203508  -0.01519834  1
  H+  H153  1  0.37000099  0.47806382  1.00232858  1
  H+  H154  1  0.89500759  0.36459218  0.18331598  1
  H+  H155  1  0.35126433  0.87940260  0.20389775  1
  H+  H156  1  0.52773721  0.13271366  0.16894301  1
  H+  H157  1  0.39086368  0.27524579  0.15830139  1
  H+  H158  1  0.47523631  0.86385081  0.51201097  1
  H+  H159  1  0.90287980  0.77419868  1.01074606  1
  H+  H160  1  0.86313786  0.36129910  0.82331749  1
  H+  H161  1  0.23940502  0.10456267  0.32174267  1
  H+  H162  1  0.47418422  0.12969395  0.66681601  1
  H+  H163  1  0.62165069  0.48171849  0.81814560  1
  H+  H164  1  0.14589005  0.33009912  0.25874344  1
  H+  H165  1  0.11179522  0.63320086  0.16161821  1
  H+  H166  1  0.03214937  0.39366685  0.15898720  1
  H+  H167  1  0.52828061  0.87170487  0.00433533  1
  H+  H168  1  0.84026144  0.33260459  0.99694556  1
  H+  H169  1  0.14920216  0.61381058  0.82702312  1
  H+  H170  1  0.09009358  0.34249126  0.65673598  1
  H+  H171  1  0.96424940  0.60789913  0.33558742  1
  H+  H172  1  0.36730595  0.14189908  0.49999403  1
  H+  H173  1  0.14962336  0.85641225  0.80572306  1
  H+  H174  1  0.06889978  0.33672893  0.32868789  1
  H+  H175  1  0.51940306  0.43075066  0.48679526  1
  H+  H176  1  0.62905334  0.97959925  0.83862329  1
  H+  H177  1  0.36271012  0.15056687  0.34816365  1
  H+  H178  1  0.33696015  0.91183173  0.03610013  1
  H+  H179  1  0.91208840  0.12536522  0.17272458  1
  H+  H180  1  0.58689053  0.63951068  0.47634667  1
  H+  H181  1  0.65663818  0.50246081  0.35610583  1
  H+  H182  1  0.27601601  0.13916602  0.49991294  1
  H+  H183  1  0.56829306  0.10927517  0.68023903  1
  H+  H184  1  0.12105491  0.22969019  0.15461527  1
  H+  H185  1  0.76316175  0.14022083  0.65787578  1
  H+  H186  1  0.09843562  0.73437475  0.47232800  1
  H+  H187  1  0.63041789  0.24627976  0.66963182  1
  H+  H188  1  0.39642264  0.77210393  0.99033099  1
  H+  H189  1  0.14134697  0.52517139  0.17130055  1
  H+  H190  1  0.37971760  0.61358979  0.32766215  1
  H+  H191  1  1.00950683  0.10715002  0.49086075  1
  H+  H192  1  0.58187009  0.66947764  0.76118297  1
  H+  H193  1  0.96713907  0.87657489  0.82829092  1
  H+  H194  1  0.27041138  0.63813179  0.49396163  1
  H+  H195  1  0.12578962  0.85830410  0.63260023  1
  H+  H196  1  0.36997764  0.52290009  0.17036378  1
  H+  H197  1  0.13620294  0.12501699  0.66038112  1
  H+  H198  1  0.00972141  0.88811017  0.34416197  1
  H+  H199  1  0.33766569  0.47298435  0.33124826  1
  H+  H200  1  0.75985110  0.88499884  0.33908258  1
  H+  H201  1  0.65514334  0.41392073  0.36609298  1
  H+  H202  1  0.60879609  0.72094950  0.66006710  1
  H+  H203  1  0.63305740  0.77775368  0.31845869  1
  H+  H204  1  0.52408152  0.88248587  0.65567958  1
  H+  H205  1  0.52664875  0.37492049  0.67336834  1
  H+  H206  1  0.39707385  0.12144171  0.84226216  1
  H+  H207  1  0.36422990  0.48683304  0.82093488  1
  H+  H208  1  0.68091664  0.14876537  0.65771194  1
  H+  H209  1  0.21653722  0.77679575  0.52064959  1
  H+  H210  1  0.37367435  0.22148759  1.01064441  1
  H+  H211  1  0.92368762  0.19093047  0.68470305  1
  H+  H212  1  0.62929209  0.54968866  0.50383524  1
  H+  H213  1  0.28497773  0.89880163  0.48808247  1
  H+  H214  1  0.22344324  0.36361656  0.17272941  1
  H+  H215  1  0.78096272  0.62523639  0.49602709  1
  H+  H216  1  0.89030673  0.26345159  0.83964274  1
  H+  H217  1  0.84617769  0.11954586  1.00891039  1
  H+  H218  1  0.71483233  0.12555012  0.29991259  1
  H+  H219  1  0.37386359  0.48729296  0.66808892  1
  H+  H220  1  0.74407127  0.35825187  0.51354805  1
  H+  H221  1  0.01847015  0.61548091  0.00971304  1
  H+  H222  1  0.28327452  0.14212227  0.15479623  1
  H+  H223  1  0.64282495  0.48946164  0.17397018  1
  H+  H224  1  0.23157179  0.36419824  -0.01047568  1
  H+  H225  1  0.60354929  0.38697509  0.52194183  1
  H+  H226  1  0.62928702  0.85421116  0.63883927  1
  H+  H227  1  0.34377871  0.92908599  0.42909763  1
  H+  H228  1  0.47738318  0.12077165  0.99439988  1
  H+  H229  1  0.85286281  0.67359541  0.64316791  1
  H+  H230  1  0.72156532  0.59114073  0.66653895  1
  H+  H231  1  0.12312357  0.39683145  0.00840017  1
  H+  H232  1  0.86382931  0.12850077  0.82636391  1
  H+  H233  1  0.57828287  0.91938108  0.10044378  1
  H+  H234  1  0.07087738  0.16604882  0.76545261  1
  H+  H235  1  0.34984119  0.63101665  0.67099700  1
  H+  H236  1  0.27814151  0.64624597  0.33887989  1
  H+  H237  1  0.89728545  0.52247728  0.51453098  1
  H+  H238  1  0.14291717  0.88860657  0.98896705  1
  H+  H239  1  0.64554837  0.11834748  0.50424541  1
  H+  H240  1  0.36000523  0.72837840  0.49547061  1
  H+  H241  1  0.39120371  0.11347640  0.17135278  1
  H+  H242  1  0.67839923  0.34503480  0.28160330  1
  H+  H243  1  0.64689309  0.12677063  0.83060612  1
  H+  H244  1  0.03840689  0.37454992  0.39207304  1
  H+  H245  1  0.10439206  0.12343743  0.48892992  1
  H+  H246  1  0.13471533  0.86605838  0.15949480  1
  H+  H247  1  0.60864147  0.16799598  1.00968872  1
  H+  H248  1  0.06699220  0.46013912  0.66390485  1
  H+  H249  1  0.77357732  0.90114234  0.16365181  1
  H+  H250  1  0.86421761  0.11758044  0.33191614  1
  H+  H251  1  0.40227184  0.86436375  0.98176754  1
  H+  H252  1  0.13448614  0.84683314  0.34196948  1
  H+  H253  1  0.37251035  0.39023973  1.00597616  1
  H+  H254  1  0.71379591  0.11704799  0.99440864  1
  H+  H255  1  0.47235528  0.61101469  0.65753886  1
  H+  H256  1  0.60281075  0.21975426  0.82960951  1
  H+  H257  1  0.61640030  0.98122315  0.50472516  1
  H+  H258  1  0.85118539  0.87531603  0.66820913  1
  H+  H259  1  0.54113683  0.89042638  0.83507354  1
  H+  H260  1  0.62739997  0.22319543  0.49801053  1
  H+  H261  1  0.38442083  0.27791464  0.66955909  1
  H+  H262  1  0.03428299  0.13809063  0.15599619  1
  H+  H263  1  0.12911880  0.60088648  0.50238865  1
  H+  H264  1  0.59856171  0.39502136  0.05950583  1
  H+  H265  1  0.64237252  0.79497139  0.16751874  1
  H+  H266  1  0.86955107  0.62631904  0.49789356  1
  H+  H267  1  0.38581564  0.02390940  0.19050740  1
  H+  H268  1  0.63759754  0.88226309  0.17291979  1
  H+  H269  1  0.13455176  0.27683533  0.83470323  1
  H+  H270  1  0.63693085  0.26558101  0.18343434  1
  H+  H271  1  0.09262950  0.42483523  0.09841407  1
  H+  H272  1  0.06704677  0.87333508  0.87775214  1
  H+  H273  1  0.88258837  0.23076184  0.16407659  1
  H+  H274  1  0.87912880  0.77537656  0.33806984  1
  H+  H275  1  0.86896362  0.45328768  0.81974841  1
  H+  H276  1  0.36466099  0.12909185  0.00107612  1
  H+  H277  1  0.95752098  0.84445896  0.19305066  1
  H+  H278  1  0.47671868  0.61501727  0.83543333  1
  H+  H279  1  0.90688539  0.58878333  0.81790196  1
  H+  H280  1  0.33958466  0.16011076  0.09512834  1
  H+  H281  1  0.21025093  0.85582941  0.18735744  1
  H+  H282  1  0.59238027  0.41541521  0.76021646  1
  H+  H283  1  0.22796019  0.61753381  0.16972654  1
  H+  H284  1  0.58199582  0.16913786  0.10938273  1
  H+  H285  1  0.10969684  0.38592994  0.82172273  1
  H+  H286  1  0.86063907  0.46816256  0.16803881  1
  H+  H287  1  0.16964617  0.33751870  0.93171677  1
  H+  H288  1  0.82054534  0.18092488  0.38206098  1
  H+  H289  1  0.83621916  0.66731509  0.40059078  1
  H+  H290  1  0.90019410  0.03862131  0.56622819  1
  H+  H291  1  0.41955708  0.09218726  0.56910642  1
  H+  H292  1  0.48092476  0.61000030  -0.00655315  1
  H+  H293  1  0.38120299  0.95285172  0.10740036  1
  H+  H294  1  0.63371419  0.32410506  0.91234110  1
  H+  H295  1  0.84910387  0.42206956  0.44034168  1
  H+  H296  1  0.81961170  0.40059828  0.11314908  1
  H+  H297  1  0.39870328  0.08430788  0.26711482  1
  H+  H298  1  0.83702871  0.77689203  0.89809870  1
  H+  H299  1  0.06890386  0.97125676  0.38094409  1
  H+  H300  1  0.37720371  0.90890717  0.10726234  1
  H+  H301  1  0.33350750  0.66905525  0.40078757  1
  H+  H302  1  0.23545428  0.86270170  0.82897550  1
  H+  H303  1  0.82811297  0.39300898  0.74887876  1
  H+  H304  1  0.42199024  0.58560813  0.93349293  1
  H+  H305  1  0.59829795  0.67352350  0.09983567  1
  H+  H306  1  0.32431701  0.66280169  0.73024928  1
  H+  H307  1  0.38992273  0.36230829  0.51066745  1
  H+  H308  1  0.91577879  0.07540290  0.90158664  1
  H+  H309  1  0.33362958  0.17884123  0.40814964  1
  H+  H310  1  0.09048457  0.89907829  0.44036659  1
  H+  H311  1  0.67008555  0.58138228  0.27213832  1
  H+  H312  1  0.88186670  0.31303844  0.93928030  1
  H+  H313  1  0.91994383  0.30320452  0.67152524  1
  H+  H314  1  0.61535223  0.05584159  0.97265393  1
  H+  H315  1  0.40512905  0.82934931  0.59794394  1
  H+  H316  1  0.57607290  0.16467537  0.76469347  1
  H+  H317  1  0.93678634  0.34301216  0.56981583  1
  H+  H318  1  0.98094031  0.11020765  0.99212898  1
  H+  H319  1  0.36491809  -0.02248835  0.83463014  1
  H+  H320  1  0.45226628  0.40113865  0.88531713  1
  H+  H321  1  0.86499994  0.54614445  0.95577929  1
  H+  H322  1  0.34381461  0.26318592  0.31210213  1
  H+  H323  1  0.32794912  0.41683378  0.09761370  1
  H+  H324  1  0.42883133  0.82938463  0.89577311  1
  H+  H325  1  0.18352736  0.08839201  0.22226756  1
  H+  H326  1  0.67852798  0.82254050  0.90149224  1
  H+  H327  1  0.84060186  0.16361328  0.11006978  1
  H+  H328  1  0.84235548  0.82047766  0.90387887  1
  H+  H329  1  0.16919284  0.81078397  0.56486217  1
  H+  H330  1  0.42842812  0.31317805  0.94320546  1
  H+  H331  1  0.15727843  0.57047087  0.56115657  1
  H+  H332  1  0.66811927  0.57312708  0.60601169  1
  H+  H333  1  0.58479429  0.46639031  0.43076502  1
  H+  H334  1  0.83186434  0.66871049  0.75019789  1
  H+  H335  1  0.11226826  0.90095670  0.74713746  1
  H+  H336  1  0.10532431  0.71943365  0.15697507  1
  H+  H337  1  0.16739085  0.09696740  0.89360600  1
  H+  H338  1  0.60948348  0.63260455  0.66898761  1
  H+  H339  1  0.68612591  0.31680629  0.57349291  1
  H+  H340  1  0.86122864  0.98220649  0.82821599  1
  H+  H341  1  0.88553179  0.61669933  0.67330555  1
  H+  H342  1  0.40860861  0.57896772  0.59947258  1
  H+  H343  1  0.17592551  0.59492058  0.26255670  1
  H+  H344  1  0.94559126  0.57818609  0.87846857  1
  H+  H345  1  0.61858446  0.89522255  0.49526143  1
  H+  H346  1  0.12765121  0.94694984  0.75611157  1
  H+  H347  1  0.07971945  0.65291738  0.06622036  1
  H+  H348  1  0.33360637  0.17757224  0.74347678  1
  H+  H349  1  0.42621681  0.08945526  0.92948206  1
  H+  H350  1  0.14100216  0.52275528  0.83613488  1
  H+  H351  1  0.53439270  0.90258918  0.33807447  1
  H+  H352  1  0.83432282  0.91830541  0.07421018  1
  H+  H353  1  0.92314668  0.59306022  0.26840886  1
  H+  H354  1  0.68609794  0.11778976  0.89238232  1
  H+  H355  1  0.57238551  0.67605517  0.38745126  1
  H+  H356  1  0.33638951  0.67632930  0.10002615  1
  H+  H357  1  0.05765263  0.64844901  0.70974865  1
  H+  H358  1  0.91369442  0.82942600  0.59242024  1
  H+  H359  1  0.17556675  0.59179448  0.93310608  1
  H+  H360  1  0.12105793  0.93602069  0.05670467  1
  H+  H361  1  0.34166612  0.42694828  0.73356468  1
  H+  H362  1  0.09313935  0.16869008  0.06052264  1
  H+  H363  1  0.80177480  0.90178464  0.40490601  1
  H+  H364  1  0.17094705  0.84436423  0.91584038  1
  H+  H365  1  0.04792620  0.93245136  0.12859415  1
  H+  H366  1  0.64283835  0.34212599  0.66466671  1
  H+  H367  1  0.86762143  0.38792118  0.67626320  1
  H+  H368  1  0.22278777  0.84822489  0.34625720  1
  H+  H369  1  0.67138805  0.57438405  0.93381141  1
  H+  H370  1  0.42015349  0.83316990  0.27322635  1
  H+  H371  1  0.39996348  0.32814530  0.21712434  1
  H+  H372  1  0.61140577  0.73770316  0.48355839  1
  H+  H373  1  0.95827175  0.10999876  0.33559569  1
  H+  H374  1  0.39677417  0.58005643  0.23010876  1
  H+  H375  1  0.88452694  0.38281813  0.35342218  1
  H+  H376  1  0.30735239  0.05008950  0.29540596  1
  H+  H377  1  0.81585047  0.90429313  0.72668439  1
  H+  H378  1  0.12888059  0.31639068  0.60071040  1
  H+  H379  1  0.73749097  0.38046152  1.02188724  1
  H+  H380  1  0.16826044  0.08908142  0.56496671  1
  H+  H381  1  0.86031562  0.18236079  0.73821290  1
  H+  H382  1  0.95458228  0.58770276  0.60697846  1
  H+  H383  1  0.83172337  0.66683612  0.07413321  1
  O2-  O384  1  0.09664354  0.16965484  0.13928709  1
  O2-  O385  1  0.06717633  0.14653545  0.47450777  1
  O2-  O386  1  0.07303175  0.16843002  0.81124585  1
  O2-  O387  1  0.09313677  0.42346673  0.14478995  1
  O2-  O388  1  0.07479034  0.41050418  0.45880667  1
  O2-  O389  1  0.07646362  0.41549589  0.81126371  1
  O2-  O390  1  0.07656961  0.65745915  0.14480457  1
  O2-  O391  1  0.04357200  0.69396058  0.45127249  1
  O2-  O392  1  0.09922590  0.66433532  0.78515061  1
  O2-  O393  1  0.10838026  0.94898407  0.12685746  1
  O2-  O394  1  0.09326934  0.90566425  0.48497532  1
  O2-  O395  1  0.03392521  0.90264568  0.88121197  1
  O2-  O396  1  0.34386603  0.16645467  0.14036216  1
  O2-  O397  1  0.33738575  0.17383186  0.48691025  1
  O2-  O398  1  0.34829572  0.19220411  0.83115854  1
  O2-  O399  1  0.32643866  0.41503627  0.14276994  1
  O2-  O400  1  0.37558306  0.43645790  0.46226097  1
  O2-  O401  1  0.33524443  0.42665819  0.80291112  1
  O2-  O402  1  0.33304889  0.67612869  0.14511259  1
  O2-  O403  1  0.33150936  0.66743529  0.48074672  1
  O2-  O404  1  0.33883311  0.66680146  0.80845851  1
  O2-  O405  1  0.31950613  0.91053414  0.21381848  1
  O2-  O406  1  0.34543164  0.93185658  0.47470384  1
  O2-  O407  1  0.33680671  0.91650767  0.82002188  1
  O2-  O408  1  0.58761691  0.16058481  0.15321883  1
  O2-  O409  1  0.59312006  0.16271400  0.48161041  1
  O2-  O410  1  0.57878453  0.16092299  0.81133782  1
  O2-  O411  1  0.58336937  0.39864014  0.13683516  1
  O2-  O412  1  0.55311922  0.48302360  0.46223016  1
  O2-  O413  1  0.58913497  0.42011985  0.80571863  1
  O2-  O414  1  0.61592962  0.69772248  0.14149513  1
  O2-  O415  1  0.56548236  0.67900923  0.46969610  1
  O2-  O416  1  0.58111414  0.66673040  0.80654458  1
  O2-  O417  1  0.57774512  0.93196607  0.14479298  1
  O2-  O418  1  0.58011463  0.91791040  0.50337849  1
  O2-  O419  1  0.60429935  0.91778200  0.83055329  1
  O2-  O420  1  0.85585603  0.16925958  0.15344992  1
  O2-  O421  1  0.83198344  0.19356092  0.46589787  1
  O2-  O422  1  0.84165316  0.16405475  0.80712080  1
  O2-  O423  1  0.82897006  0.40549452  0.15815953  1
  O2-  O424  1  0.84753486  0.42679348  0.48673036  1
  O2-  O425  1  0.83415667  0.39343230  0.80552113  1
  O2-  O426  1  0.83150799  0.66187938  0.14855577  1
  O2-  O427  1  0.84028447  0.65603099  0.47995294  1
  O2-  O428  1  0.82315035  0.69040473  0.79017664  1
  O2-  O429  1  0.83386474  0.92273442  0.14898484  1
  O2-  O430  1  0.77017912  0.86177658  0.48572807  1
  O2-  O431  1  0.82972595  0.92170715  0.80904007  1
  O2-  O432  1  0.18034644  0.09591259  0.17760815  1
  O2-  O433  1  0.16778762  0.08249026  0.51975198  1
  O2-  O434  1  0.13754338  0.06570239  0.85292360  1
  O2-  O435  1  0.16209106  0.33262125  0.18631869  1
  O2-  O436  1  0.14245201  0.31639672  0.52556293  1
  O2-  O437  1  0.16459165  0.33788079  0.84861788  1
  O2-  O438  1  0.16840303  0.58592035  0.18671955  1
  O2-  O439  1  0.16275797  0.57494220  0.51560104  1
  O2-  O440  1  0.17467507  0.58398462  0.84930696  1
  O2-  O441  1  0.14846557  0.82401880  0.17656365  1
  O2-  O442  1  0.18350726  0.80632103  0.51901604  1
  O2-  O443  1  0.17020455  0.83004762  0.83535876  1
  O2-  O444  1  0.42172970  0.08734852  0.19298049  1
  O2-  O445  1  0.42369305  0.09413902  0.52385168  1
  O2-  O446  1  0.42161262  0.08506795  0.85387142  1
  O2-  O447  1  0.41897776  0.33575630  0.17335148  1
  O2-  O448  1  0.42039995  0.33425596  0.52907611  1
  O2-  O449  1  0.43891823  0.36734712  0.84802646  1
  O2-  O450  1  0.39623383  0.58296271  0.18506739  1
  O2-  O451  1  0.40668032  0.58275453  0.52454886  1
  O2-  O452  1  0.41688227  0.58321003  0.85177496  1
  O2-  O453  1  0.41163574  0.83181714  0.19532280  1
  O2-  O454  1  0.41154254  0.83292917  0.52060185  1
  O2-  O455  1  0.42702029  0.83181243  0.85034145  1
  O2-  O456  1  0.63962310  0.02478246  0.14626997  1
  O2-  O457  1  0.68405442  0.09446912  0.51717782  1
  O2-  O458  1  0.68442085  0.10526134  0.84831424  1
  O2-  O459  1  0.66240673  0.32749022  0.19534848  1
  O2-  O460  1  0.68482026  0.31832854  0.52852234  1
  O2-  O461  1  0.63487701  0.31239549  0.86820665  1
  O2-  O462  1  0.68753737  0.53707735  0.20061079  1
  O2-  O463  1  0.67954252  0.59212619  0.53075850  1
  O2-  O464  1  0.66007810  0.58309182  0.84948185  1
  O2-  O465  1  0.67018469  0.85386447  0.18588353  1
  O2-  O466  1  0.68363108  0.84018266  0.50675392  1
  O2-  O467  1  0.67878896  0.82835165  0.85619444  1
  O2-  O468  1  0.94499246  0.09533475  0.18414942  1
  O2-  O469  1  0.89527763  0.02728819  0.52119943  1
  O2-  O470  1  0.91224599  0.07420966  0.85546459  1
  O2-  O471  1  0.93343895  0.34105418  0.19318092  1
  O2-  O472  1  0.93197737  0.34389411  0.52521006  1
  O2-  O473  1  0.91274287  0.32299619  0.85558839  1
  O2-  O474  1  0.91738067  0.57614246  0.18938426  1
  O2-  O475  1  0.92776416  0.58294141  0.53220834  1
  O2-  O476  1  0.94022439  0.56470016  0.83510989  1
  O2-  O477  1  0.89682715  0.82076235  0.20213992  1
  O2-  O478  1  0.92202366  0.81936108  0.52588341  1
  O2-  O479  1  0.92184621  0.86155628  0.79515133  1
  O2-  O480  1  0.20783211  0.05844050  0.29081340  1
  O2-  O481  1  0.17264913  0.10284990  0.64305762  1
  O2-  O482  1  0.20448381  0.14527775  0.94974281  1
  O2-  O483  1  0.13694155  0.32680775  0.30472446  1
  O2-  O484  1  0.12198928  0.31315359  0.64615444  1
  O2-  O485  1  0.17017966  0.33470171  0.97672445  1
  O2-  O486  1  0.18193231  0.60598306  0.30757580  1
  O2-  O487  1  0.14900292  0.56813203  0.63928985  1
  O2-  O488  1  0.18053377  0.59490319  0.97793354  1
  O2-  O489  1  0.15987157  0.81009158  0.34160109  1
  O2-  O490  1  0.14851373  0.81740815  0.62939032  1
  O2-  O491  1  0.17858721  0.85192743  0.96054825  1
  O2-  O492  1  0.36694210  0.06647274  0.30694156  1
  O2-  O493  1  0.41193831  0.10030510  0.64985701  1
  O2-  O494  1  0.41901727  0.08274457  0.97486476  1
  O2-  O495  1  0.34139917  0.30126729  0.28081722  1
  O2-  O496  1  0.41745553  0.33816593  0.65285780  1
  O2-  O497  1  0.43285619  0.32900268  0.98597971  1
  O2-  O498  1  0.40260852  0.57716077  0.31069724  1
  O2-  O499  1  0.41032202  0.57703064  0.64546440  1
  O2-  O500  1  0.42026477  0.58365979  0.97873297  1
  O2-  O501  1  0.42097252  0.83854127  0.31840260  1
  O2-  O502  1  0.40966954  0.83007192  0.64345784  1
  O2-  O503  1  0.43326154  0.83252048  0.97339466  1
  O2-  O504  1  0.65283736  0.09450764  0.29216728  1
  O2-  O505  1  0.70358884  0.11279052  0.64261966  1
  O2-  O506  1  0.66259732  0.11481358  0.97316748  1
  O2-  O507  1  0.68563246  0.34699146  0.32621532  1
  O2-  O508  1  0.67228426  0.30939257  0.65477665  1
  O2-  O509  1  0.63953888  0.34743082  0.99267862  1
  O2-  O510  1  0.67121043  0.59726466  0.31524002  1
  O2-  O511  1  0.66273615  0.56932010  0.65147294  1
  O2-  O512  1  0.67531279  0.57147887  0.97860882  1
  O2-  O513  1  0.66946097  0.83960368  0.30732374  1
  O2-  O514  1  0.65986583  0.82180369  0.62615637  1
  O2-  O515  1  0.67573249  0.81506803  0.98088761  1
  O2-  O516  1  0.89206726  0.07814663  0.32567975  1
  O2-  O517  1  0.89888289  0.05722123  0.64084529  1
  O2-  O518  1  0.92034710  0.07771376  0.97687798  1
  O2-  O519  1  0.94940477  0.33737523  0.32078406  1
  O2-  O520  1  0.94669092  0.36324722  0.65449978  1
  O2-  O521  1  0.86532335  0.29813252  0.98203817  1
  O2-  O522  1  0.91705750  0.60509369  0.31167225  1
  O2-  O523  1  0.95815201  0.58798265  0.65328347  1
  O2-  O524  1  0.89663928  0.56572572  0.99379626  1
  O2-  O525  1  0.90758908  0.83663924  0.32172668  1
  O2-  O526  1  0.91465645  0.84404488  0.63863837  1
  O2-  O527  1  0.94038848  0.83740337  1.00130162  1
  O2-  O528  1  0.08969214  0.16838903  0.01489703  1
  O2-  O529  1  0.05035934  0.15329443  0.35027281  1
  O2-  O530  1  0.06721541  0.16026400  0.68900632  1
  O2-  O531  1  0.09684092  0.42881149  0.02601850  1
  O2-  O532  1  0.01676726  0.33185827  0.35628792  1
  O2-  O533  1  0.03299680  0.40222650  0.68357410  1
  O2-  O534  1  0.07918772  0.65037602  0.02081559  1
  O2-  O535  1  0.06989137  0.66067521  0.39929998  1
  O2-  O536  1  0.05104165  0.64681794  0.66426059  1
  O2-  O537  1  0.10920617  0.92070880  0.01169731  1
  O2-  O538  1  0.07039962  0.92397940  0.36039343  1
  O2-  O539  1  0.09487337  0.92991644  0.62757265  1
  O2-  O540  1  0.33473430  0.15909067  0.01813799  1
  O2-  O541  1  0.33053867  0.17861676  0.36284609  1
  O2-  O542  1  0.33245145  0.17868387  0.69869362  1
  O2-  O543  1  0.33797297  0.41698278  0.01668270  1
  O2-  O544  1  0.29990090  0.41221117  0.34525100  1
  O2-  O545  1  0.34613570  0.42534829  0.68665139  1
  O2-  O546  1  0.34301524  0.67625876  0.01815180  1
  O2-  O547  1  0.33825923  0.67300946  0.35568602  1
  O2-  O548  1  0.31812693  0.65983409  0.68484805  1
  O2-  O549  1  0.34202270  0.91709795  -0.00824479  1
  O2-  O550  1  0.33549113  0.91586948  0.35149936  1
  O2-  O551  1  0.39083662  0.94662975  0.70465229  1
  O2-  O552  1  0.56817951  0.18447612  0.02721893  1
  O2-  O553  1  0.59295280  0.18515111  0.35433048  1
  O2-  O554  1  0.56615896  0.15974768  0.69344158  1
  O2-  O555  1  0.59923026  0.39886300  0.01369094  1
  O2-  O556  1  0.64796902  0.45917546  0.38720957  1
  O2-  O557  1  0.58799391  0.40187074  0.68579798  1
  O2-  O558  1  0.58422799  0.65074965  0.02205109  1
  O2-  O559  1  0.57497814  0.67162613  0.34271981  1
  O2-  O560  1  0.57874713  0.66340801  0.68069110  1
  O2-  O561  1  0.58578683  0.89261383  0.02533511  1
  O2-  O562  1  0.59661170  0.93974414  0.34558729  1
  O2-  O563  1  0.58630230  0.90833529  0.66471946  1
  O2-  O564  1  0.80932367  0.14159478  0.02444761  1
  O2-  O565  1  0.83226484  0.17720289  0.33857770  1
  O2-  O566  1  0.87287237  0.19585548  0.69259208  1
  O2-  O567  1  0.79726251  0.39611099  0.03622314  1
  O2-  O568  1  0.85309212  0.41032479  0.36983999  1
  O2-  O569  1  0.82346455  0.39744651  0.69629863  1
  O2-  O570  1  0.83800335  0.67012753  0.02838092  1
  O2-  O571  1  0.83485530  0.67613442  0.35595588  1
  O2-  O572  1  0.84375858  0.63841435  0.67920166  1
  O2-  O573  1  0.83673081  0.91361049  0.02843123  1
  O2-  O574  1  0.81739492  0.91590351  0.36161018  1
  O2-  O575  1  0.81567972  0.90153709  0.68183895  1
