# generated using pymatgen
data_H2O
_symmetry_space_group_name_H-M   'P 1'
_cell_length_a   17.99714125
_cell_length_b   17.99214455
_cell_length_c   22.00744607
_cell_angle_alpha   90.00599001
_cell_angle_beta   89.99119986
_cell_angle_gamma   119.98713877
_symmetry_Int_Tables_number   1
_chemical_formula_structural   H2O
_chemical_formula_sum   'H384 O192'
_cell_volume   6172.24275689
_cell_formula_units_Z   192
loop_
 _symmetry_equiv_pos_site_id
 _symmetry_equiv_pos_as_xyz
  1  'x, y, z'
loop_
 _atom_type_symbol
 _atom_type_oxidation_number
  H+  1.0
  O2-  -2.0
loop_
 _atom_site_type_symbol
 _atom_site_label
 _atom_site_symmetry_multiplicity
 _atom_site_fract_x
 _atom_site_fract_y
 _atom_site_fract_z
 _atom_site_occupancy
  H+  H0  1  0.15348394  0.88817768  0.32964138  1
  H+  H1  1  0.87047236  -0.01878760  0.78982060  1
  H+  H2  1  0.71894564  0.86827781  0.64700209  1
  H+  H3  1  0.60803234  0.00285270  0.33248919  1
  H+  H4  1  0.36837843  0.39010940  0.82592602  1
  H+  H5  1  0.16137145  0.15800454  0.34577193  1
  H+  H6  1  0.23957950  0.62959394  0.18066934  1
  H+  H7  1  0.89044502  0.77677033  0.99583731  1
  H+  H8  1  0.12939701  0.11303285  0.17744884  1
  H+  H9  1  0.08848488  0.07713948  0.85557432  1
  H+  H10  1  0.10220748  0.62021774  0.32474815  1
  H+  H11  1  0.40208854  0.40015303  0.65663389  1
  H+  H12  1  0.23355813  0.87686983  0.17766011  1
  H+  H13  1  0.41288431  0.12492474  0.65609394  1
  H+  H14  1  0.30647755  0.59983305  0.48477914  1
  H+  H15  1  0.38721032  0.14118186  0.81149888  1
  H+  H16  1  0.11801167  0.39247760  0.15749232  1
  H+  H17  1  0.61989322  0.23311590  0.50128976  1
  H+  H18  1  0.65182059  0.87514763  0.83588356  1
  H+  H19  1  0.60993945  0.48362018  0.83177573  1
  H+  H20  1  0.33079038  0.17538932  0.40121094  1
  H+  H21  1  0.23354516  0.16199569  0.86070116  1
  H+  H22  1  1.02741601  0.38034223  0.33766013  1
  H+  H23  1  0.97036034  0.11113257  0.32473177  1
  H+  H24  1  0.42913324  0.08412631  0.56372075  1
  H+  H25  1  0.62316584  0.47595741  0.50113750  1
  H+  H26  1  0.08256815  0.16215058  0.07199791  1
  H+  H27  1  0.58134444  0.18013435  0.88607213  1
  H+  H28  1  0.63895656  0.61721804  0.84788871  1
  H+  H29  1  0.20038854  0.78886320  0.99162027  1
  H+  H30  1  0.13434391  0.49681638  0.66975390  1
  H+  H31  1  0.10090058  0.20589895  0.49439798  1
  H+  H32  1  0.09080627  0.18552211  0.91099245  1
  H+  H33  1  0.31515469  0.46787697  0.46643130  1
  H+  H34  1  0.16742436  0.08924017  0.26609947  1
  H+  H35  1  0.40041086  0.86495260  0.69587610  1
  H+  H36  1  0.79011675  0.34159885  0.17859328  1
  H+  H37  1  0.83146190  0.16148570  0.38775148  1
  H+  H38  1  -0.01843020  0.86107873  -0.00300576  1
  H+  H39  1  0.73112757  0.11572645  0.84062955  1
  H+  H40  1  0.48362937  0.37056271  0.50411195  1
  H+  H41  1  0.82960824  0.11419341  0.32394872  1
  H+  H42  1  0.14450945  0.14212813  0.63584083  1
  H+  H43  1  -0.06042537  0.85133052  0.66498384  1
  H+  H44  1  0.70021224  0.55049205  0.34341973  1
  H+  H45  1  0.13780447  0.02928625  0.32683857  1
  H+  H46  1  0.88825739  0.05868363  0.13502925  1
  H+  H47  1  0.37649154  0.77075523  -0.01018904  1
  H+  H48  1  0.39258115  0.52805184  0.66522002  1
  H+  H49  1  0.38516030  0.01215899  0.83279628  1
  H+  H50  1  0.21997239  0.36205393  0.16482577  1
  H+  H51  1  0.40421927  0.02994689  0.50174795  1
  H+  H52  1  0.03508797  0.40279674  0.15881413  1
  H+  H53  1  0.73228493  0.37294634  0.67106929  1
  H+  H54  1  0.25136873  0.88978471  0.32902109  1
  H+  H55  1  0.15286858  0.38046580  0.65554658  1
  H+  H56  1  0.15114098  0.38510558  0.83360595  1
  H+  H57  1  0.50321297  0.40144711  0.65763951  1
  H+  H58  1  0.15374694  0.53636968  0.16661780  1
  H+  H59  1  -0.01759018  0.12618937  0.84288874  1
  H+  H60  1  0.04208159  0.53200062  0.55065309  1
  H+  H61  1  0.85768615  0.13626310  0.02561055  1
  H+  H62  1  0.36888996  0.10446189  -0.01006712  1
  H+  H63  1  0.41850474  0.57904478  0.22359276  1
  H+  H64  1  0.26483705  0.63294634  0.99681449  1
  H+  H65  1  0.52168014  0.62539194  0.16001449  1
  H+  H66  1  0.37884362  0.52557108  0.16199860  1
  H+  H67  1  0.37829839  0.72493906  0.83449817  1
  H+  H68  1  0.11509864  0.47133331  0.33331377  1
  H+  H69  1  0.35660275  0.13973294  0.15259049  1
  H+  H70  1  0.73776489  0.63063502  1.00092724  1
  H+  H71  1  0.87605637  0.58968822  0.32136302  1
  H+  H72  1  0.10036345  -0.03541195  0.64048171  1
  H+  H73  1  0.74658784  0.11989124  0.66909413  1
  H+  H74  1  0.78038476  0.64542856  0.49274863  1
  H+  H75  1  0.62965623  0.13714678  0.00402383  1
  H+  H76  1  0.46923414  0.33691590  0.29014790  1
  H+  H77  1  0.89042796  0.77257978  0.16750949  1
  H+  H78  1  0.54142864  0.65863717  0.33374461  1
  H+  H79  1  0.06129773  0.86174622  0.69143934  1
  H+  H80  1  0.04768127  0.90683076  0.74533568  1
  H+  H81  1  0.59131213  0.16929745  0.09595620  1
  H+  H82  1  0.14591342  0.63089068  0.66852564  1
  H+  H83  1  0.83919781  0.88849840  0.65102986  1
  H+  H84  1  0.08360016  0.70419217  0.00743903  1
  H+  H85  1  0.89097454  0.74332672  0.85128270  1
  H+  H86  1  0.11977062  0.38791746  0.48989309  1
  H+  H87  1  0.09008669  -0.04878027  0.83624060  1
  H+  H88  1  0.61109499  0.71532675  0.16067338  1
  H+  H89  1  0.67194196  0.33806374  0.26460989  1
  H+  H90  1  0.11193830  0.72363216  0.83768221  1
  H+  H91  1  0.08641301  0.67383603  0.74477544  1
  H+  H92  1  0.86241066  0.13943969  0.48614910  1
  H+  H93  1  0.68840643  0.59876683  0.23530787  1
  H+  H94  1  0.60563039  0.64948428  1.00856928  1
  H+  H95  1  0.42554476  0.86608335  0.47508201  1
  H+  H96  1  0.53461599  0.64397905  0.82958909  1
  H+  H97  1  0.38343100  0.62767707  0.83538651  1
  H+  H98  1  0.88641156  -0.01649281  0.50122911  1
  H+  H99  1  0.61853861  0.77834517  1.00544527  1
  H+  H100  1  0.65801501  0.37887898  0.16973161  1
  H+  H101  1  0.62026890  0.64128410  0.67412902  1
  H+  H102  1  0.12877537  0.51855604  0.83555895  1
  H+  H103  1  0.86109800  0.46264857  0.33621837  1
  H+  H104  1  0.67358609  0.86090239  0.48367564  1
  H+  H105  1  0.72721604  0.10322479  0.99857548  1
  H+  H106  1  0.47659639  0.09818195  0.83896907  1
  H+  H107  1  1.03533523  0.39410758  0.80996424  1
  H+  H108  1  0.46901461  0.60904647  0.99459569  1
  H+  H109  1  0.43874177  0.37173984  0.59027778  1
  H+  H110  1  0.38918573  0.11761839  0.35945066  1
  H+  H111  1  0.55270197  0.88304209  0.49760288  1
  H+  H112  1  0.19497167  0.03227197  0.62476362  1
  H+  H113  1  0.16341877  0.25460956  0.34833921  1
  H+  H114  1  0.27761130  0.38657363  0.67138165  1
  H+  H115  1  0.79981661  0.02383292  0.53472973  1
  H+  H116  1  0.86634710  0.26003068  0.01805607  1
  H+  H117  1  0.86202415  0.87516316  0.16811063  1
  H+  H118  1  0.51944376  0.87495380  0.68689071  1
  H+  H119  1  0.61337834  0.98067082  0.83096531  1
  H+  H120  1  0.77169530  0.37464435  0.33575718  1
  H+  H121  1  0.60756040  0.96546742  0.65769797  1
  H+  H122  1  -0.09478365  0.56228747  -0.05572849  1
  H+  H123  1  0.12378665  0.61005037  0.84257215  1
  H+  H124  1  0.24146163  0.12673660  0.87154162  1
  H+  H125  1  0.01967378  0.13445751  0.01657993  1
  H+  H126  1  0.86233009  0.14011506  0.81414632  1
  H+  H127  1  0.98394195  0.37108857  0.49538801  1
  H+  H128  1  0.36291262  0.87249235  0.82802041  1
  H+  H129  1  0.84898616  -0.00152419  0.30700766  1
  H+  H130  1  0.48017711  0.12124678  0.36361995  1
  H+  H131  1  0.88419176  0.61883196  0.47217383  1
  H+  H132  1  0.61397753  0.87198819  0.66099685  1
  H+  H133  1  0.48086949  0.12534038  0.15299908  1
  H+  H134  1  0.40734547  0.53059470  0.31794618  1
  H+  H135  1  0.11741672  0.60008618  0.98853088  1
  H+  H136  1  0.04494209  0.40992271  0.66558948  1
  H+  H137  1  0.86573895  0.23040734  0.81321319  1
  H+  H138  1  0.64631204  0.56222323  1.02480775  1
  H+  H139  1  0.88633692  0.59398657  0.85213035  1
  H+  H140  1  0.42958203  0.77715679  0.48637556  1
  H+  H141  1  0.97649910  0.86301967  0.17227972  1
  H+  H142  1  0.71163636  0.89503355  0.30802719  1
  H+  H143  1  -0.01780323  0.62307860  0.68279616  1
  H+  H144  1  0.21685729  0.51966976  0.46299067  1
  H+  H145  1  0.10249359  0.22145614  0.16476726  1
  H+  H146  1  0.38957487  0.79920724  0.27724214  1
  H+  H147  1  0.89939480  0.85098099  0.33313111  1
  H+  H148  1  0.42011404  0.58172382  0.90171599  1
  H+  H149  1  0.84903131  0.21882182  0.16967815  1
  H+  H150  1  0.62926307  0.12279774  0.33739251  1
  H+  H151  1  0.87609895  0.23485315  0.48232268  1
  H+  H152  1  -0.09477385  0.38447892  0.65716421  1
  H+  H153  1  0.78013860  0.63807282  0.15758187  1
  H+  H154  1  0.03040045  0.66036971  0.46672246  1
  H+  H155  1  0.30507771  0.89692606  0.48497907  1
  H+  H156  1  0.39677768  0.37504340  0.50188090  1
  H+  H157  1  0.88979118  0.80715709  0.60396148  1
  H+  H158  1  0.78181254  0.84508859  0.36719539  1
  H+  H159  1  0.20912414  0.87865044  0.68550245  1
  H+  H160  1  0.37741452  0.52236973  0.98576676  1
  H+  H161  1  0.47875937  0.37210738  0.84219343  1
  H+  H162  1  1.03263416  0.88390145  0.33674872  1
  H+  H163  1  0.63455810  0.71861244  0.49308609  1
  H+  H164  1  0.08310813  0.42203964  0.06175736  1
  H+  H165  1  0.53196048  0.14269149  0.49543817  1
  H+  H166  1  0.61749460  0.38438125  0.50039840  1
  H+  H167  1  0.86356116  0.47904920  0.69202064  1
  H+  H168  1  0.28123618  0.90372282  0.00830195  1
  H+  H169  1  0.64319492  0.28587118  0.67166014  1
  H+  H170  1  0.27396774  0.13861209  0.34018769  1
  H+  H171  1  -0.01752269  0.62170322  0.17316351  1
  H+  H172  1  0.85340843  0.95996511  0.17398033  1
  H+  H173  1  0.61439824  0.22767698  0.15513662  1
  H+  H174  1  0.86354237  0.64505113  0.69459482  1
  H+  H175  1  0.63310869  1.01772707  -0.00466151  1
  H+  H176  1  0.38424223  0.75312352  0.17122920  1
  H+  H177  1  0.64099076  0.61367478  0.17792373  1
  H+  H178  1  0.88839851  0.35537821  0.32836578  1
  H+  H179  1  0.64959922  0.28713628  0.83301943  1
  H+  H180  1  0.34339368  0.21101922  0.00374426  1
  H+  H181  1  0.65745751  0.79037718  0.83581674  1
  H+  H182  1  0.39275696  0.52351116  0.83872063  1
  H+  H183  1  0.82182522  0.38632371  0.86177667  1
  H+  H184  1  0.11541810  0.87772242  1.01875327  1
  H+  H185  1  0.93411044  0.35828987  0.59532341  1
  H+  H186  1  0.61385461  0.72692335  0.67142394  1
  H+  H187  1  0.14878781  0.36685885  0.32781599  1
  H+  H188  1  0.11771761  0.50957658  0.98884152  1
  H+  H189  1  -0.03183788  0.59444712  0.32000118  1
  H+  H190  1  0.90051152  0.37277002  0.82530220  1
  H+  H191  1  0.35637260  -0.01104730  0.15312009  1
  H+  H192  1  0.11933607  0.89288343  0.17136054  1
  H+  H193  1  0.85873315  0.63415585  0.00702896  1
  H+  H194  1  0.25269754  0.12142523  1.00420986  1
  H+  H195  1  0.00223610  0.16191469  0.68031561  1
  H+  H196  1  0.37847787  0.39182130  0.33094133  1
  H+  H197  1  0.72457447  0.36446467  0.99297478  1
  H+  H198  1  0.76617243  0.61430540  0.84532579  1
  H+  H199  1  0.58988255  0.44341832  -0.00184556  1
  H+  H200  1  0.88645611  0.90036751  1.01587605  1
  H+  H201  1  0.83242879  0.88382077  0.50417233  1
  H+  H202  1  0.36426673  0.26950745  0.15602792  1
  H+  H203  1  0.39941273  0.61441136  0.31661777  1
  H+  H204  1  0.38105071  0.86343868  0.98971958  1
  H+  H205  1  0.86678418  0.11861777  0.65830411  1
  H+  H206  1  0.00848574  0.12035425  0.34411801  1
  H+  H207  1  0.71714996  0.11584928  0.33225834  1
  H+  H208  1  0.36771107  0.63583577  0.67960190  1
  H+  H209  1  0.12297525  1.00995228  0.00526937  1
  H+  H210  1  0.65190397  0.12852265  0.50684001  1
  H+  H211  1  0.10890705  0.73458423  0.68576784  1
  H+  H212  1  0.51318394  0.90482590  0.31788637  1
  H+  H213  1  0.14608938  0.78362840  0.18408695  1
  H+  H214  1  0.54254607  0.63903441  0.50016767  1
  H+  H215  1  0.10368582  0.51374284  0.51203197  1
  H+  H216  1  0.43162311  0.65154789  0.51975745  1
  H+  H217  1  0.62866793  0.22564690  1.00133485  1
  H+  H218  1  0.22094826  0.11583181  0.17319300  1
  H+  H219  1  0.10767081  0.64847806  0.48362581  1
  H+  H220  1  0.12345611  0.64783031  0.16405915  1
  H+  H221  1  0.22736643  0.85584066  0.84490426  1
  H+  H222  1  0.39471539  0.77201238  0.69867964  1
  H+  H223  1  0.28026539  0.64129698  0.68012117  1
  H+  H224  1  0.09929757  0.10918729  0.62755769  1
  H+  H225  1  0.34041619  0.19655317  0.65363522  1
  H+  H226  1  1.01038171  0.38681781  1.01163324  1
  H+  H227  1  0.77868540  0.89637698  0.80141493  1
  H+  H228  1  0.86642962  0.50876389  1.00713346  1
  H+  H229  1  0.19183506  0.37255039  0.89515236  1
  H+  H230  1  0.73483358  0.37679417  0.82283259  1
  H+  H231  1  0.63644364  0.15935854  0.70452283  1
  H+  H232  1  0.21244596  0.33858349  0.50947572  1
  H+  H233  1  0.32222590  0.89184710  0.64332270  1
  H+  H234  1  0.60637462  0.36705081  0.00583994  1
  H+  H235  1  0.49310863  0.11419909  0.66735072  1
  H+  H236  1  0.64835310  0.60763117  0.50928810  1
  H+  H237  1  0.85908548  0.47134621  0.47784674  1
  H+  H238  1  0.61795249  0.23649241  0.34352199  1
  H+  H239  1  0.40385320  0.50820562  0.49336556  1
  H+  H240  1  0.32652670  0.91853374  0.10205698  1
  H+  H241  1  0.84137190  0.37502620  1.03358471  1
  H+  H242  1  0.89137227  0.02351341  1.01613689  1
  H+  H243  1  0.85704714  0.91622447  0.40525959  1
  H+  H244  1  0.89960521  0.51178303  0.84849165  1
  H+  H245  1  0.48344136  0.61669133  0.66924805  1
  H+  H246  1  0.39709674  0.28088710  0.83602183  1
  H+  H247  1  0.11953795  0.09909661  1.00396867  1
  H+  H248  1  0.64786032  0.37331562  0.32496953  1
  H+  H249  1  0.74307050  0.13209812  0.50479440  1
  H+  H250  1  0.61533332  0.39215176  0.67811726  1
  H+  H251  1  0.13796935  0.85753598  0.84441584  1
  H+  H252  1  0.88814619  0.26710367  0.31972394  1
  H+  H253  1  0.47580957  0.85646822  0.84218226  1
  H+  H254  1  0.15661645  0.79166031  0.48506297  1
  H+  H255  1  0.10892700  0.12027809  0.48457231  1
  H+  H256  1  0.36196584  0.43216042  0.39107929  1
  H+  H257  1  0.58762885  0.06218406  0.63169462  1
  H+  H258  1  0.34594295  0.38248904  0.14396610  1
  H+  H259  1  0.24378448  0.37788610  0.32341027  1
  H+  H260  1  0.64332122  0.53025807  0.66509973  1
  H+  H261  1  0.61406160  0.39724097  0.82433827  1
  H+  H262  1  0.71664977  0.08780963  0.17957779  1
  H+  H263  1  0.87529299  0.03365102  0.65589980  1
  H+  H264  1  0.40512832  0.70346195  0.50736791  1
  H+  H265  1  0.37110155  0.98710536  0.00346825  1
  H+  H266  1  0.89258512  0.36639533  0.49643741  1
  H+  H267  1  0.36876628  0.13999459  0.49393365  1
  H+  H268  1  0.71862514  0.84504193  0.17160131  1
  H+  H269  1  0.79378527  0.40104359  0.08403308  1
  H+  H270  1  0.22378464  0.60542787  0.31966037  1
  H+  H271  1  0.63918023  0.48560409  0.16321709  1
  H+  H272  1  0.87366609  0.73274553  0.48324597  1
  H+  H273  1  0.37425334  -0.00992660  0.35144257  1
  H+  H274  1  0.83678626  0.41003765  0.74411130  1
  H+  H275  1  0.62745015  0.86819233  0.00381658  1
  H+  H276  1  0.63501476  0.79795903  0.32674930  1
  H+  H277  1  0.45925799  0.33609897  1.00041243  1
  H+  H278  1  0.73157479  0.61802015  0.67062562  1
  H+  H279  1  0.56663310  0.44097474  0.34863220  1
  H+  H280  1  0.13389593  0.28620009  0.66457657  1
  H+  H281  1  0.38221652  0.26618842  0.32024304  1
  H+  H282  1  0.95308231  0.88417227  0.49806860  1
  H+  H283  1  0.02080363  0.63247980  0.83808553  1
  H+  H284  1  0.73067438  0.36354837  0.51072871  1
  H+  H285  1  0.58232522  -0.04107738  0.17132625  1
  H+  H286  1  0.60293618  0.90247682  0.32865984  1
  H+  H287  1  0.08552894  0.86424733  0.49279339  1
  H+  H288  1  0.16675434  0.82075406  0.93613733  1
  H+  H289  1  0.18959017  0.84516635  0.54528052  1
  H+  H290  1  0.34345484  0.65956131  0.77382477  1
  H+  H291  1  0.67835605  0.34739794  0.92692472  1
  H+  H292  1  0.44336134  0.86477324  0.58466481  1
  H+  H293  1  0.67561892  0.33940353  0.57319993  1
  H+  H294  1  0.81828798  0.65680942  0.39085494  1
  H+  H295  1  0.17003119  0.33650586  0.22844408  1
  H+  H296  1  0.28226594  0.39673253  0.82331880  1
  H+  H297  1  0.10472197  0.03935449  0.91516243  1
  H+  H298  1  0.08723172  0.67292327  0.10692120  1
  H+  H299  1  0.84778250  0.72498944  0.69089542  1
  H+  H300  1  0.65874128  0.58305815  0.91009565  1
  H+  H301  1  0.89893139  0.08367610  0.95868116  1
  H+  H302  1  0.88462943  0.07683802  0.57275414  1
  H+  H303  1  0.81890324  0.16206849  0.08255058  1
  H+  H304  1  0.60794895  0.43064560  0.40891400  1
  H+  H305  1  0.07221509  0.17126974  0.72795885  1
  H+  H306  1  0.65509325  0.06931782  0.23598678  1
  H+  H307  1  0.41290877  0.82492377  0.90113393  1
  H+  H308  1  0.44245368  0.59932006  0.57638675  1
  H+  H309  1  0.16372539  0.59827099  0.60616721  1
  H+  H310  1  0.92421892  0.81916784  0.90007072  1
  H+  H311  1  0.58684607  0.17883248  0.75391592  1
  H+  H312  1  0.33796410  0.41652376  0.73254113  1
  H+  H313  1  0.42534175  0.09027011  0.21623972  1
  H+  H314  1  0.12549040  0.18460729  0.41418975  1
  H+  H315  1  0.43229753  0.08473534  0.26361840  1
  H+  H316  1  0.36375707  0.92750075  0.42800892  1
  H+  H317  1  0.11549166  0.98022805  0.16670033  1
  H+  H318  1  0.91318217  0.57629240  0.22496448  1
  H+  H319  1  0.51054431  0.88986761  1.00745142  1
  H+  H320  1  0.60254484  0.42009634  0.10581347  1
  H+  H321  1  0.89682049  0.76203417  0.32603162  1
  H+  H322  1  0.35465630  0.63743097  -0.00188107  1
  H+  H323  1  0.08314554  0.66619151  0.37852100  1
  H+  H324  1  0.91888427  0.59356673  0.52746009  1
  H+  H325  1  0.66114802  0.07222822  0.58581361  1
  H+  H326  1  0.94446125  0.33465407  0.87364407  1
  H+  H327  1  0.38993782  0.32914032  0.21344033  1
  H+  H328  1  0.09609247  0.42009646  0.42647746  1
  H+  H329  1  0.10445945  0.43564587  0.75603264  1
  H+  H330  1  0.59779788  0.18413205  0.40769918  1
  H+  H331  1  0.58147316  0.42349477  0.73639618  1
  H+  H332  1  0.30708366  0.15239930  0.80230589  1
  H+  H333  1  0.91643405  0.59130781  0.62839478  1
  H+  H334  1  0.15509232  0.89104103  0.63506948  1
  H+  H335  1  0.36191234  0.70980465  0.36157685  1
  H+  H336  1  0.67605420  0.07962813  0.90384668  1
  H+  H337  1  0.82432458  0.64728249  0.78596770  1
  H+  H338  1  0.59578476  0.68318231  0.39450098  1
  H+  H339  1  0.86117549  0.13170851  0.16654026  1
  H+  H340  1  0.85052984  0.04469454  0.24505350  1
  H+  H341  1  0.86866920  0.63540299  0.15594603  1
  H+  H342  1  0.16613203  0.57658748  0.25989768  1
  H+  H343  1  0.37280244  0.90513502  0.32144612  1
  H+  H344  1  0.59356149  0.67128987  0.77070222  1
  H+  H345  1  0.08670891  0.91904245  0.39577725  1
  H+  H346  1  0.37499015  0.98456716  0.67161206  1
  H+  H347  1  0.81759304  0.92124945  0.71256539  1
  H+  H348  1  0.87509222  0.31968822  0.96230625  1
  H+  H349  1  0.01907089  0.85511755  0.83122793  1
  H+  H350  1  0.37634939  0.66184758  0.18076582  1
  H+  H351  1  0.18296045  0.85263062  0.26617286  1
  H+  H352  1  0.62682203  0.13795199  0.84906876  1
  H+  H353  1  0.55826648  0.91806917  0.07114595  1
  H+  H354  1  0.56918666  0.65749819  0.07259077  1
  H+  H355  1  0.82458064  0.40006190  0.42737306  1
  H+  H356  1  0.00060950  0.61288237  0.01449066  1
  H+  H357  1  0.14502000  0.03196104  0.53228483  1
  H+  H358  1  0.30941865  0.41202116  0.08805625  1
  H+  H359  1  0.22110677  0.10166553  0.49238133  1
  H+  H360  1  0.64832350  0.83059480  0.59137886  1
  H+  H361  1  0.36421229  0.22634796  0.49805113  1
  H+  H362  1  1.01068423  0.13348440  0.16467391  1
  H+  H363  1  0.80966776  0.15914898  0.72603517  1
  H+  H364  1  0.33064168  0.90114899  0.76942114  1
  H+  H365  1  0.93291960  0.42681760  0.19205156  1
  H+  H366  1  0.83680082  0.66959397  0.06723346  1
  H+  H367  1  0.40774911  0.32254067  0.93926236  1
  H+  H368  1  0.92652622  0.35482663  0.23630497  1
  H+  H369  1  0.15922071  0.32568446  0.56921723  1
  H+  H370  1  0.31430192  0.15686336  0.09467797  1
  H+  H371  1  0.31293839  0.61698114  0.39060113  1
  H+  H372  1  0.38091630  0.19665467  0.71753697  1
  H+  H373  1  0.08521520  0.90885495  0.07730775  1
  H+  H374  1  0.44191326  0.87641379  0.23242556  1
  H+  H375  1  0.89533777  0.04941088  0.86664934  1
  H+  H376  1  0.68137865  0.58527197  0.57066614  1
  H+  H377  1  0.85207218  0.92036861  0.07918746  1
  H+  H378  1  0.40009621  0.82497760  0.58197623  1
  H+  H379  1  0.64727600  0.82406378  0.22174823  1
  H+  H380  1  0.58824165  0.92241978  0.77195906  1
  H+  H381  1  0.11990816  0.24796893  0.85521301  1
  H+  H382  1  0.14669380  0.57044806  0.90854694  1
  H+  H383  1  0.40035589  0.07719854  0.93043010  1
  O2-  O384  1  0.07349069  0.15995738  0.15268022  1
  O2-  O385  1  0.08364196  0.15552850  0.46780542  1
  O2-  O386  1  0.08422689  0.18597821  0.86689692  1
  O2-  O387  1  0.09381996  0.42855753  0.14188476  1
  O2-  O388  1  0.10563256  0.43053103  0.47201986  1
  O2-  O389  1  0.09884535  0.43237984  0.80196817  1
  O2-  O390  1  0.09430703  0.68040797  0.15153724  1
  O2-  O391  1  0.09357549  0.68762738  0.46149399  1
  O2-  O392  1  0.08132145  0.66356900  0.82065699  1
  O2-  O393  1  0.08791547  0.91942789  0.15214082  1
  O2-  O394  1  0.03828345  0.85872456  0.46664089  1
  O2-  O395  1  0.07976304  0.89696894  0.81512254  1
  O2-  O396  1  0.31821140  0.16280590  0.14024255  1
  O2-  O397  1  0.33551135  0.16801319  0.48055390  1
  O2-  O398  1  0.36853575  0.18096835  0.79351078  1
  O2-  O399  1  0.31624484  0.41626351  0.13248996  1
  O2-  O400  1  0.36066771  0.45327924  0.47334562  1
  O2-  O401  1  0.34307435  0.42418803  0.80807259  1
  O2-  O402  1  0.34843256  0.69612659  0.19006735  1
  O2-  O403  1  0.27913604  0.55397135  0.45413886  1
  O2-  O404  1  0.35066519  0.66207146  0.81965372  1
  O2-  O405  1  0.31835374  0.92617296  0.14556102  1
  O2-  O406  1  0.36647849  0.92733361  0.47329044  1
  O2-  O407  1  0.33239215  0.90360666  0.81401550  1
  O2-  O408  1  0.57953101  0.16847103  0.14053364  1
  O2-  O409  1  0.59373458  0.17474683  0.48265475  1
  O2-  O410  1  0.59354991  0.17098528  0.84420356  1
  O2-  O411  1  0.61739294  0.42543829  0.14943084  1
  O2-  O412  1  0.58922955  0.41638314  0.48394221  1
  O2-  O413  1  0.58056215  0.42516686  0.81203739  1
  O2-  O414  1  0.58296986  0.65262960  0.14667287  1
  O2-  O415  1  0.59982842  0.65939514  0.47940552  1
  O2-  O416  1  0.59510852  0.67201502  0.81595149  1
  O2-  O417  1  0.54156550  0.90032668  0.15255391  1
  O2-  O418  1  0.61035284  0.90794948  0.52010771  1
  O2-  O419  1  0.58082802  0.91993836  0.81615708  1
  O2-  O420  1  0.82180894  0.16038744  0.15406405  1
  O2-  O421  1  0.84160256  0.17518175  0.46619574  1
  O2-  O422  1  0.82762263  0.16774438  0.80450351  1
  O2-  O423  1  0.77125298  0.38192112  0.16555574  1
  O2-  O424  1  0.82915421  0.40815104  0.47310153  1
  O2-  O425  1  0.85190219  0.41331016  0.82414138  1
  O2-  O426  1  0.83877782  0.66642920  0.13959193  1
  O2-  O427  1  0.83431046  0.67403923  0.46779820  1
  O2-  O428  1  0.82575444  0.63586137  0.83007337  1
  O2-  O429  1  0.82638882  0.90260960  0.15510081  1
  O2-  O430  1  0.88397972  0.92972657  0.48514690  1
  O2-  O431  1  0.83370183  0.92176123  0.77639011  1
  O2-  O432  1  0.16240399  0.08517787  0.19281727  1
  O2-  O433  1  0.15772142  0.06554398  0.49466663  1
  O2-  O434  1  0.07788235  0.02323385  0.87376387  1
  O2-  O435  1  0.16104053  0.33294107  0.18396013  1
  O2-  O436  1  0.15418581  0.32031081  0.52316836  1
  O2-  O437  1  0.18245884  0.35712065  0.85138652  1
  O2-  O438  1  0.17581760  0.59364831  0.18631320  1
  O2-  O439  1  0.10042460  0.56016474  0.53447781  1
  O2-  O440  1  0.15117593  0.57579130  0.85854804  1
  O2-  O441  1  0.17479853  0.84379775  0.19988592  1
  O2-  O442  1  0.18818169  0.85185082  0.50144802  1
  O2-  O443  1  0.16775427  0.82660072  0.86133698  1
  O2-  O444  1  0.41869162  0.09578407  0.16900412  1
  O2-  O445  1  0.42712367  0.08919249  0.51907528  1
  O2-  O446  1  0.41413871  0.07452782  0.84329789  1
  O2-  O447  1  0.39010066  0.33091420  0.16893515  1
  O2-  O448  1  0.42384695  0.34506351  0.52144916  1
  O2-  O449  1  0.41712837  0.33787367  0.85457493  1
  O2-  O450  1  0.41526520  0.58438530  0.17868756  1
  O2-  O451  1  0.45040917  0.60670804  0.53112919  1
  O2-  O452  1  0.42224199  0.58423637  0.85479042  1
  O2-  O453  1  0.45707340  0.87918566  0.16649965  1
  O2-  O454  1  0.46023942  0.83831473  0.46737534  1
  O2-  O455  1  0.41431466  0.82039324  0.85470883  1
  O2-  O456  1  0.66025062  0.04562928  0.19715332  1
  O2-  O457  1  0.68503173  0.10229433  0.52360034  1
  O2-  O458  1  0.67150776  0.08461286  0.85786419  1
  O2-  O459  1  0.68162359  0.33865153  0.18688847  1
  O2-  O460  1  0.67128737  0.33638048  0.52800966  1
  O2-  O461  1  0.67587004  0.34968960  0.84010683  1
  O2-  O462  1  0.67810975  0.58907185  0.19143265  1
  O2-  O463  1  0.68186115  0.58090140  0.52525762  1
  O2-  O464  1  0.66079935  0.57986704  0.86514934  1
  O2-  O465  1  0.65572449  0.81165590  0.17973753  1
  O2-  O466  1  0.62887049  0.83699119  0.51485596  1
  O2-  O467  1  0.69221636  0.85337710  0.83833943  1
  O2-  O468  1  0.90354897  0.08516032  0.17526846  1
  O2-  O469  1  0.86210917  0.05594719  0.52967083  1
  O2-  O470  1  0.91999932  0.08810164  0.83217070  1
  O2-  O471  1  0.92619797  0.36949958  0.19213146  1
  O2-  O472  1  0.92539986  0.33877636  0.51208068  1
  O2-  O473  1  0.93471551  0.33649645  0.83023402  1
  O2-  O474  1  0.91980952  0.58672837  0.18054434  1
  O2-  O475  1  0.91797793  0.58966922  0.48336519  1
  O2-  O476  1  0.92459065  0.57181941  0.86664868  1
  O2-  O477  1  0.91525270  0.83152081  0.18419458  1
  O2-  O478  1  0.96684492  0.83863074  0.50897852  1
  O2-  O479  1  0.92690172  0.80620447  0.85647972  1
  O2-  O480  1  0.17095412  0.09010024  0.31236717  1
  O2-  O481  1  0.14576270  -0.01950347  0.60876367  1
  O2-  O482  1  0.14693084  0.06698736  0.98513983  1
  O2-  O483  1  0.18216688  0.33960753  0.31269707  1
  O2-  O484  1  0.17547611  0.34148027  0.64344803  1
  O2-  O485  1  0.21672611  0.38352563  0.97697759  1
  O2-  O486  1  0.16353796  0.57122443  0.30576171  1
  O2-  O487  1  0.17801388  0.60457621  0.65002476  1
  O2-  O488  1  0.14703583  0.57088874  0.97004130  1
  O2-  O489  1  0.18773935  0.86047609  0.31388323  1
  O2-  O490  1  0.15466633  0.84723932  0.66320632  1
  O2-  O491  1  0.16502778  0.81443000  0.98197897  1
  O2-  O492  1  0.41767712  0.08503225  0.37220751  1
  O2-  O493  1  0.43567630  0.08458036  0.64813726  1
  O2-  O494  1  0.40245850  0.07742578  0.97495518  1
  O2-  O495  1  0.41136845  0.32452111  0.29978224  1
  O2-  O496  1  0.45068138  0.39604862  0.63361871  1
  O2-  O497  1  0.40108002  0.31217268  0.98346678  1
  O2-  O498  1  0.43504762  0.59033663  0.30180511  1
  O2-  O499  1  0.42349530  0.58931486  0.65218361  1
  O2-  O500  1  0.41256446  0.58225682  0.97161404  1
  O2-  O501  1  0.42462837  0.86180379  0.27918115  1
  O2-  O502  1  0.43213087  0.83516499  0.70614204  1
  O2-  O503  1  0.40862899  0.83120303  0.97316434  1
  O2-  O504  1  0.65438431  0.08709723  0.32085572  1
  O2-  O505  1  0.63775892  0.05481049  0.63098664  1
  O2-  O506  1  0.67174736  0.07542564  0.97583165  1
  O2-  O507  1  0.66956101  0.33559968  0.31016772  1
  O2-  O508  1  0.67185450  0.34444725  0.65450014  1
  O2-  O509  1  0.66834493  0.33464724  0.97078174  1
  O2-  O510  1  0.72976133  0.60983134  0.32657582  1
  O2-  O511  1  0.67440779  0.59016884  0.64934432  1
  O2-  O512  1  0.67357956  0.60021746  0.99033581  1
  O2-  O513  1  0.64983615  0.85436583  0.30647937  1
  O2-  O514  1  0.65394366  0.83070553  0.63653074  1
  O2-  O515  1  0.65458136  0.83604519  0.98858993  1
  O2-  O516  1  0.82128090  0.02592395  0.28569272  1
  O2-  O517  1  0.90499968  0.09532303  0.64352546  1
  O2-  O518  1  0.90977012  0.08696498  1.00201676  1
  O2-  O519  1  0.92255229  0.33006734  0.31092675  1
  O2-  O520  1  0.95217819  0.38084306  0.63687050  1
  O2-  O521  1  0.89176311  0.32332165  1.00472338  1
  O2-  O522  1  0.90554031  0.55910033  0.30712007  1
  O2-  O523  1  0.91877112  0.59206406  0.67255012  1
  O2-  O524  1  0.90061289  0.56732158  0.98932016  1
  O2-  O525  1  0.93517449  0.82455992  0.32608301  1
  O2-  O526  1  0.88095284  0.81663204  0.64637908  1
  O2-  O527  1  0.92274139  0.83649758  0.97981805  1
  O2-  O528  1  0.08122611  0.15841723  0.02671041  1
  O2-  O529  1  0.16482583  0.20703178  0.37260165  1
  O2-  O530  1  0.05499319  0.20428668  0.70253140  1
  O2-  O531  1  0.07314845  0.42065605  0.01711272  1
  O2-  O532  1  0.08843489  0.41233053  0.35226762  1
  O2-  O533  1  0.10564550  0.43523975  0.68178218  1
  O2-  O534  1  0.06392075  0.64646882  0.02425507  1
  O2-  O535  1  0.06883693  0.64856429  0.33575883  1
  O2-  O536  1  0.08499021  0.67433049  0.69888246  1
  O2-  O537  1  0.08338763  0.90596612  0.03147418  1
  O2-  O538  1  0.09431371  0.92450460  0.35122296  1
  O2-  O539  1  0.03553037  0.89784222  0.69999120  1
  O2-  O540  1  0.31350462  0.14989846  0.01885923  1
  O2-  O541  1  0.33380222  0.17434977  0.35591869  1
  O2-  O542  1  0.39172308  0.20177262  0.67258871  1
  O2-  O543  1  0.29148180  0.40916463  -0.00107564  1
  O2-  O544  1  0.35303144  0.42634478  0.34651269  1
  O2-  O545  1  0.33872658  0.41835686  0.68653463  1
  O2-  O546  1  0.32459737  0.66842779  0.01040740  1
  O2-  O547  1  0.33022702  0.64900179  0.35115483  1
  O2-  O548  1  0.33773578  0.66391335  0.69964969  1
  O2-  O549  1  0.34124122  0.92504895  0.01944980  1
  O2-  O550  1  0.34171064  0.92418153  0.34934444  1
  O2-  O551  1  0.33769300  0.92151498  0.68246449  1
  O2-  O552  1  0.60273447  0.16917065  0.02095562  1
  O2-  O553  1  0.59028432  0.17815712  0.36230295  1
  O2-  O554  1  0.59414022  0.17785876  0.70965159  1
  O2-  O555  1  0.57499535  0.39457331  0.02462935  1
  O2-  O556  1  0.61821125  0.44249318  0.36389480  1
  O2-  O557  1  0.58400880  0.42307891  0.69045219  1
  O2-  O558  1  0.56219194  0.66037049  0.02716844  1
  O2-  O559  1  0.59834580  0.69927399  0.35147324  1
  O2-  O560  1  0.58758450  0.66892368  0.69000872  1
  O2-  O561  1  0.56789481  0.92492564  0.02661133  1
  O2-  O562  1  0.56985864  0.93296213  0.34109045  1
  O2-  O563  1  0.58719290  0.90885528  0.68117011  1
  O2-  O564  1  0.82323452  0.16445594  0.03609276  1
  O2-  O565  1  0.82177405  0.16061568  0.34298008  1
  O2-  O566  1  0.80691108  0.15587980  0.68084396  1
  O2-  O567  1  0.80996021  0.40715886  0.04041548  1
  O2-  O568  1  0.83129850  0.40179424  0.35268127  1
  O2-  O569  1  0.83291858  0.41627067  0.69937728  1
  O2-  O570  1  0.83426552  0.67024549  0.02091933  1
  O2-  O571  1  0.81975772  0.64600960  0.34618171  1
  O2-  O572  1  0.82522704  0.66662745  0.70867123  1
  O2-  O573  1  0.87375278  0.94135573  0.03737236  1
  O2-  O574  1  0.83629535  0.89848688  0.36291370  1
  O2-  O575  1  0.81186523  0.92193238  0.66437820  1
