# generated using pymatgen
data_H2O
_symmetry_space_group_name_H-M   'P 1'
_cell_length_a   17.98755518
_cell_length_b   17.98702911
_cell_length_c   21.99122641
_cell_angle_alpha   90.01211498
_cell_angle_beta   89.98697399
_cell_angle_gamma   120.00039891
_symmetry_Int_Tables_number   1
_chemical_formula_structural   H2O
_chemical_formula_sum   'H384 O192'
_cell_volume   6161.83264541
_cell_formula_units_Z   192
loop_
 _symmetry_equiv_pos_site_id
 _symmetry_equiv_pos_as_xyz
  1  'x, y, z'
loop_
 _atom_type_symbol
 _atom_type_oxidation_number
  H+  1.0
  O2-  -2.0
loop_
 _atom_site_type_symbol
 _atom_site_label
 _atom_site_symmetry_multiplicity
 _atom_site_fract_x
 _atom_site_fract_y
 _atom_site_fract_z
 _atom_site_occupancy
  H+  H0  1  0.63319518  -0.00971682  0.33097005  1
  H+  H1  1  0.12104049  0.38174355  0.83837149  1
  H+  H2  1  0.38658884  0.61674911  0.83714758  1
  H+  H3  1  0.92681825  0.03589943  0.97025316  1
  H+  H4  1  1.02312610  0.39562801  0.15684719  1
  H+  H5  1  0.57691386  0.65266011  -0.07476251  1
  H+  H6  1  0.13605516  0.77294042  0.50470191  1
  H+  H7  1  0.71741332  0.86603699  0.84757227  1
  H+  H8  1  0.88964833  0.64971955  0.34859242  1
  H+  H9  1  0.88023525  0.00862520  0.32991479  1
  H+  H10  1  0.98719117  0.60941827  0.32594904  1
  H+  H11  1  0.76884927  0.87797599  0.66785261  1
  H+  H12  1  0.63562927  0.02662351  0.65696315  1
  H+  H13  1  0.11438021  0.89412964  0.82994057  1
  H+  H14  1  0.36880992  0.12973919  0.84707008  1
  H+  H15  1  -0.02693415  0.61954964  -0.00784657  1
  H+  H16  1  0.11121126  0.13704839  0.82657879  1
  H+  H17  1  0.63528847  0.36748325  0.64565917  1
  H+  H18  1  0.01239722  0.63433316  0.84368973  1
  H+  H19  1  0.37992025  0.86619192  0.66384010  1
  H+  H20  1  0.65094587  0.73388603  0.36125084  1
  H+  H21  1  0.35989861  -0.02200949  0.67573056  1
  H+  H22  1  0.61004466  0.72477534  0.82881208  1
  H+  H23  1  0.21705376  0.53702097  0.30191040  1
  H+  H24  1  0.61298336  0.39329962  0.34256288  1
  H+  H25  1  0.38913309  0.11706094  0.17016002  1
  H+  H26  1  0.38396635  0.52028663  0.16821501  1
  H+  H27  1  0.38589712  0.36151476  0.54843171  1
  H+  H28  1  0.72440371  0.36026101  -0.00311220  1
  H+  H29  1  0.77065267  0.62054553  0.49943960  1
  H+  H30  1  0.85270532  0.86909112  0.16171587  1
  H+  H31  1  0.60922063  0.47342447  0.81587399  1
  H+  H32  1  0.77316002  0.88212062  0.33874578  1
  H+  H33  1  0.64731992  0.83205414  0.89848939  1
  H+  H34  1  0.85376958  0.38481436  0.82617101  1
  H+  H35  1  0.37294664  0.89041693  0.15581432  1
  H+  H36  1  0.11043345  0.47681535  0.99960669  1
  H+  H37  1  0.63108368  0.01390018  0.99790694  1
  H+  H38  1  0.65618881  0.60576973  0.49732762  1
  H+  H39  1  0.96696267  0.84717370  0.17813844  1
  H+  H40  1  0.48586558  0.61966143  0.50495288  1
  H+  H41  1  0.73883299  0.12882404  0.32377235  1
  H+  H42  1  0.27320447  0.12661431  0.13499453  1
  H+  H43  1  0.01612835  0.14155610  0.34156635  1
  H+  H44  1  0.28558003  0.14587157  0.35943291  1
  H+  H45  1  0.46032659  0.84818403  0.51498861  1
  H+  H46  1  0.87745190  0.52121529  0.84098964  1
  H+  H47  1  0.13541978  0.60007511  0.83326976  1
  H+  H48  1  0.87707782  0.27158268  0.83752747  1
  H+  H49  1  0.63956160  0.27925868  0.64541594  1
  H+  H50  1  0.27504702  0.63901487  0.82890865  1
  H+  H51  1  0.64583087  0.12202361  0.32598303  1
  H+  H52  1  0.02823428  0.15101866  0.49677908  1
  H+  H53  1  0.26908766  0.87150997  0.33243626  1
  H+  H54  1  0.61261018  0.76377995  -0.01840828  1
  H+  H55  1  0.60077454  0.88251200  0.82732162  1
  H+  H56  1  0.71374838  0.35623388  0.83922273  1
  H+  H57  1  0.38593253  0.61111770  0.16554184  1
  H+  H58  1  0.62124359  0.10328420  0.85118167  1
  H+  H59  1  0.51542058  0.62553590  0.16550245  1
  H+  H60  1  0.12970428  0.52088024  0.51356315  1
  H+  H61  1  0.48050137  0.36778282  0.83601197  1
  H+  H62  1  0.34854167  -0.01185755  0.34104825  1
  H+  H63  1  0.37058296  0.39462889  0.82526334  1
  H+  H64  1  0.23581904  0.36311725  0.84396764  1
  H+  H65  1  0.11281878  0.13677782  0.67358016  1
  H+  H66  1  0.12728374  0.72889343  0.15734535  1
  H+  H67  1  0.09342310  0.46930091  0.34020394  1
  H+  H68  1  0.12356452  0.23229848  0.01507539  1
  H+  H69  1  0.88764546  0.28762937  0.17345055  1
  H+  H70  1  0.13513683  0.04393376  0.35547929  1
  H+  H71  1  0.86390438  0.08719542  0.32590175  1
  H+  H72  1  0.49149823  0.87264491  0.32417864  1
  H+  H73  1  0.84926432  0.39474509  0.33767408  1
  H+  H74  1  0.61718392  0.14250328  0.49152753  1
  H+  H75  1  0.71990959  0.59943151  0.65077832  1
  H+  H76  1  0.14644406  0.27327951  0.84425535  1
  H+  H77  1  0.64671959  0.86479780  0.32498122  1
  H+  H78  1  0.58249987  0.15632645  0.10663431  1
  H+  H79  1  0.16449779  0.33597607  0.56782873  1
  H+  H80  1  0.27940625  0.38669963  1.00993861  1
  H+  H81  1  0.85041652  0.22542570  0.47708502  1
  H+  H82  1  0.11093443  0.63564937  0.49861650  1
  H+  H83  1  0.38686414  0.11218806  0.51278322  1
  H+  H84  1  0.18264883  0.00508875  0.07330882  1
  H+  H85  1  0.86420903  0.27982584  0.32860527  1
  H+  H86  1  0.47428483  0.61385033  0.84110372  1
  H+  H87  1  0.38827526  0.27561010  -0.01236887  1
  H+  H88  1  0.85938460  0.63798284  0.82378020  1
  H+  H89  1  0.64026156  0.87391243  0.65425562  1
  H+  H90  1  0.85410420  0.14013653  0.82769928  1
  H+  H91  1  0.98217444  0.62067858  0.17496029  1
  H+  H92  1  0.71742769  0.11700320  0.16809456  1
  H+  H93  1  0.85535315  0.67312677  0.40971735  1
  H+  H94  1  0.36858988  -0.02239106  0.15212991  1
  H+  H95  1  0.62602140  0.85915194  0.49766283  1
  H+  H96  1  0.22087672  0.60700421  0.50822119  1
  H+  H97  1  0.11747581  -0.02104240  0.50306592  1
  H+  H98  1  0.09538085  0.66225723  0.40155890  1
  H+  H99  1  0.15305593  0.85761317  0.18057449  1
  H+  H100  1  0.96970597  0.35708390  0.83939118  1
  H+  H101  1  0.89348091  0.77133015  0.33429036  1
  H+  H102  1  0.67367312  0.56977776  0.92889505  1
  H+  H103  1  0.46512616  0.37632292  0.17491145  1
  H+  H104  1  0.48438639  0.36480050  0.32880289  1
  H+  H105  1  0.22598179  0.35855457  0.66050063  1
  H+  H106  1  0.53516275  0.13452298  0.01147405  1
  H+  H107  1  0.34407375  0.40050014  0.46125598  1
  H+  H108  1  0.12988803  0.28071565  0.16201086  1
  H+  H109  1  0.36021171  0.38313311  0.66812546  1
  H+  H110  1  0.85498352  0.71631729  0.16299453  1
  H+  H111  1  0.58595767  0.87694492  0.00799892  1
  H+  H112  1  0.95657174  0.19036123  0.55167011  1
  H+  H113  1  0.19479883  0.12928511  0.10114247  1
  H+  H114  1  0.60811470  0.22872250  0.34196978  1
  H+  H115  1  0.10146274  0.73354176  0.67608817  1
  H+  H116  1  0.18223071  0.36653314  0.38327552  1
  H+  H117  1  0.85900744  -0.03815515  0.67574806  1
  H+  H118  1  0.57788416  0.92349830  0.73319182  1
  H+  H119  1  0.51969995  0.89451555  0.67390065  1
  H+  H120  1  0.96660141  0.36326771  0.50179375  1
  H+  H121  1  0.91105647  0.08118387  0.60799879  1
  H+  H122  1  0.38292944  0.36945883  -0.00720863  1
  H+  H123  1  0.62877092  0.76248309  0.17613854  1
  H+  H124  1  0.65787005  0.32625944  0.94180697  1
  H+  H125  1  0.63309795  0.51906370  0.33898921  1
  H+  H126  1  0.84572258  0.37217270  0.15523850  1
  H+  H127  1  0.98029869  0.12993534  0.83444145  1
  H+  H128  1  0.60673323  0.66146197  0.52758521  1
  H+  H129  1  0.22032767  0.86507996  0.65869231  1
  H+  H130  1  0.37390720  0.96833094  0.81857568  1
  H+  H131  1  0.28235872  0.14569808  0.99487537  1
  H+  H132  1  0.76307767  0.86970871  0.16359621  1
  H+  H133  1  0.61275036  0.99116059  0.48891581  1
  H+  H134  1  0.13468788  0.78252974  0.84957149  1
  H+  H135  1  0.11097820  0.97906423  0.67568266  1
  H+  H136  1  0.10542267  0.38416239  0.49670092  1
  H+  H137  1  0.17120394  0.92488431  0.02923627  1
  H+  H138  1  0.38820777  0.11639912  0.33000159  1
  H+  H139  1  0.60503010  0.38305177  0.81858794  1
  H+  H140  1  0.71619517  0.36661253  0.32847340  1
  H+  H141  1  0.87485753  0.85119498  0.32751575  1
  H+  H142  1  0.41285360  0.64895811  0.32387817  1
  H+  H143  1  0.63095482  0.85322584  0.17453800  1
  H+  H144  1  0.84739956  0.97259986  0.49319445  1
  H+  H145  1  0.27059898  0.88475416  0.49504584  1
  H+  H146  1  0.86507020  0.13589696  1.00841136  1
  H+  H147  1  0.38899323  0.52422390  0.65603359  1
  H+  H148  1  0.62513440  0.48716509  0.49255941  1
  H+  H149  1  -0.03117935  0.85693869  0.67016504  1
  H+  H150  1  0.59812315  0.48427128  0.15737136  1
  H+  H151  1  0.36550006  0.13883243  0.67720131  1
  H+  H152  1  0.46948503  0.86452271  0.85138261  1
  H+  H153  1  0.85873079  0.48816454  0.33795104  1
  H+  H154  1  0.14000366  0.51310682  0.83877221  1
  H+  H155  1  0.84951121  0.38711190  0.48013990  1
  H+  H156  1  0.08932773  0.66227821  0.88760547  1
  H+  H157  1  0.11451876  0.86328474  0.33214401  1
  H+  H158  1  0.39222545  0.27580969  0.17513146  1
  H+  H159  1  -0.00356368  0.12538410  -0.00374435  1
  H+  H160  1  0.52255651  0.13621551  0.34080318  1
  H+  H161  1  0.22217580  0.62035054  0.99076595  1
  H+  H162  1  0.69786310  0.85119414  -0.00253045  1
  H+  H163  1  0.64054530  0.10717309  0.99865138  1
  H+  H164  1  0.66060065  0.62974537  0.35220349  1
  H+  H165  1  0.36087123  -0.02639756  0.49688876  1
  H+  H166  1  0.22905832  0.11847609  0.51156575  1
  H+  H167  1  0.97160889  0.61270980  0.66167275  1
  H+  H168  1  0.13481528  0.27029168  0.66116663  1
  H+  H169  1  0.88182954  0.61578637  -0.00426224  1
  H+  H170  1  0.90699741  0.82128699  0.23678311  1
  H+  H171  1  0.73159175  0.36504083  0.49460126  1
  H+  H172  1  0.82523820  0.95652139  0.01909709  1
  H+  H173  1  0.85673640  0.71855091  0.67285981  1
  H+  H174  1  0.72816379  0.11322828  0.65721430  1
  H+  H175  1  0.38495589  0.77403353  0.17463555  1
  H+  H176  1  0.47742061  0.36247142  0.63890904  1
  H+  H177  1  0.07566499  0.81957842  0.32823043  1
  H+  H178  1  0.27275329  0.63681280  0.15902206  1
  H+  H179  1  0.88405426  0.77569979  0.83431498  1
  H+  H180  1  0.08708779  0.17201989  0.76705285  1
  H+  H181  1  0.86412098  0.71288430  0.50354176  1
  H+  H182  1  1.02242382  0.38643328  0.99969878  1
  H+  H183  1  0.61287720  -0.03099679  0.16377710  1
  H+  H184  1  0.26006664  0.63413922  0.67299892  1
  H+  H185  1  0.22635966  0.11494781  0.66394096  1
  H+  H186  1  0.35297887  0.74520171  0.00737128  1
  H+  H187  1  0.73018074  0.11834326  0.49601255  1
  H+  H188  1  0.37624620  0.85642847  0.50867508  1
  H+  H189  1  0.62589409  0.14059269  0.66099251  1
  H+  H190  1  0.62528878  0.22212684  1.01047821  1
  H+  H191  1  0.35809214  0.73888840  0.67763717  1
  H+  H192  1  0.02221000  0.63574244  0.49290437  1
  H+  H193  1  0.34815626  0.71343257  0.49903801  1
  H+  H194  1  0.89158243  0.19368980  0.33789335  1
  H+  H195  1  0.08829363  0.38063998  0.34635844  1
  H+  H196  1  1.00143477  0.12511464  0.16247681  1
  H+  H197  1  0.76071809  0.13307820  0.83011816  1
  H+  H198  1  0.72745463  0.61098826  0.18638282  1
  H+  H199  1  0.85493037  0.71969795  1.00802442  1
  H+  H200  1  0.09603638  0.13942686  0.16992336  1
  H+  H201  1  0.60585634  0.38890768  0.48913122  1
  H+  H202  1  0.57141805  0.30614392  1.04995671  1
  H+  H203  1  0.58449991  0.42438174  0.40421585  1
  H+  H204  1  0.51857147  0.61467146  0.68304445  1
  H+  H205  1  0.61744142  0.25675835  0.18515424  1
  H+  H206  1  0.67025950  0.08191399  0.23257982  1
  H+  H207  1  0.62481856  0.76639596  0.50258201  1
  H+  H208  1  0.76973809  0.62658921  0.00614262  1
  H+  H209  1  0.63508549  0.26425870  0.50009838  1
  H+  H210  1  0.60441354  0.12095875  0.16634090  1
  H+  H211  1  0.29347864  0.37935905  0.35758455  1
  H+  H212  1  0.62374620  0.26848054  0.84192801  1
  H+  H213  1  0.89035084  0.61424860  0.17667655  1
  H+  H214  1  0.87695525  0.85280648  0.66617567  1
  H+  H215  1  0.35876928  0.38252476  0.16156708  1
  H+  H216  1  0.88330742  0.27267096  -0.00811054  1
  H+  H217  1  0.37677656  0.23065649  0.34995555  1
  H+  H218  1  0.86325700  0.39253749  0.00279782  1
  H+  H219  1  0.22683813  0.86598058  0.84224142  1
  H+  H220  1  0.52946178  0.93736846  0.44953229  1
  H+  H221  1  0.77194907  0.12710001  0.00220290  1
  H+  H222  1  -0.00605392  0.90022800  0.35198223  1
  H+  H223  1  0.36680368  0.22545080  0.51302001  1
  H+  H224  1  0.85806112  0.89244618  0.84954612  1
  H+  H225  1  0.27181757  0.38652425  0.15174027  1
  H+  H226  1  0.13821385  0.61478309  0.17130485  1
  H+  H227  1  0.95397357  0.36749286  0.33035522  1
  H+  H228  1  0.13864267  0.86401275  0.50482826  1
  H+  H229  1  0.47953854  0.11465803  0.66181499  1
  H+  H230  1  0.66738184  0.57190133  0.58594715  1
  H+  H231  1  0.86580272  0.84716450  0.99166596  1
  H+  H232  1  0.36110454  0.87659636  0.83187471  1
  H+  H233  1  0.65266841  0.32757138  0.27070651  1
  H+  H234  1  0.88687759  0.52512357  0.50493629  1
  H+  H235  1  0.98018802  0.84722673  0.51923738  1
  H+  H236  1  0.38692436  0.28144121  0.83948036  1
  H+  H237  1  0.42837492  0.58584527  0.59972761  1
  H+  H238  1  0.28461431  0.66217588  0.33851585  1
  H+  H239  1  0.32928232  0.67760820  0.73999185  1
  H+  H240  1  0.07433427  0.17340046  0.40216460  1
  H+  H241  1  0.12145570  0.73610153  0.00584327  1
  H+  H242  1  0.63695501  0.60763788  0.83811707  1
  H+  H243  1  0.37232477  0.18657220  0.09904297  1
  H+  H244  1  0.63970162  0.61333712  0.19091551  1
  H+  H245  1  0.41862502  0.33033074  0.27148447  1
  H+  H246  1  0.02228146  0.13504904  0.67492120  1
  H+  H247  1  0.11324559  0.64317058  0.00116128  1
  H+  H248  1  0.37294647  0.47454804  0.51080939  1
  H+  H249  1  0.63706900  0.59595766  -0.01633356  1
  H+  H250  1  0.17813021  0.75446228  0.32150009  1
  H+  H251  1  0.40444689  0.02202179  0.99310641  1
  H+  H252  1  0.85732271  0.62957031  0.67025090  1
  H+  H253  1  0.15063700  0.13611979  0.34442625  1
  H+  H254  1  0.26412222  0.14593043  0.82699171  1
  H+  H255  1  0.38958399  0.60711219  0.50370447  1
  H+  H256  1  0.04223560  0.39506814  0.69184764  1
  H+  H257  1  0.49687113  0.26721472  0.09904562  1
  H+  H258  1  0.37377118  0.75102506  0.34462367  1
  H+  H259  1  0.85897775  -0.01819173  0.84589985  1
  H+  H260  1  0.25272267  0.86290400  0.99163263  1
  H+  H261  1  0.86330170  0.22461888  0.68017624  1
  H+  H262  1  0.10732396  0.95470439  0.17420667  1
  H+  H263  1  0.49696606  0.12828095  0.84463093  1
  H+  H264  1  0.15230836  0.03380517  0.99603871  1
  H+  H265  1  0.43506847  0.61418310  0.26579006  1
  H+  H266  1  0.75761102  0.88559951  0.48924556  1
  H+  H267  1  0.37760942  0.52706760  0.99408338  1
  H+  H268  1  0.87756424  0.00783032  0.17158772  1
  H+  H269  1  0.86212469  0.48145866  1.00576430  1
  H+  H270  1  0.77760299  0.39003880  0.66712477  1
  H+  H271  1  0.12227066  0.62122286  0.34747306  1
  H+  H272  1  0.60132862  -0.02856986  0.83121136  1
  H+  H273  1  0.35885214  0.65774489  0.00239029  1
  H+  H274  1  0.37325771  0.36669162  0.35998911  1
  H+  H275  1  0.24486108  0.86496961  0.16533048  1
  H+  H276  1  0.89316279  0.37224883  0.67395112  1
  H+  H277  1  0.14296118  0.11776088  0.99421929  1
  H+  H278  1  0.60475826  0.61013013  0.68283895  1
  H+  H279  1  0.33977441  0.03584106  0.86970430  1
  H+  H280  1  0.88298133  0.10796291  0.66811863  1
  H+  H281  1  0.15675516  0.52439871  0.66666604  1
  H+  H282  1  0.47513524  0.11149791  0.50938091  1
  H+  H283  1  0.11079010  0.89002052  0.67371726  1
  H+  H284  1  0.61350405  0.47455644  0.65496633  1
  H+  H285  1  0.72574858  0.60835525  0.83127951  1
  H+  H286  1  0.36123263  0.73115556  0.83493734  1
  H+  H287  1  0.32612116  0.91184645  0.73212416  1
  H+  H288  1  0.13117580  0.05731601  0.23151695  1
  H+  H289  1  0.32886691  0.17497540  0.76902365  1
  H+  H290  1  0.62497330  0.19590537  0.71659672  1
  H+  H291  1  0.17467667  0.33256019  0.94094282  1
  H+  H292  1  0.81678698  0.42205616  0.42368369  1
  H+  H293  1  0.13808505  0.37254534  0.15822105  1
  H+  H294  1  0.97335200  0.86439591  0.83831665  1
  H+  H295  1  0.37179722  0.14557318  0.00100789  1
  H+  H296  1  0.83057849  0.16962721  0.41420128  1
  H+  H297  1  0.41737664  0.08321174  0.60451939  1
  H+  H298  1  0.60706362  0.93058575  0.38952705  1
  H+  H299  1  0.42329662  0.84115435  0.27094738  1
  H+  H300  1  0.20928977  0.81341615  0.25953360  1
  H+  H301  1  0.32575410  0.66603914  0.43550351  1
  H+  H302  1  0.46956243  0.10262936  0.17712977  1
  H+  H303  1  0.82784453  0.91356046  0.40117238  1
  H+  H304  1  0.58308898  0.64715937  0.11215078  1
  H+  H305  1  0.11971628  0.23494583  0.49499910  1
  H+  H306  1  0.92712865  0.58934207  0.26650736  1
  H+  H307  1  0.13997816  0.11876027  0.50900994  1
  H+  H308  1  0.57779133  0.65050035  0.77613482  1
  H+  H309  1  0.67010763  0.58746575  0.27935369  1
  H+  H310  1  0.86590880  0.47965378  0.67078316  1
  H+  H311  1  0.53961998  0.13120731  0.78283764  1
  H+  H312  1  0.82275690  0.16101311  0.73606313  1
  H+  H313  1  0.40554871  0.82986054  0.60581002  1
  H+  H314  1  0.62658080  0.68178705  0.42587160  1
  H+  H315  1  0.09750751  0.41244189  0.77688526  1
  H+  H316  1  0.90400867  0.82412086  0.93472619  1
  H+  H317  1  0.70379651  0.34170006  0.17756419  1
  H+  H318  1  0.66951105  0.33426410  0.56214442  1
  H+  H319  1  0.08885063  0.67004522  0.09797377  1
  H+  H320  1  0.55536381  0.40797335  0.10770688  1
  H+  H321  1  0.88598942  0.32260967  0.54834155  1
  H+  H322  1  0.13549505  0.52413945  0.16632892  1
  H+  H323  1  0.80846518  0.89241457  0.07251922  1
  H+  H324  1  0.36490488  0.48057847  0.82355150  1
  H+  H325  1  0.42466845  0.09259016  0.94283169  1
  H+  H326  1  0.90467323  0.58087284  0.90115947  1
  H+  H327  1  0.92836154  0.11068320  0.89593049  1
  H+  H328  1  0.06999360  0.67913681  0.73642243  1
  H+  H329  1  0.41733607  0.34225002  0.92636550  1
  H+  H330  1  0.12566885  0.38652761  0.67947280  1
  H+  H331  1  0.82943722  0.66343258  0.76215412  1
  H+  H332  1  0.16682058  0.58412758  0.92977572  1
  H+  H333  1  0.78403543  0.24857872  0.12355046  1
  H+  H334  1  0.16296549  0.08418630  0.89723711  1
  H+  H335  1  0.16140791  0.83439278  0.59925394  1
  H+  H336  1  0.91640541  0.57946153  0.59934530  1
  H+  H337  1  0.08448532  0.92057298  0.76844097  1
  H+  H338  1  0.33394301  0.41259994  0.72975844  1
  H+  H339  1  0.08290557  0.16701266  0.07231261  1
  H+  H340  1  0.82464184  0.41565285  0.76742914  1
  H+  H341  1  0.50407188  0.89250125  0.01273157  1
  H+  H342  1  0.65897032  0.07424902  0.90632850  1
  H+  H343  1  0.95396183  0.36077189  0.62693008  1
  H+  H344  1  0.82359574  0.65586886  0.10410117  1
  H+  H345  1  0.39812677  0.58003127  0.93173401  1
  H+  H346  1  0.17938982  0.58311077  0.60506937  1
  H+  H347  1  0.57641610  0.91017732  0.10446853  1
  H+  H348  1  0.81546701  0.18941692  0.09115352  1
  H+  H349  1  0.07092951  0.92265778  0.44534149  1
  H+  H350  1  0.58245358  0.17071096  0.43274691  1
  H+  H351  1  0.34295737  0.41644956  0.06767919  1
  H+  H352  1  0.57814856  0.41159151  0.71407822  1
  H+  H353  1  0.07029493  0.41335614  0.43878506  1
  H+  H354  1  0.90452201  0.06656470  0.23062209  1
  H+  H355  1  0.16803201  0.08717604  0.60398681  1
  H+  H356  1  0.47591709  0.86038420  0.17493683  1
  H+  H357  1  0.36367481  0.22573552  0.66988071  1
  H+  H358  1  0.40749166  0.84447659  0.91175462  1
  H+  H359  1  0.91724544  0.81634827  0.57617380  1
  H+  H360  1  0.88571172  0.61336885  0.50771823  1
  H+  H361  1  0.17150992  0.57003467  0.25659259  1
  H+  H362  1  0.31913286  0.92564783  0.40407819  1
  H+  H363  1  0.23174980  0.36938294  0.51400024  1
  H+  H364  1  0.40912057  0.08083053  0.26764551  1
  H+  H365  1  0.66511133  0.84257769  0.59398166  1
  H+  H366  1  0.50931781  0.62741567  -0.02244722  1
  H+  H367  1  0.07770105  0.42249569  0.09396188  1
  H+  H368  1  0.66904466  0.82433240  0.26876564  1
  H+  H369  1  0.67476591  0.09005233  0.55928770  1
  H+  H370  1  0.34641918  0.17793757  0.44710090  1
  H+  H371  1  0.91472060  0.34320448  0.23464618  1
  H+  H372  1  0.80845042  0.38697158  0.09326225  1
  H+  H373  1  0.36352231  0.90378742  0.05290211  1
  H+  H374  1  0.88773466  0.14125605  0.50110955  1
  H+  H375  1  -0.00128030  0.97028132  0.39644971  1
  H+  H376  1  0.14195334  0.36524833  -0.00291250  1
  H+  H377  1  0.16512946  0.04490044  0.23574899  1
  H+  H378  1  0.33035390  0.67346450  0.09953271  1
  H+  H379  1  0.18289157  0.84990283  0.94201434  1
  H+  H380  1  0.91038868  0.33132200  0.93247048  1
  H+  H381  1  0.13331693  0.02430315  0.83720941  1
  H+  H382  1  0.08989046  0.90570740  0.11351634  1
  H+  H383  1  0.13113705  0.28477604  0.34269351  1
  O2-  O384  1  0.06417109  0.16141491  0.14770574  1
  O2-  O385  1  0.08718519  0.17397907  0.48021687  1
  O2-  O386  1  0.08585464  0.17268535  0.81258192  1
  O2-  O387  1  0.08245853  0.42647700  0.13923624  1
  O2-  O388  1  0.07025306  0.41078072  0.48431604  1
  O2-  O389  1  0.08936437  0.41024717  0.82197625  1
  O2-  O390  1  0.09145576  0.66821045  0.14320087  1
  O2-  O391  1  0.08370732  0.66588773  0.47858143  1
  O2-  O392  1  0.07785584  0.66671668  0.84472390  1
  O2-  O393  1  0.07946797  0.89586796  0.15828844  1
  O2-  O394  1  0.08934415  0.91894546  0.48751089  1
  O2-  O395  1  0.08349177  0.92312057  0.81421304  1
  O2-  O396  1  0.36508017  0.18036599  0.14322385  1
  O2-  O397  1  0.33883651  0.16887929  0.49254621  1
  O2-  O398  1  0.32670854  0.17771366  0.81453218  1
  O2-  O399  1  0.33468469  0.41586632  0.14060091  1
  O2-  O400  1  0.34015199  0.40991355  0.50588039  1
  O2-  O401  1  0.33593998  0.41953746  0.80908249  1
  O2-  O402  1  0.33356651  0.66877644  0.14448858  1
  O2-  O403  1  0.31969168  0.65535286  0.48064340  1
  O2-  O404  1  0.33569708  0.67410749  0.81424690  1
  O2-  O405  1  0.34404095  0.91837024  0.13404274  1
  O2-  O406  1  0.33159129  0.91452954  0.47902541  1
  O2-  O407  1  0.33259963  0.90780513  0.81178845  1
  O2-  O408  1  0.57490293  0.15232179  0.15160461  1
  O2-  O409  1  0.58584334  0.17338413  0.47902576  1
  O2-  O410  1  0.55393909  0.14905710  0.82511698  1
  O2-  O411  1  0.54639044  0.44851029  0.13312081  1
  O2-  O412  1  0.58538564  0.42602498  0.47330334  1
  O2-  O413  1  0.57524376  0.41231157  0.80105841  1
  O2-  O414  1  0.57966847  0.65628702  0.15544679  1
  O2-  O415  1  0.58489803  0.67667963  0.49190242  1
  O2-  O416  1  0.57973338  0.66120046  0.82245344  1
  O2-  O417  1  0.58070577  0.90785583  0.14973074  1
  O2-  O418  1  0.57328722  0.93176985  0.47175976  1
  O2-  O419  1  0.56800297  0.91193863  0.81453689  1
  O2-  O420  1  0.80043027  0.20408599  0.13133703  1
  O2-  O421  1  0.82615075  0.16482521  0.46473061  1
  O2-  O422  1  0.81962310  0.16627117  0.81224382  1
  O2-  O423  1  0.79196765  0.35470934  0.13245879  1
  O2-  O424  1  0.81467645  0.41461576  0.47050580  1
  O2-  O425  1  0.82140455  0.41367495  0.81271966  1
  O2-  O426  1  0.82421752  0.65500643  0.14963589  1
  O2-  O427  1  0.83548502  0.65342716  0.48536495  1
  O2-  O428  1  0.82960286  0.66797105  0.80792802  1
  O2-  O429  1  0.82238429  0.89889789  0.14537329  1
  O2-  O430  1  0.81837560  0.91744063  0.47281237  1
  O2-  O431  1  0.82342383  0.92072280  0.85645921  1
  O2-  O432  1  0.20704551  0.08851912  0.12142958  1
  O2-  O433  1  0.16845039  0.08821088  0.52642107  1
  O2-  O434  1  0.16349106  0.08595790  0.85173726  1
  O2-  O435  1  0.16904452  0.34203642  0.17030682  1
  O2-  O436  1  0.16794238  0.33971109  0.52228712  1
  O2-  O437  1  0.17707542  0.33226662  0.86256554  1
  O2-  O438  1  0.16775075  0.58294899  0.18571408  1
  O2-  O439  1  0.16259497  0.58093990  0.52846897  1
  O2-  O440  1  0.17019662  0.57635940  0.84974251  1
  O2-  O441  1  0.18855928  0.83021413  0.18758626  1
  O2-  O442  1  0.16908656  0.83338399  0.51997844  1
  O2-  O443  1  0.16915670  0.84427083  0.86077335  1
  O2-  O444  1  0.40792966  0.07549070  0.18923737  1
  O2-  O445  1  0.41613354  0.07961001  0.52638298  1
  O2-  O446  1  0.39095242  0.09243492  0.86650699  1
  O2-  O447  1  0.40869419  0.33346979  0.19421598  1
  O2-  O448  1  0.40984939  0.32391393  0.56253497  1
  O2-  O449  1  0.42139111  0.34147211  0.85540481  1
  O2-  O450  1  0.41666158  0.58186482  0.18123212  1
  O2-  O451  1  0.42298783  0.58126592  0.51921418  1
  O2-  O452  1  0.41203943  0.58282717  0.85374754  1
  O2-  O453  1  0.41507407  0.83476093  0.18922522  1
  O2-  O454  1  0.40018431  0.82218727  0.52812241  1
  O2-  O455  1  0.40828305  0.83530427  0.86591227  1
  O2-  O456  1  0.66230253  0.07369889  0.18752255  1
  O2-  O457  1  0.67013931  0.09100415  0.51406184  1
  O2-  O458  1  0.65622570  0.07641685  0.86040646  1
  O2-  O459  1  0.64792694  0.31747008  0.19896551  1
  O2-  O460  1  0.66846914  0.32851785  0.51468667  1
  O2-  O461  1  0.65354680  0.32910988  0.85482806  1
  O2-  O462  1  0.67018801  0.58435166  0.20725237  1
  O2-  O463  1  0.67914834  0.57400956  0.51874300  1
  O2-  O464  1  0.66542202  0.57340109  0.84710252  1
  O2-  O465  1  0.66196502  0.82358737  0.18976345  1
  O2-  O466  1  0.65929242  0.83434042  0.51379417  1
  O2-  O467  1  0.65310390  0.83223627  0.85332758  1
  O2-  O468  1  0.90722195  0.06855138  0.18558884  1
  O2-  O469  1  0.93069941  0.13626634  0.52937525  1
  O2-  O470  1  0.92079219  0.10532685  0.85129386  1
  O2-  O471  1  0.92447140  0.34658619  0.18975866  1
  O2-  O472  1  0.90179652  0.33466097  0.50565358  1
  O2-  O473  1  0.90904972  0.33244071  0.85242538  1
  O2-  O474  1  0.92486332  0.59020516  0.19420894  1
  O2-  O475  1  0.92033095  0.58360250  0.52166608  1
  O2-  O476  1  0.90882900  0.58198633  0.85539059  1
  O2-  O477  1  0.90591783  0.82020942  0.19084061  1
  O2-  O478  1  0.91978795  0.81068836  0.53131708  1
  O2-  O479  1  0.91316099  0.83388072  0.85324429  1
  O2-  O480  1  0.18048522  0.10269169  0.34488399  1
  O2-  O481  1  0.16575846  0.08555178  0.64962961  1
  O2-  O482  1  0.17339664  0.09028290  0.97477202  1
  O2-  O483  1  0.16349396  0.34944570  0.34145986  1
  O2-  O484  1  0.16452552  0.33129791  0.64626084  1
  O2-  O485  1  0.17382709  0.33461279  0.98649652  1
  O2-  O486  1  0.17855560  0.56066452  0.30179730  1
  O2-  O487  1  0.18543492  0.58435615  0.65054117  1
  O2-  O488  1  0.16197171  0.58625904  0.97484304  1
  O2-  O489  1  0.22785083  0.80336520  0.30038153  1
  O2-  O490  1  0.15962595  0.83610311  0.64470627  1
  O2-  O491  1  0.19136653  0.84692549  0.98648365  1
  O2-  O492  1  0.41200962  0.08033696  0.31358300  1
  O2-  O493  1  0.41820207  0.08456974  0.65029305  1
  O2-  O494  1  0.42818185  0.08463376  0.98700406  1
  O2-  O495  1  0.42276803  0.32726811  0.31696490  1
  O2-  O496  1  0.41350905  0.32939736  0.62960619  1
  O2-  O497  1  0.41326931  0.33855158  0.97308641  1
  O2-  O498  1  0.45618665  0.63707778  0.30664552  1
  O2-  O499  1  0.42691290  0.58484051  0.64500163  1
  O2-  O500  1  0.40183045  0.58597640  0.97716730  1
  O2-  O501  1  0.42914247  0.84477711  0.31596600  1
  O2-  O502  1  0.40997005  0.83422733  0.65119108  1
  O2-  O503  1  0.40335249  0.85303233  0.98749190  1
  O2-  O504  1  0.67724734  0.09403405  0.30955971  1
  O2-  O505  1  0.66902674  0.08658376  0.63928400  1
  O2-  O506  1  0.66682671  0.07372560  0.98116373  1
  O2-  O507  1  0.65438895  0.33109237  0.31722748  1
  O2-  O508  1  0.66922323  0.33937332  0.62996950  1
  O2-  O509  1  0.66282605  0.32074732  0.98614514  1
  O2-  O510  1  0.66932503  0.58266146  0.32563171  1
  O2-  O511  1  0.66091764  0.56672533  0.63382418  1
  O2-  O512  1  0.67270272  0.57022534  0.97409953  1
  O2-  O513  1  0.67464861  0.83082882  0.31384160  1
  O2-  O514  1  0.67041807  0.84480147  0.63905704  1
  O2-  O515  1  0.63965891  0.82760726  0.97904177  1
  O2-  O516  1  0.90584532  0.07007941  0.31393839  1
  O2-  O517  1  0.91548399  0.08033775  0.65260016  1
  O2-  O518  1  0.93673212  0.09361826  0.97773956  1
  O2-  O519  1  0.89532504  0.34111348  0.31237208  1
  O2-  O520  1  0.92751765  0.34204508  0.66678047  1
  O2-  O521  1  0.91397546  0.33357920  0.97780558  1
  O2-  O522  1  0.92689282  0.58511345  0.31290611  1
  O2-  O523  1  0.91186323  0.57615311  0.64495398  1
  O2-  O524  1  0.91258596  0.58617519  0.97791074  1
  O2-  O525  1  0.91277443  0.82916656  0.31264625  1
  O2-  O526  1  0.90963247  0.82188718  0.65436944  1
  O2-  O527  1  0.89939335  0.81990503  0.97979860  1
  O2-  O528  1  0.09224783  0.17004877  0.02700801  1
  O2-  O529  1  0.07555535  0.17894074  0.35684762  1
  O2-  O530  1  0.08354049  0.16842995  0.68853776  1
  O2-  O531  1  0.08297034  0.41659761  0.01491210  1
  O2-  O532  1  0.05807507  0.41217910  0.35967550  1
  O2-  O533  1  0.10463551  0.42355474  0.69938397  1
  O2-  O534  1  0.08410404  0.67433446  0.01670420  1
  O2-  O535  1  0.10108376  0.66083488  0.35601944  1
  O2-  O536  1  0.06825469  0.67390133  0.69238786  1
  O2-  O537  1  0.14330247  0.95611203  0.04587764  1
  O2-  O538  1  0.03449978  0.94813346  0.38061679  1
  O2-  O539  1  0.08187325  0.91958780  0.69253005  1
  O2-  O540  1  0.34435153  0.18104220  0.00618872  1
  O2-  O541  1  0.34819296  0.17228816  0.36987406  1
  O2-  O542  1  0.33499548  0.16940359  0.69103925  1
  O2-  O543  1  0.34184784  0.41682717  0.02105660  1
  O2-  O544  1  0.33974326  0.38687196  0.38453410  1
  O2-  O545  1  0.32756542  0.40940358  0.68451268  1
  O2-  O546  1  0.32482136  0.68258332  0.01915927  1
  O2-  O547  1  0.33903935  0.68972187  0.36079459  1
  O2-  O548  1  0.32616261  0.67774230  0.69404629  1
  O2-  O549  1  0.36299300  0.90526812  0.00735023  1
  O2-  O550  1  0.30289702  0.93256533  0.36146503  1
  O2-  O551  1  0.32675896  0.91583034  0.68693579  1
  O2-  O552  1  0.59534420  0.16127515  0.02651388  1
  O2-  O553  1  0.58189584  0.16792935  0.35780117  1
  O2-  O554  1  0.59862225  0.17531153  0.67684900  1
  O2-  O555  1  0.52578814  0.31289475  0.06885233  1
  O2-  O556  1  0.58449766  0.42575828  0.35698730  1
  O2-  O557  1  0.57994235  0.41024900  0.66897637  1
  O2-  O558  1  0.57286263  0.65564832  -0.03049109  1
  O2-  O559  1  0.65808186  0.69161164  0.38533000  1
  O2-  O560  1  0.56996051  0.62654563  0.70819367  1
  O2-  O561  1  0.56565726  0.91459016  0.02628528  1
  O2-  O562  1  0.60438923  0.92875368  0.34480205  1
  O2-  O563  1  0.58020942  0.92907955  0.68796993  1
  O2-  O564  1  0.83208840  0.16478575  0.01761289  1
  O2-  O565  1  0.83588482  0.18222668  0.35285002  1
  O2-  O566  1  0.82871750  0.16285895  0.69036739  1
  O2-  O567  1  0.83059512  0.41974788  0.01850924  1
  O2-  O568  1  0.82160866  0.42761250  0.35388738  1
  O2-  O569  1  0.83501653  0.41786823  0.68651577  1
  O2-  O570  1  0.82905290  0.65931983  0.02433651  1
  O2-  O571  1  0.86956792  0.68743525  0.36576281  1
  O2-  O572  1  0.82471970  0.65662076  0.68640335  1
  O2-  O573  1  0.80177854  0.89551267  0.02678662  1
  O2-  O574  1  0.83389303  0.91286617  0.35515561  1
  O2-  O575  1  0.82740001  0.90055225  0.68615916  1
