# generated using pymatgen
data_H2O
_symmetry_space_group_name_H-M   'P 1'
_cell_length_a   17.97246080
_cell_length_b   17.97532567
_cell_length_c   21.98661702
_cell_angle_alpha   89.96611914
_cell_angle_beta   90.01969814
_cell_angle_gamma   120.01145691
_symmetry_Int_Tables_number   1
_chemical_formula_structural   H2O
_chemical_formula_sum   'H384 O192'
_cell_volume   6150.67995245
_cell_formula_units_Z   192
loop_
 _symmetry_equiv_pos_site_id
 _symmetry_equiv_pos_as_xyz
  1  'x, y, z'
loop_
 _atom_type_symbol
 _atom_type_oxidation_number
  H+  1.0
  O2-  -2.0
loop_
 _atom_site_type_symbol
 _atom_site_label
 _atom_site_symmetry_multiplicity
 _atom_site_fract_x
 _atom_site_fract_y
 _atom_site_fract_z
 _atom_site_occupancy
  H+  H0  1  0.29267507  0.15570566  0.69528256  1
  H+  H1  1  0.62532899  0.98307955  0.83500351  1
  H+  H2  1  0.62118596  0.22860448  0.66137540  1
  H+  H3  1  0.63997808  0.02570382  0.17382836  1
  H+  H4  1  0.89230768  0.77452507  0.17458448  1
  H+  H5  1  0.97306876  0.34556598  0.83710051  1
  H+  H6  1  0.89289002  0.02117483  0.16817040  1
  H+  H7  1  0.27026886  0.13808468  0.16389252  1
  H+  H8  1  0.47833719  0.10381104  0.32692352  1
  H+  H9  1  0.21180803  0.36549313  0.35917002  1
  H+  H10  1  0.37058986  0.72809533  0.15993775  1
  H+  H11  1  0.46448083  0.10704559  0.00390004  1
  H+  H12  1  0.26325260  0.37448453  0.49181244  1
  H+  H13  1  0.87125221  0.13033432  0.49479524  1
  H+  H14  1  0.26572075  0.63353204  0.82877921  1
  H+  H15  1  0.01294171  0.38738499  0.49633099  1
  H+  H16  1  0.73049623  0.36238940  0.17330601  1
  H+  H17  1  0.71586466  0.86307088  0.63938947  1
  H+  H18  1  0.40125523  0.63557129  0.49397385  1
  H+  H19  1  0.88710629  0.44858280  0.82031313  1
  H+  H20  1  0.37045612  0.61691183  0.65378249  1
  H+  H21  1  0.04285187  0.67005440  0.48451842  1
  H+  H22  1  0.87490861  0.86066402  0.32596222  1
  H+  H23  1  0.18470707  0.64898359  0.33162567  1
  H+  H24  1  0.85982235  0.98836060  0.49396266  1
  H+  H25  1  0.23979953  0.18619222  0.32202181  1
  H+  H26  1  0.86444451  0.20171204  0.82931376  1
  H+  H27  1  0.38199620  0.36796054  0.32719271  1
  H+  H28  1  0.45420013  0.33839326  0.51113993  1
  H+  H29  1  0.10822733  0.14300062  0.48442954  1
  H+  H30  1  0.11859327  0.88446615  0.15908797  1
  H+  H31  1  0.38777835  0.02318016  0.66400608  1
  H+  H32  1  0.86578418  0.44559481  0.49415818  1
  H+  H33  1  0.38507874  0.61270195  0.84011028  1
  H+  H34  1  0.96631089  0.68816241  0.86727076  1
  H+  H35  1  0.06637252  0.41105573  0.76044187  1
  H+  H36  1  0.86430648  0.12524865  0.16006819  1
  H+  H37  1  0.35657591  0.20487038  0.50751320  1
  H+  H38  1  0.14514386  0.02454086  0.83824707  1
  H+  H39  1  0.13769505  0.02189301  0.16405729  1
  H+  H40  1  0.22930932  0.86172599  0.17431150  1
  H+  H41  1  0.47667741  0.61630934  0.84069529  1
  H+  H42  1  0.60183482  0.37560930  0.33681357  1
  H+  H43  1  0.39957888  0.11964646  0.84828486  1
  H+  H44  1  0.05005983  0.88008060  0.41395873  1
  H+  H45  1  0.85789315  0.32513623  0.50717319  1
  H+  H46  1  0.10289629  0.95276147  0.66391267  1
  H+  H47  1  0.26289982  0.87783823  -0.00993583  1
  H+  H48  1  0.11153761  0.39310094  0.35916056  1
  H+  H49  1  0.86833877  0.62989413  0.16094034  1
  H+  H50  1  0.62241449  0.89159481  0.15673020  1
  H+  H51  1  0.13054332  0.71714586  0.66016779  1
  H+  H52  1  0.14038384  0.77837349  0.83062451  1
  H+  H53  1  0.13481685  0.50880049  1.01073862  1
  H+  H54  1  0.14401503  0.61365262  0.17602577  1
  H+  H55  1  0.91398937  0.07004592  0.89879048  1
  H+  H56  1  0.89134657  0.62500571  0.65729411  1
  H+  H57  1  0.92118735  0.16619041  0.65351611  1
  H+  H58  1  1.00515239  0.40164677  0.67308946  1
  H+  H59  1  0.79951261  0.63101075  0.33927286  1
  H+  H60  1  0.60782071  0.72678572  0.15001855  1
  H+  H61  1  0.76229459  0.91676827  0.48598460  1
  H+  H62  1  0.53401859  0.13917322  0.66576460  1
  H+  H63  1  0.61202455  0.88241101  0.00496883  1
  H+  H64  1  0.65758700  0.87356214  0.84305272  1
  H+  H65  1  0.91283836  0.62319586  0.31400970  1
  H+  H66  1  0.36735685  0.89382339  0.68131405  1
  H+  H67  1  0.09221179  0.66872694  0.75095580  1
  H+  H68  1  0.53600149  0.64675722  0.48155228  1
  H+  H69  1  0.37362917  0.47951207  1.00078711  1
  H+  H70  1  0.53873644  0.13777272  0.84687450  1
  H+  H71  1  0.77561630  0.88161314  0.00678536  1
  H+  H72  1  0.89837423  0.52957307  0.32030419  1
  H+  H73  1  0.36217218  0.38656519  0.15929266  1
  H+  H74  1  0.23405697  0.85605099  0.66395707  1
  H+  H75  1  0.61475321  0.24191105  0.49649425  1
  H+  H76  1  0.85234832  0.23027854  0.67725236  1
  H+  H77  1  0.66196613  0.07722472  0.56807759  1
  H+  H78  1  0.61774280  0.48169442  0.67171620  1
  H+  H79  1  0.72805732  0.86168941  0.16967446  1
  H+  H80  1  0.13494563  0.26039259  0.14116051  1
  H+  H81  1  0.32627632  0.20233325  -0.00156012  1
  H+  H82  1  0.61402434  0.13643858  0.16204325  1
  H+  H83  1  0.58490285  0.66198638  0.06238957  1
  H+  H84  1  0.36001978  0.35059033  0.98731163  1
  H+  H85  1  0.63860384  0.77057077  -0.00530487  1
  H+  H86  1  0.63275815  0.61107875  0.64734043  1
  H+  H87  1  0.63595679  0.01664273  0.99259646  1
  H+  H88  1  0.52445197  0.88567041  0.00114988  1
  H+  H89  1  0.66590101  0.40851435  0.02904274  1
  H+  H90  1  0.36187979  0.88197881  -0.01266211  1
  H+  H91  1  0.35294617  0.72430837  0.82835373  1
  H+  H92  1  0.98294201  0.61167693  0.16669582  1
  H+  H93  1  0.62969792  0.86299450  0.65600265  1
  H+  H94  1  0.51724463  0.63972072  0.64909617  1
  H+  H95  1  0.89587717  0.57254991  0.49661833  1
  H+  H96  1  0.35721829  0.47361797  0.34512242  1
  H+  H97  1  0.62936807  0.77636119  0.32262375  1
  H+  H98  1  0.97552010  0.10675744  0.99138305  1
  H+  H99  1  0.51342180  0.38899828  0.04617069  1
  H+  H100  1  0.98201317  0.38438347  0.34704756  1
  H+  H101  1  0.13486245  0.33493570  0.58740623  1
  H+  H102  1  0.53479012  0.39936387  0.16711204  1
  H+  H103  1  0.38221581  0.77752213  0.67095686  1
  H+  H104  1  0.64353267  0.36547113  0.17987164  1
  H+  H105  1  0.12499000  0.53206574  0.50484232  1
  H+  H106  1  0.11578321  0.16606683  0.34738087  1
  H+  H107  1  0.24427247  0.10974559  0.00342053  1
  H+  H108  1  0.63942435  0.11424956  0.65333141  1
  H+  H109  1  0.86200815  0.51847189  0.82086612  1
  H+  H110  1  0.35069080  0.72927548  0.49255993  1
  H+  H111  1  0.46483172  0.50044102  0.69562490  1
  H+  H112  1  0.63792200  0.62517288  0.99591503  1
  H+  H113  1  0.36546684  0.60782627  0.32204372  1
  H+  H114  1  0.60255889  0.91480276  0.40703009  1
  H+  H115  1  0.09856258  0.46457616  0.82141400  1
  H+  H116  1  0.85879147  0.21597679  0.00841901  1
  H+  H117  1  0.62035170  0.39346781  0.67433625  1
  H+  H118  1  0.39079566  0.27548637  0.83852719  1
  H+  H119  1  0.38345110  0.87673339  0.82845605  1
  H+  H120  1  0.14019909  0.86126046  0.99206962  1
  H+  H121  1  0.11748019  0.13019054  0.83146055  1
  H+  H122  1  0.61466188  0.22547070  0.16101234  1
  H+  H123  1  0.12536504  0.27436325  0.50045235  1
  H+  H124  1  0.33517023  0.72497204  0.33359550  1
  H+  H125  1  0.52476282  0.38889624  0.82903799  1
  H+  H126  1  0.11502645  0.25414325  0.84102790  1
  H+  H127  1  0.38067691  0.60940733  0.16716659  1
  H+  H128  1  0.87469344  0.32131628  0.84302274  1
  H+  H129  1  0.02631665  0.37997665  0.16841623  1
  H+  H130  1  0.34135167  0.35747813  0.49678305  1
  H+  H131  1  0.11512206  0.13364027  0.15744091  1
  H+  H132  1  0.77095047  0.63483922  0.66788606  1
  H+  H133  1  0.77814453  0.12599877  0.49458457  1
  H+  H134  1  0.63558146  0.27043625  0.32892432  1
  H+  H135  1  0.73056229  0.37738981  0.84350319  1
  H+  H136  1  0.12864517  0.36580515  0.49947104  1
  H+  H137  1  0.61725915  0.13609481  0.34211693  1
  H+  H138  1  0.21620435  0.61759022  0.50250533  1
  H+  H139  1  0.11586896  0.25272806  -0.01144837  1
  H+  H140  1  0.11865226  0.08847411  0.65402088  1
  H+  H141  1  0.53059773  0.63250449  -0.00177903  1
  H+  H142  1  0.11756651  0.27566941  0.36178459  1
  H+  H143  1  0.60776008  0.72280214  0.64954586  1
  H+  H144  1  0.02237020  0.11808013  0.82753308  1
  H+  H145  1  0.90873336  1.01268763  0.32016818  1
  H+  H146  1  0.61993968  0.63557235  0.47732218  1
  H+  H147  1  0.13051722  0.86217926  0.83637409  1
  H+  H148  1  0.03774172  0.03279620  0.29443169  1
  H+  H149  1  0.11994851  0.64770529  0.48683910  1
  H+  H150  1  0.36530200  -0.02463286  0.16993923  1
  H+  H151  1  0.73973901  0.62925354  0.99446606  1
  H+  H152  1  0.60885962  0.63503277  0.83617132  1
  H+  H153  1  0.49563233  0.85908446  0.17928395  1
  H+  H154  1  0.27729188  0.64261898  0.15453247  1
  H+  H155  1  0.66576542  0.83368445  0.22777701  1
  H+  H156  1  0.24979213  0.15138910  0.32990968  1
  H+  H157  1  0.76621347  0.39450014  0.34226007  1
  H+  H158  1  0.60287129  0.03219134  0.50962186  1
  H+  H159  1  0.86403643  0.49209925  0.66245019  1
  H+  H160  1  0.83250104  0.16445695  0.39931675  1
  H+  H161  1  0.08864981  0.96471217  0.48389735  1
  H+  H162  1  0.02517030  0.13503374  0.15699229  1
  H+  H163  1  0.71761629  0.38670502  0.50140268  1
  H+  H164  1  0.11693025  0.47186031  0.17004080  1
  H+  H165  1  0.36570792  -0.01252302  0.83636139  1
  H+  H166  1  0.63660582  0.26977463  0.99676645  1
  H+  H167  1  0.47476506  0.11524084  0.17528738  1
  H+  H168  1  0.14248854  0.86182797  0.32686433  1
  H+  H169  1  0.48008840  0.38812586  1.06750097  1
  H+  H170  1  0.86440479  0.97056735  0.00436807  1
  H+  H171  1  0.64052490  0.13181356  0.85075218  1
  H+  H172  1  0.13123079  0.61212014  0.81933855  1
  H+  H173  1  0.72223807  0.61355158  0.84058629  1
  H+  H174  1  0.66134294  0.49364173  0.02645622  1
  H+  H175  1  0.11641707  0.63246666  1.00753322  1
  H+  H176  1  0.97948859  0.62034638  0.65379279  1
  H+  H177  1  0.45935426  0.61872900  0.32572240  1
  H+  H178  1  0.88508869  0.10535839  0.99151944  1
  H+  H179  1  0.11820341  0.72223475  0.00432200  1
  H+  H180  1  0.11084366  0.34387435  0.83773095  1
  H+  H181  1  0.38352208  0.23851961  0.68467742  1
  H+  H182  1  0.28161261  0.13385352  0.83696645  1
  H+  H183  1  0.34133370  0.42129024  0.06006393  1
  H+  H184  1  0.21333613  0.09791751  0.49774137  1
  H+  H185  1  0.98601989  0.12279805  0.49874804  1
  H+  H186  1  0.20035874  0.08082125  0.63349595  1
  H+  H187  1  0.86741742  0.72875234  1.00850849  1
  H+  H188  1  0.61947957  0.85303175  0.56100856  1
  H+  H189  1  0.08448015  -0.01940425  0.31373979  1
  H+  H190  1  0.77935840  0.38279818  1.00331571  1
  H+  H191  1  0.77444129  0.12702313  0.16091980  1
  H+  H192  1  0.85344744  0.64713111  0.82074635  1
  H+  H193  1  0.97788744  0.61140184  0.99762262  1
  H+  H194  1  0.31347383  0.90241693  0.41167045  1
  H+  H195  1  0.63736844  0.36601286  0.84297248  1
  H+  H196  1  0.15563219  0.32224023  0.65612767  1
  H+  H197  1  0.87230930  0.36819720  0.65980210  1
  H+  H198  1  0.51913711  0.63779496  0.15021476  1
  H+  H199  1  0.11490996  0.96914417  0.00286067  1
  H+  H200  1  0.68617485  0.54202461  0.49763385  1
  H+  H201  1  0.47596307  0.86562824  0.67069842  1
  H+  H202  1  0.03290587  0.64447566  0.81112542  1
  H+  H203  1  0.88055950  0.25263968  0.51045349  1
  H+  H204  1  -0.00485092  0.10939015  0.32441762  1
  H+  H205  1  0.40195634  0.62096474  0.99119242  1
  H+  H206  1  0.37040663  0.10151264  -0.00078323  1
  H+  H207  1  0.46514330  0.85220081  0.52004620  1
  H+  H208  1  0.36969419  -0.02442144  0.36299634  1
  H+  H209  1  0.67316943  0.60712891  0.35787748  1
  H+  H210  1  0.67417949  -0.02337813  0.49938870  1
  H+  H211  1  0.86967255  0.67635323  0.49928541  1
  H+  H212  1  0.39082023  0.27961190  0.16990355  1
  H+  H213  1  0.96076114  0.85352162  0.32985986  1
  H+  H214  1  0.75193771  0.64519318  0.50591782  1
  H+  H215  1  0.15452204  0.78149599  0.32247878  1
  H+  H216  1  0.63656787  0.50945146  0.33699650  1
  H+  H217  1  0.01879809  0.88855194  0.82233159  1
  H+  H218  1  0.39335579  0.11588647  0.66578554  1
  H+  H219  1  0.84906961  0.87461859  0.66274928  1
  H+  H220  1  0.63602621  0.86773463  0.32423003  1
  H+  H221  1  0.07970426  0.90867984  0.76393847  1
  H+  H222  1  0.86956663  0.47343807  0.15585154  1
  H+  H223  1  0.61676953  0.72638290  0.83221242  1
  H+  H224  1  0.36490487  0.88852974  0.17864230  1
  H+  H225  1  0.52613623  0.88709578  0.35834636  1
  H+  H226  1  0.36703686  0.47901892  0.82094152  1
  H+  H227  1  0.56582242  0.46428496  0.48449555  1
  H+  H228  1  0.25881013  0.65276471  0.67919354  1
  H+  H229  1  0.72609649  0.10651322  0.99669193  1
  H+  H230  1  0.60341967  0.12890690  1.00777972  1
  H+  H231  1  0.02064060  0.79873869  0.36963116  1
  H+  H232  1  0.62939882  0.23099141  0.84470212  1
  H+  H233  1  0.87509795  0.78060815  0.83594733  1
  H+  H234  1  0.01654638  0.37714395  0.01571563  1
  H+  H235  1  0.48878052  0.12604509  0.51579239  1
  H+  H236  1  0.85444171  -0.03650854  0.65217148  1
  H+  H237  1  0.38693631  0.77389210  0.98462595  1
  H+  H238  1  0.63571956  0.52070098  0.84691089  1
  H+  H239  1  0.86567546  0.88468151  0.15914487  1
  H+  H240  1  0.28316401  0.64002219  0.00844084  1
  H+  H241  1  0.96311820  0.84914171  0.66284386  1
  H+  H242  1  0.11451811  0.34505483  -0.00700089  1
  H+  H243  1  0.02963728  0.88524351  0.15787742  1
  H+  H244  1  0.35970959  0.97588589  -0.00253389  1
  H+  H245  1  0.12090472  0.48806790  0.34429212  1
  H+  H246  1  0.39853549  0.14810128  0.34946633  1
  H+  H247  1  0.66991215  0.08454647  0.23390700  1
  H+  H248  1  0.64135479  0.02820328  0.33152900  1
  H+  H249  1  0.72657039  0.10895525  0.65440031  1
  H+  H250  1  0.80017534  0.85551910  0.84563381  1
  H+  H251  1  0.64798450  0.51997110  0.18819782  1
  H+  H252  1  0.04873248  0.63770377  0.33031535  1
  H+  H253  1  0.38659759  0.11309420  0.51266655  1
  H+  H254  1  0.58530349  0.63719688  0.32369913  1
  H+  H255  1  0.85866540  0.23388610  0.34781020  1
  H+  H256  1  0.86191376  0.63643537  1.00826336  1
  H+  H257  1  0.87132637  0.72747295  0.32594093  1
  H+  H258  1  0.73686601  0.11349109  0.84617766  1
  H+  H259  1  0.11062923  0.86849646  0.66895909  1
  H+  H260  1  0.67288464  0.83509468  0.93806294  1
  H+  H261  1  0.72693781  0.37282011  0.65374129  1
  H+  H262  1  0.53795245  0.89498366  0.83343971  1
  H+  H263  1  0.10865551  0.12438705  -0.00263347  1
  H+  H264  1  0.61556974  0.43646468  0.11821540  1
  H+  H265  1  0.62060884  0.15533713  0.50091477  1
  H+  H266  1  0.42768333  0.84000513  0.78636847  1
  H+  H267  1  0.38614935  0.53659002  0.65219838  1
  H+  H268  1  0.86368713  0.38100578  0.15440443  1
  H+  H269  1  0.88078316  0.87560215  0.52451266  1
  H+  H270  1  -0.00271050  0.88115716  0.50043399  1
  H+  H271  1  0.39235880  0.87020799  0.35301571  1
  H+  H272  1  0.88690598  0.35679089  0.99491465  1
  H+  H273  1  0.13693523  0.35815677  0.14773948  1
  H+  H274  1  0.76970231  0.88900106  0.33872233  1
  H+  H275  1  0.88533079  0.25617710  0.15732530  1
  H+  H276  1  0.36822145  0.39142301  0.81823455  1
  H+  H277  1  0.89184393  0.86060098  0.99602252  1
  H+  H278  1  0.23457299  0.36142920  0.14121220  1
  H+  H279  1  0.35685449  0.47437936  0.15992359  1
  H+  H280  1  0.87086956  0.00261317  0.84557531  1
  H+  H281  1  0.27277073  0.89777476  0.83265197  1
  H+  H282  1  0.13266493  0.31241380  -0.08329723  1
  H+  H283  1  0.40843091  0.37056744  0.66638782  1
  H+  H284  1  0.85369014  0.10866146  0.82651006  1
  H+  H285  1  0.10700373  0.55273728  0.66978290  1
  H+  H286  1  0.46482185  0.78683815  0.22833967  1
  H+  H287  1  0.09441263  0.40793038  0.66504664  1
  H+  H288  1  0.92468447  0.57906018  0.22578375  1
  H+  H289  1  0.89875953  0.29898428  0.21958302  1
  H+  H290  1  0.18600505  0.55247109  0.95242116  1
  H+  H291  1  0.82856374  0.15836544  0.72919796  1
  H+  H292  1  0.40766957  0.33441603  0.89481535  1
  H+  H293  1  0.58517645  0.16666721  0.40064514  1
  H+  H294  1  0.88875867  0.52209628  0.99262082  1
  H+  H295  1  0.04136593  0.14504809  0.67180968  1
  H+  H296  1  0.16513890  0.07685169  0.90157946  1
  H+  H297  1  0.55666840  0.40583477  0.42750081  1
  H+  H298  1  0.37874021  0.44441018  0.73389426  1
  H+  H299  1  0.17906391  0.78909157  0.47282462  1
  H+  H300  1  0.91876471  0.83755990  0.23139342  1
  H+  H301  1  0.92829070  0.60534544  0.90753718  1
  H+  H302  1  0.33380923  0.41024648  0.40404621  1
  H+  H303  1  0.32221743  0.16195027  0.10223871  1
  H+  H304  1  0.41337750  0.07783554  0.27089397  1
  H+  H305  1  0.40902983  0.82914526  0.57894914  1
  H+  H306  1  0.34760024  0.68028908  0.06294366  1
  H+  H307  1  0.62147401  0.37068441  0.50231440  1
  H+  H308  1  0.67630149  0.08536443  0.91138918  1
  H+  H309  1  0.82935139  0.65932193  0.10562881  1
  H+  H310  1  0.67423271  0.59020938  0.93136393  1
  H+  H311  1  0.09332431  0.66811597  0.10421544  1
  H+  H312  1  0.35007395  0.15854662  0.44413103  1
  H+  H313  1  0.42342068  0.08697531  0.57838713  1
  H+  H314  1  0.42406460  0.58790772  0.92965670  1
  H+  H315  1  0.93282062  0.61803167  0.55939794  1
  H+  H316  1  0.41962343  0.83130961  0.92387955  1
  H+  H317  1  0.16839389  0.83435167  0.23252327  1
  H+  H318  1  0.08770777  0.14518941  0.73403688  1
  H+  H319  1  0.49075378  0.36171112  0.66521498  1
  H+  H320  1  0.18989827  0.59581313  0.23208459  1
  H+  H321  1  0.07252152  0.42611102  0.43741708  1
  H+  H322  1  0.68822192  0.58564354  0.24981136  1
  H+  H323  1  0.90036767  0.32837894  0.60470627  1
  H+  H324  1  0.19695642  0.82845597  0.59869321  1
  H+  H325  1  0.42167610  0.08393564  0.90785033  1
  H+  H326  1  0.74792039  0.61365689  0.18307765  1
  H+  H327  1  0.85839150  0.72747257  0.66917107  1
  H+  H328  1  0.58602543  0.91940178  0.09954423  1
  H+  H329  1  0.41649858  0.33823996  0.22941735  1
  H+  H330  1  0.09062792  0.91044919  0.06401682  1
  H+  H331  1  0.43452780  0.32911825  0.98863910  1
  H+  H332  1  0.86353486  0.76394280  0.51231117  1
  H+  H333  1  0.83083802  0.43991092  0.72451521  1
  H+  H334  1  0.82899538  0.15153821  0.06524324  1
  H+  H335  1  1.01723216  0.22941953  0.62971969  1
  H+  H336  1  0.61221283  0.97845348  0.67474127  1
  H+  H337  1  0.14290284  0.06727823  0.54986564  1
  H+  H338  1  0.57663009  0.66532882  0.39357554  1
  H+  H339  1  0.18270307  0.33868096  0.25200773  1
  H+  H340  1  0.90842498  0.83313888  0.59817618  1
  H+  H341  1  0.42013346  0.84815735  0.28851417  1
  H+  H342  1  0.46009305  0.23206706  0.38529966  1
  H+  H343  1  0.91974403  0.36922062  0.29291811  1
  H+  H344  1  0.59217819  0.92403367  0.73659051  1
  H+  H345  1  0.83960534  0.41576808  0.06173109  1
  H+  H346  1  0.98070580  0.85825204  0.99444096  1
  H+  H347  1  0.82141690  0.67013512  0.75942461  1
  H+  H348  1  0.66665312  0.32991544  0.26910287  1
  H+  H349  1  0.14316789  0.06592915  0.22673327  1
  H+  H350  1  0.67030793  0.58056697  0.59335234  1
  H+  H351  1  0.38519741  0.11444259  0.17514070  1
  H+  H352  1  0.91939317  0.32055740  0.94014256  1
  H+  H353  1  0.40704256  0.58048410  0.22855697  1
  H+  H354  1  0.07446957  0.17468442  0.42412411  1
  H+  H355  1  0.33446171  0.92666161  0.73813855  1
  H+  H356  1  0.34753655  0.16742026  0.78028586  1
  H+  H357  1  0.07223807  0.02389242  0.95530481  1
  H+  H358  1  0.72947115  0.11897620  0.32979434  1
  H+  H359  1  0.82712823  0.91947799  0.39964709  1
  H+  H360  1  0.39088433  0.28268080  0.32739728  1
  H+  H361  1  0.13886594  0.58315996  0.88402420  1
  H+  H362  1  0.16406057  0.82978659  0.92925425  1
  H+  H363  1  0.31603834  0.85238067  0.52316440  1
  H+  H364  1  0.93275716  0.07612233  0.22846510  1
  H+  H365  1  0.31766376  0.67502095  0.43065625  1
  H+  H366  1  0.51476114  0.38388605  0.33211106  1
  H+  H367  1  0.07822016  0.40458713  0.07508377  1
  H+  H368  1  0.66361054  0.34370727  0.59632724  1
  H+  H369  1  0.08298109  0.15737456  0.05935042  1
  H+  H370  1  0.10005213  0.67404156  0.39348810  1
  H+  H371  1  0.40914210  0.31273506  0.57645679  1
  H+  H372  1  0.82423340  0.44867721  0.43093265  1
  H+  H373  1  0.57866593  0.16123127  0.06804434  1
  H+  H374  1  0.93827794  0.11201257  0.56235443  1
  H+  H375  1  0.20981141  0.31765627  0.25173002  1
  H+  H376  1  0.12052129  0.72737699  0.16391298  1
  H+  H377  1  0.91118685  0.83396852  0.89742225  1
  H+  H378  1  0.58802215  0.42218538  0.77107470  1
  H+  H379  1  0.66837327  0.33370015  0.93903942  1
  H+  H380  1  0.32028667  0.66632746  0.73551178  1
  H+  H381  1  0.85641252  0.39815542  0.35518527  1
  H+  H382  1  0.83492800  0.91259665  0.09944685  1
  H+  H383  1  0.42710129  0.60738706  0.55407607  1
  O2-  O384  1  0.08586121  0.16489108  0.14024982  1
  O2-  O385  1  0.07743202  0.17421576  0.47380692  1
  O2-  O386  1  0.08304888  0.15578365  0.81477775  1
  O2-  O387  1  0.08703579  0.41156812  0.15396110  1
  O2-  O388  1  0.07318405  0.42180897  0.48279465  1
  O2-  O389  1  0.06758792  0.40450437  0.80620875  1
  O2-  O390  1  0.09178370  0.66563853  0.14932541  1
  O2-  O391  1  0.10009387  0.68680674  0.46678115  1
  O2-  O392  1  0.09290717  0.67274669  0.79696574  1
  O2-  O393  1  0.08922657  0.91470751  0.14112978  1
  O2-  O394  1  0.05420696  0.90205941  0.47743147  1
  O2-  O395  1  0.07966464  0.91259073  0.80950938  1
  O2-  O396  1  0.33016207  0.16882603  0.14692450  1
  O2-  O397  1  0.33491296  0.14596255  0.48837390  1
  O2-  O398  1  0.34451974  0.16582833  0.82549861  1
  O2-  O399  1  0.32915757  0.41393081  0.14326903  1
  O2-  O400  1  0.32216595  0.39373648  0.47657471  1
  O2-  O401  1  0.34385683  0.42407653  0.79819752  1
  O2-  O402  1  0.33756402  0.67183884  0.13855996  1
  O2-  O403  1  0.32226550  0.67047312  0.47496442  1
  O2-  O404  1  0.32647714  0.66390919  0.81478849  1
  O2-  O405  1  0.33621162  0.91416769  0.15667370  1
  O2-  O406  1  0.26844374  0.86417654  0.53107017  1
  O2-  O407  1  0.33388929  0.92783300  0.81859944  1
  O2-  O408  1  0.58261461  0.16509144  0.14582459  1
  O2-  O409  1  0.58455234  0.17898013  0.48590783  1
  O2-  O410  1  0.60191642  0.16754044  0.83679651  1
  O2-  O411  1  0.59894861  0.43145118  0.16275132  1
  O2-  O412  1  0.55254681  0.40614678  0.47327203  1
  O2-  O413  1  0.58711922  0.41962503  0.81667159  1
  O2-  O414  1  0.57746542  0.66808986  0.13215128  1
  O2-  O415  1  0.59050633  0.66361126  0.45815483  1
  O2-  O416  1  0.57870545  0.66533244  0.82262993  1
  O2-  O417  1  0.58914234  0.92094636  0.14481652  1
  O2-  O418  1  0.65715027  0.91907409  0.48291978  1
  O2-  O419  1  0.59836333  0.92301989  0.81989492  1
  O2-  O420  1  0.83333381  0.15397433  0.14219310  1
  O2-  O421  1  0.83772606  0.15976069  0.48014361  1
  O2-  O422  1  0.82533663  0.14265177  0.81377594  1
  O2-  O423  1  0.83487388  0.41277593  0.14063227  1
  O2-  O424  1  0.82250423  0.45684807  0.47672878  1
  O2-  O425  1  0.84028155  0.45836978  0.80872825  1
  O2-  O426  1  0.83239132  0.65743839  0.15084963  1
  O2-  O427  1  0.83102428  0.69975502  0.49212128  1
  O2-  O428  1  0.81871089  0.67158375  0.80583579  1
  O2-  O429  1  0.83418997  0.91429269  0.14491265  1
  O2-  O430  1  0.82134612  0.92957627  0.47755136  1
  O2-  O431  1  0.77471709  0.89264401  0.83804314  1
  O2-  O432  1  0.16229067  0.08025632  0.18293472  1
  O2-  O433  1  0.15189561  0.07698244  0.50530735  1
  O2-  O434  1  0.17647003  0.08375173  0.85502845  1
  O2-  O435  1  0.16787260  0.32699896  0.13333480  1
  O2-  O436  1  0.15524597  0.33423858  0.51843137  1
  O2-  O437  1  0.13520587  0.31250536  0.85985002  1
  O2-  O438  1  0.17600922  0.58333411  0.18833385  1
  O2-  O439  1  0.15557304  0.59386539  0.51584770  1
  O2-  O440  1  0.15339982  0.57798408  0.84208822  1
  O2-  O441  1  0.16703821  0.83055737  0.18638668  1
  O2-  O442  1  0.22695688  0.85136049  0.47137595  1
  O2-  O443  1  0.16402134  0.83455445  0.85181814  1
  O2-  O444  1  0.41509846  0.08474778  0.19176710  1
  O2-  O445  1  0.42711748  0.09078791  0.53107117  1
  O2-  O446  1  0.42987545  0.08805861  0.86279023  1
  O2-  O447  1  0.42197306  0.34070689  0.18404070  1
  O2-  O448  1  0.39826969  0.30202459  0.53171164  1
  O2-  O449  1  0.41948705  0.33746567  0.85020473  1
  O2-  O450  1  0.40873924  0.57744821  0.18311445  1
  O2-  O451  1  0.44075533  0.61734358  0.51027293  1
  O2-  O452  1  0.41522026  0.58302642  0.85563823  1
  O2-  O453  1  0.44339601  0.81742498  0.20377646  1
  O2-  O454  1  0.40552065  0.82870405  0.53351953  1
  O2-  O455  1  0.41598078  0.84340795  0.82948548  1
  O2-  O456  1  0.67157531  0.08657240  0.18834358  1
  O2-  O457  1  0.65979706  0.07855477  0.52122901  1
  O2-  O458  1  0.67612782  0.09012129  0.86395402  1
  O2-  O459  1  0.67137762  0.33140771  0.19104768  1
  O2-  O460  1  0.65807276  0.34678342  0.51619783  1
  O2-  O461  1  0.67160340  0.33940975  0.85856537  1
  O2-  O462  1  0.68699635  0.58310780  0.20392029  1
  O2-  O463  1  0.68209017  0.59027948  0.51372398  1
  O2-  O464  1  0.66664046  0.58098701  0.86365772  1
  O2-  O465  1  0.66622535  0.83371282  0.18217459  1
  O2-  O466  1  0.58853471  0.86253386  0.52551151  1
  O2-  O467  1  0.68532943  0.84136408  0.86013952  1
  O2-  O468  1  0.92413540  0.08192153  0.18329402  1
  O2-  O469  1  0.92601890  0.09297008  0.51918553  1
  O2-  O470  1  0.91057068  0.06436786  0.85318089  1
  O2-  O471  1  0.91322530  0.31543621  0.17706436  1
  O2-  O472  1  0.90039917  0.31358247  0.52554650  1
  O2-  O473  1  0.91629358  0.30615561  0.85830907  1
  O2-  O474  1  0.92115711  0.57934955  0.17983949  1
  O2-  O475  1  0.93692702  0.62851092  0.51471149  1
  O2-  O476  1  0.93677412  0.62558343  0.86333533  1
  O2-  O477  1  0.92238160  0.83604370  0.18567127  1
  O2-  O478  1  0.91093090  0.84511287  0.53627206  1
  O2-  O479  1  0.90568913  0.83972718  0.85289900  1
  O2-  O480  1  0.09316491  0.03215467  0.29280425  1
  O2-  O481  1  0.13828648  0.05218073  0.62931417  1
  O2-  O482  1  0.13170206  0.05912966  0.96900336  1
  O2-  O483  1  0.15007517  0.34242310  0.36674376  1
  O2-  O484  1  0.11512647  0.33094079  0.63189741  1
  O2-  O485  1  0.13711533  0.31239816  0.97001222  1
  O2-  O486  1  0.21831629  0.62233763  0.31375166  1
  O2-  O487  1  0.14515250  0.61548585  0.66129003  1
  O2-  O488  1  0.16992555  0.56729494  0.99100203  1
  O2-  O489  1  0.17718875  0.84065693  0.30648662  1
  O2-  O490  1  0.17865401  0.81939534  0.64191160  1
  O2-  O491  1  0.17063697  0.83063788  0.97471899  1
  O2-  O492  1  0.41633464  0.07780515  0.31636914  1
  O2-  O493  1  0.41898252  0.08347641  0.64681145  1
  O2-  O494  1  0.40475004  0.07370613  0.98660134  1
  O2-  O495  1  0.41446099  0.34007039  0.30855612  1
  O2-  O496  1  0.42787515  0.32905608  0.65332787  1
  O2-  O497  1  0.37803019  0.30857881  0.97028976  1
  O2-  O498  1  0.40029396  0.58229600  0.30846113  1
  O2-  O499  1  0.40328725  0.59318399  0.63371230  1
  O2-  O500  1  0.43102067  0.59026388  0.97556563  1
  O2-  O501  1  0.41357475  0.83319685  0.33186870  1
  O2-  O502  1  0.41435520  0.83929803  0.65772103  1
  O2-  O503  1  0.41542654  0.83486710  0.96815783  1
  O2-  O504  1  0.66788318  0.08695004  0.31400519  1
  O2-  O505  1  0.66599068  0.07829002  0.63930117  1
  O2-  O506  1  0.66622855  0.07853370  0.97891510  1
  O2-  O507  1  0.66239406  0.33156772  0.31458061  1
  O2-  O508  1  0.66522231  0.33926901  0.64139150  1
  O2-  O509  1  0.67311066  0.33089218  0.98402047  1
  O2-  O510  1  0.67528343  0.57190209  0.32491299  1
  O2-  O511  1  0.66523134  0.57969958  0.63874958  1
  O2-  O512  1  0.67701034  0.59729829  0.97887136  1
  O2-  O513  1  0.66385246  0.83646473  0.30675778  1
  O2-  O514  1  0.65357916  0.83718614  0.62770736  1
  O2-  O515  1  0.66748421  0.83256694  0.98334280  1
  O2-  O516  1  0.95687922  0.05825162  0.29623467  1
  O2-  O517  1  0.97124936  0.16789127  0.63261848  1
  O2-  O518  1  0.91492931  0.07507538  0.97566946  1
  O2-  O519  1  0.91799737  0.35419748  0.33560313  1
  O2-  O520  1  0.90128088  0.33444675  0.64984382  1
  O2-  O521  1  0.91681241  0.32347948  0.98512841  1
  O2-  O522  1  0.93709708  0.58561036  0.30058977  1
  O2-  O523  1  0.91993547  0.59427621  0.63859380  1
  O2-  O524  1  0.91823727  0.58445715  0.98065215  1
  O2-  O525  1  0.90542354  0.83227763  0.30694898  1
  O2-  O526  1  0.90359140  0.82251352  0.64776474  1
  O2-  O527  1  0.91957500  0.82786266  0.98017083  1
  O2-  O528  1  0.08110589  0.15942256  0.01417813  1
  O2-  O529  1  0.07260339  0.17988596  0.36137689  1
  O2-  O530  1  0.09276483  0.14532908  0.68902879  1
  O2-  O531  1  0.07815248  0.40537827  0.02961975  1
  O2-  O532  1  0.08028772  0.43077426  0.35999729  1
  O2-  O533  1  0.06638212  0.43614940  0.68699917  1
  O2-  O534  1  0.08616117  0.66277486  0.02106003  1
  O2-  O535  1  0.10728374  0.67177038  0.34788656  1
  O2-  O536  1  0.09355490  0.65602161  0.67720215  1
  O2-  O537  1  0.08990239  0.90763018  0.01825477  1
  O2-  O538  1  0.04681071  0.86109986  0.36740341  1
  O2-  O539  1  0.08076826  0.89732895  0.68623382  1
  O2-  O540  1  0.30466310  0.14407885  0.01670950  1
  O2-  O541  1  0.39955385  0.19613549  0.37483316  1
  O2-  O542  1  0.35366704  0.17671797  0.70124115  1
  O2-  O543  1  0.33965575  0.41924388  0.01518122  1
  O2-  O544  1  0.33332507  0.41301718  0.35776861  1
  O2-  O545  1  0.40443501  0.45715548  0.69014183  1
  O2-  O546  1  0.34516626  0.67775297  0.01710873  1
  O2-  O547  1  0.30236283  0.66185827  0.34519952  1
  O2-  O548  1  0.31932030  0.67331063  0.69056679  1
  O2-  O549  1  0.32824574  0.90985643  0.00313696  1
  O2-  O550  1  0.36822067  0.93015473  0.38902464  1
  O2-  O551  1  0.33511625  0.92428834  0.69290733  1
  O2-  O552  1  0.57355019  0.15939406  0.02237974  1
  O2-  O553  1  0.58510640  0.16609182  0.35562933  1
  O2-  O554  1  0.59620283  0.16781359  0.67439847  1
  O2-  O555  1  0.67126739  0.45694831  0.05425520  1
  O2-  O556  1  0.57319873  0.40787756  0.35212726  1
  O2-  O557  1  0.58997162  0.42291056  0.69131358  1
  O2-  O558  1  0.59126260  0.66095736  0.01552807  1
  O2-  O559  1  0.56622966  0.67105299  0.34647701  1
  O2-  O560  1  0.57774226  0.66132041  0.66116324  1
  O2-  O561  1  0.58337150  0.91548385  0.01826043  1
  O2-  O562  1  0.58963717  0.91956801  0.36393519  1
  O2-  O563  1  0.58125894  0.91900187  0.69220066  1
  O2-  O564  1  0.82784111  0.15375670  0.01959451  1
  O2-  O565  1  0.82722530  0.17145764  0.35500262  1
  O2-  O566  1  0.83111029  0.16780962  0.68463878  1
  O2-  O567  1  0.84119886  0.41595319  0.01612587  1
  O2-  O568  1  0.82516328  0.43087627  0.35984954  1
  O2-  O569  1  0.83094585  0.43228740  0.68007248  1
  O2-  O570  1  0.83163906  0.66698258  0.02286435  1
  O2-  O571  1  0.86172811  0.67002574  0.33888114  1
  O2-  O572  1  0.83029041  0.66533269  0.68562220  1
  O2-  O573  1  0.83671655  0.91049894  0.02053830  1
  O2-  O574  1  0.82960897  0.91521427  0.35429378  1
  O2-  O575  1  0.81647239  0.90623650  0.66810836  1
