# generated using pymatgen
data_H2O
_symmetry_space_group_name_H-M   'P 1'
_cell_length_a   17.99081237
_cell_length_b   17.99730115
_cell_length_c   22.00057323
_cell_angle_alpha   90.00695125
_cell_angle_beta   90.00628681
_cell_angle_gamma   119.98505247
_symmetry_Int_Tables_number   1
_chemical_formula_structural   H2O
_chemical_formula_sum   'H384 O192'
_cell_volume   6170.04269219
_cell_formula_units_Z   192
loop_
 _symmetry_equiv_pos_site_id
 _symmetry_equiv_pos_as_xyz
  1  'x, y, z'
loop_
 _atom_type_symbol
 _atom_type_oxidation_number
  H+  1.0
  O2-  -2.0
loop_
 _atom_site_type_symbol
 _atom_site_label
 _atom_site_symmetry_multiplicity
 _atom_site_fract_x
 _atom_site_fract_y
 _atom_site_fract_z
 _atom_site_occupancy
  H+  H0  1  0.63583284  0.48057150  0.49999442  1
  H+  H1  1  0.48159600  0.36131640  -0.01022514  1
  H+  H2  1  0.23377032  0.11934984  0.65786117  1
  H+  H3  1  0.02064271  0.13545097  0.82900842  1
  H+  H4  1  0.20990396  0.34157712  0.17912629  1
  H+  H5  1  0.37280203  0.82402736  0.31824859  1
  H+  H6  1  0.91922206  0.07130237  0.72599744  1
  H+  H7  1  0.37702297  0.84852306  0.65902424  1
  H+  H8  1  0.62447580  0.39293910  0.34841157  1
  H+  H9  1  0.77713594  0.88153510  0.16596875  1
  H+  H10  1  0.65043123  0.38371420  0.82807254  1
  H+  H11  1  0.72941374  0.60883263  0.84258320  1
  H+  H12  1  0.33911188  0.97986896  0.81742270  1
  H+  H13  1  0.84900941  0.36157548  0.14491903  1
  H+  H14  1  0.12080451  0.46974987  0.15198485  1
  H+  H15  1  0.22338302  0.10029655  0.17880961  1
  H+  H16  1  0.64547780  0.07719827  0.28033684  1
  H+  H17  1  0.11786705  -0.01185646  0.33842445  1
  H+  H18  1  0.22560984  0.36058988  0.50669852  1
  H+  H19  1  0.38557111  0.26298572  0.16603956  1
  H+  H20  1  0.67901111  0.58221673  0.10878114  1
  H+  H21  1  0.72589631  0.11238184  0.66819517  1
  H+  H22  1  0.65328490  0.02012658  0.80707601  1
  H+  H23  1  0.90957334  0.07949963  0.93304171  1
  H+  H24  1  0.88578595  1.11408104  0.83999233  1
  H+  H25  1  0.76704452  0.88552485  0.50270186  1
  H+  H26  1  0.46988261  0.60703318  0.67175473  1
  H+  H27  1  0.89033385  0.51735049  0.65425030  1
  H+  H28  1  0.12372594  0.73943243  0.50551962  1
  H+  H29  1  0.38715082  0.36463514  0.66085086  1
  H+  H30  1  0.71899870  0.34465589  0.16535159  1
  H+  H31  1  0.47587970  0.10955068  0.18389248  1
  H+  H32  1  0.63972868  0.00196573  0.17719716  1
  H+  H33  1  -0.02123951  0.35738568  0.51179914  1
  H+  H34  1  0.58795483  0.96993609  0.34651133  1
  H+  H35  1  0.87286187  0.73490400  -0.00156968  1
  H+  H36  1  0.76521745  0.12695161  0.34382290  1
  H+  H37  1  0.35403827  0.63943447  0.09364194  1
  H+  H38  1  0.11408936  0.72914014  0.15936700  1
  H+  H39  1  0.22260251  0.60373115  0.33446171  1
  H+  H40  1  0.78006797  0.64231137  0.34479013  1
  H+  H41  1  0.61817401  0.74063219  0.28966412  1
  H+  H42  1  0.61827673  0.47698634  0.35499309  1
  H+  H43  1  0.78313978  0.64881750  0.49600327  1
  H+  H44  1  0.61182516  0.38617544  0.65797028  1
  H+  H45  1  0.11062923  0.84446062  0.84521262  1
  H+  H46  1  0.02488797  0.62996068  0.67233918  1
  H+  H47  1  0.88914687  0.86761462  0.50278990  1
  H+  H48  1  0.36504099  0.39666750  0.49307127  1
  H+  H49  1  0.14352459  0.03187735  0.66224053  1
  H+  H50  1  0.86443383  0.14084066  0.68273887  1
  H+  H51  1  0.26029814  0.34854761  0.82183535  1
  H+  H52  1  0.38686399  0.76295072  0.50771165  1
  H+  H53  1  0.52160885  0.87931573  0.15636030  1
  H+  H54  1  0.13072677  0.86489758  0.66847197  1
  H+  H55  1  0.64535188  0.62297701  0.31375549  1
  H+  H56  1  0.04425543  0.70140145  0.83483806  1
  H+  H57  1  0.48181667  0.45774700  0.54307309  1
  H+  H58  1  0.36683002  0.23288596  0.66759413  1
  H+  H59  1  0.61844061  0.48315985  0.82097191  1
  H+  H60  1  0.86561178  0.35401978  0.32099095  1
  H+  H61  1  0.11028205  0.46194581  0.34638729  1
  H+  H62  1  0.97936809  0.61253656  0.18249137  1
  H+  H63  1  0.77015565  0.88464927  0.01160740  1
  H+  H64  1  0.17287375  0.06593166  0.79404773  1
  H+  H65  1  0.10175983  0.21101953  0.16898410  1
  H+  H66  1  0.06362992  0.91179983  0.06080748  1
  H+  H67  1  0.13877920  0.10727700  0.18927644  1
  H+  H68  1  0.37759088  0.52185238  1.03105797  1
  H+  H69  1  0.09033443  0.58171909  0.84571024  1
  H+  H70  1  0.71897916  0.59845916  0.66311299  1
  H+  H71  1  0.64551448  0.28150513  0.63222675  1
  H+  H72  1  0.62501883  0.15176464  0.67006299  1
  H+  H73  1  0.11903745  0.89134967  0.34098624  1
  H+  H74  1  0.12389433  0.38885118  0.82123385  1
  H+  H75  1  0.36200332  0.35139580  0.82128438  1
  H+  H76  1  0.85930060  0.89102071  0.65778697  1
  H+  H77  1  0.83228841  0.19935596  0.02142129  1
  H+  H78  1  0.58085726  0.65915432  0.77452257  1
  H+  H79  1  0.47027090  0.84972325  0.99342722  1
  H+  H80  1  1.02522337  0.89647437  0.48886696  1
  H+  H81  1  0.61870831  0.23117857  0.50839701  1
  H+  H82  1  0.11301012  0.47395775  0.49981211  1
  H+  H83  1  0.64478611  0.28425320  0.32917781  1
  H+  H84  1  0.52118910  0.37482237  0.15451609  1
  H+  H85  1  0.37997323  0.60785214  0.67163496  1
  H+  H86  1  0.35851179  0.88000282  0.15827509  1
  H+  H87  1  0.35463561  0.15057494  0.34409439  1
  H+  H88  1  0.35923853  0.12890643  0.16152447  1
  H+  H89  1  0.02757544  0.13638966  0.49809301  1
  H+  H90  1  0.49101015  0.10842392  0.84488122  1
  H+  H91  1  0.39062791  0.93944070  0.34054014  1
  H+  H92  1  0.83236221  0.97551233  0.32399051  1
  H+  H93  1  0.79123488  0.64207317  0.00128499  1
  H+  H94  1  0.45901606  0.01521257  0.86803420  1
  H+  H95  1  0.89747500  0.36930457  0.82220040  1
  H+  H96  1  0.13322344  0.63941019  0.00530713  1
  H+  H97  1  0.61023338  0.46429224  0.15231798  1
  H+  H98  1  0.17208542  0.33277919  0.60128382  1
  H+  H99  1  0.87161226  0.76414532  0.83627010  1
  H+  H100  1  0.54182354  0.16166854  0.66690409  1
  H+  H101  1  0.38548860  0.35144861  0.17266067  1
  H+  H102  1  0.25207262  0.65263211  0.82183303  1
  H+  H103  1  0.71416786  0.85453679  0.65686314  1
  H+  H104  1  0.63512769  0.02461890  0.67097167  1
  H+  H105  1  0.60829862  0.72570985  0.50152375  1
  H+  H106  1  0.36070332  0.62963967  0.49991175  1
  H+  H107  1  0.73252245  0.86345734  0.83790873  1
  H+  H108  1  0.64430866  0.52564357  0.99591267  1
  H+  H109  1  0.77830480  0.38664537  0.65575019  1
  H+  H110  1  0.90101598  0.31206094  0.97398261  1
  H+  H111  1  0.13595742  0.61319759  0.65951363  1
  H+  H112  1  0.29282230  0.14434916  0.82425954  1
  H+  H113  1  0.34177363  0.94352092  0.64227697  1
  H+  H114  1  0.13215116  0.85680160  -0.00589747  1
  H+  H115  1  0.89685699  0.62153749  0.18085199  1
  H+  H116  1  0.14362533  0.88462288  0.50889692  1
  H+  H117  1  0.09033883  0.95686342  0.83410461  1
  H+  H118  1  0.36474844  0.79589945  0.84039375  1
  H+  H119  1  0.99977976  0.86999425  0.82875697  1
  H+  H120  1  0.88148969  0.10716769  -0.00481440  1
  H+  H121  1  0.61460243  0.63445058  0.00999683  1
  H+  H122  1  0.08125074  0.98768660  0.15254061  1
  H+  H123  1  0.35458170  0.47747742  0.49850583  1
  H+  H124  1  0.28478280  0.63427012  0.14314901  1
  H+  H125  1  0.33107965  0.51748253  0.84273882  1
  H+  H126  1  0.67426727  0.58608562  0.56877197  1
  H+  H127  1  0.67206189  1.00761614  0.83293812  1
  H+  H128  1  0.13069988  0.48775591  -0.00233969  1
  H+  H129  1  0.10907997  0.96747150  0.00261115  1
  H+  H130  1  0.52116906  0.38141753  0.66788719  1
  H+  H131  1  0.03282723  0.38618941  0.81866733  1
  H+  H132  1  0.41325801  0.05696369  0.67315057  1
  H+  H133  1  0.36590377  0.39037269  1.00237108  1
  H+  H134  1  0.01196700  0.11944933  0.34519313  1
  H+  H135  1  0.14224879  0.36656364  0.65912043  1
  H+  H136  1  0.09337458  0.66833624  0.10097013  1
  H+  H137  1  0.15333349  0.63649105  0.17409992  1
  H+  H138  1  0.42125370  0.07124137  0.94099831  1
  H+  H139  1  0.77909049  0.39897855  0.34331443  1
  H+  H140  1  0.62268365  0.11512094  0.33852221  1
  H+  H141  1  0.87543662  0.10740973  0.33311788  1
  H+  H142  1  0.34961558  0.45721500  0.18952945  1
  H+  H143  1  0.39143295  0.76860901  0.16053023  1
  H+  H144  1  0.12681945  0.51885652  0.83329115  1
  H+  H145  1  1.03058555  0.90429569  0.67172231  1
  H+  H146  1  0.13787378  0.52385066  0.65778058  1
  H+  H147  1  0.09065212  0.41760996  0.72673374  1
  H+  H148  1  0.52014918  0.88257983  0.49932973  1
  H+  H149  1  0.13601220  0.30513523  0.26822956  1
  H+  H150  1  0.31976578  0.37829753  0.23498538  1
  H+  H151  1  0.86418244  0.22900490  0.67522442  1
  H+  H152  1  0.88225188  0.86876272  0.99115131  1
  H+  H153  1  0.85834673  0.97505108  0.01048588  1
  H+  H154  1  0.98538583  0.62784332  0.51274106  1
  H+  H155  1  0.11523211  0.38567285  0.50218104  1
  H+  H156  1  1.00250372  0.62956250  0.99173426  1
  H+  H157  1  0.36613728  0.50906699  0.85298253  1
  H+  H158  1  0.35106734  0.13221392  0.49460320  1
  H+  H159  1  0.63032634  0.17237115  0.83198258  1
  H+  H160  1  0.79507008  0.65210465  0.15674707  1
  H+  H161  1  0.88909450  0.50597565  -0.00107770  1
  H+  H162  1  0.63792031  0.11046097  0.51331259  1
  H+  H163  1  0.24329689  0.61351363  0.96804571  1
  H+  H164  1  0.39389786  0.40988064  0.34174225  1
  H+  H165  1  0.59468822  0.19767347  0.02944941  1
  H+  H166  1  0.46578460  0.61098609  1.03009417  1
  H+  H167  1  0.63695287  0.84882521  0.84364881  1
  H+  H168  1  0.48470606  0.63099013  0.31483240  1
  H+  H169  1  0.12161492  0.64657012  0.34647134  1
  H+  H170  1  0.62786928  0.51597614  0.65670471  1
  H+  H171  1  0.47953412  0.65946244  0.84895895  1
  H+  H172  1  0.47082663  0.60933631  0.52215318  1
  H+  H173  1  0.38660393  0.02161708  0.18141629  1
  H+  H174  1  0.60982952  0.87197104  0.00673509  1
  H+  H175  1  0.85991202  0.88495769  0.81785829  1
  H+  H176  1  0.35962244  0.61998453  0.34176553  1
  H+  H177  1  0.02796361  0.38481383  0.66871897  1
  H+  H178  1  0.12241242  0.34111264  0.33083203  1
  H+  H179  1  0.38096423  0.23007010  0.82158461  1
  H+  H180  1  0.89304890  0.27197815  0.16766082  1
  H+  H181  1  0.91493648  0.63399063  0.98258905  1
  H+  H182  1  0.12439593  0.14680768  0.67541151  1
  H+  H183  1  0.51589101  0.87804815  0.67501463  1
  H+  H184  1  0.26799886  0.63264349  0.66959180  1
  H+  H185  1  0.68074526  0.30779933  0.97181252  1
  H+  H186  1  0.60336813  0.41564881  0.44348042  1
  H+  H187  1  0.13634405  0.12337832  0.50458158  1
  H+  H188  1  0.32054174  0.91418627  0.07370901  1
  H+  H189  1  0.38366359  0.04949381  0.33679405  1
  H+  H190  1  0.61534530  0.13462389  0.17899632  1
  H+  H191  1  0.62208606  0.08987152  1.00720489  1
  H+  H192  1  0.50703880  0.78930888  0.82717119  1
  H+  H193  1  0.16091406  0.57784606  0.27725814  1
  H+  H194  1  0.12410718  0.34438392  0.16153353  1
  H+  H195  1  0.13681634  0.26971120  0.83874751  1
  H+  H196  1  0.60734063  0.62923776  0.67609734  1
  H+  H197  1  0.63001743  0.85546103  0.17017037  1
  H+  H198  1  0.64524980  0.36809046  0.53184664  1
  H+  H199  1  0.14158782  0.78055642  0.33257775  1
  H+  H200  1  0.23480136  0.67525718  0.21541725  1
  H+  H201  1  0.60550420  -0.04101810  1.00592271  1
  H+  H202  1  0.25285195  0.12999376  0.49756002  1
  H+  H203  1  0.60314246  0.71606451  0.16668106  1
  H+  H204  1  -0.02099739  0.36245401  0.16297785  1
  H+  H205  1  0.13250998  0.86429511  0.17812976  1
  H+  H206  1  0.38356206  0.59751969  0.17218730  1
  H+  H207  1  -0.01463439  0.12010279  0.67581341  1
  H+  H208  1  0.78823946  0.40269999  0.81675791  1
  H+  H209  1  0.26168036  0.80087920  0.45435793  1
  H+  H210  1  0.36232035  0.88055409  0.83916946  1
  H+  H211  1  0.89911376  0.63222444  0.51173917  1
  H+  H212  1  0.50797718  0.39689702  0.51150025  1
  H+  H213  1  0.90809360  0.80270954  0.64662130  1
  H+  H214  1  0.90451279  0.03217247  0.52140521  1
  H+  H215  1  0.11263722  -0.01106015  0.49047420  1
  H+  H216  1  0.64257284  0.61383716  0.51028954  1
  H+  H217  1  0.35887818  0.13222253  0.00630727  1
  H+  H218  1  0.13446805  0.10689421  0.98199314  1
  H+  H219  1  0.85323537  0.85198525  0.30274805  1
  H+  H220  1  0.27118387  0.88480448  0.16391635  1
  H+  H221  1  0.39592352  0.13398343  0.66115191  1
  H+  H222  1  0.27229346  0.13530020  1.00452781  1
  H+  H223  1  0.83114248  0.41298008  0.71930050  1
  H+  H224  1  0.87594953  0.78035680  0.31288068  1
  H+  H225  1  0.63107362  0.85983132  0.50760967  1
  H+  H226  1  0.32062576  0.67152445  0.73110982  1
  H+  H227  1  0.19409173  0.83961776  0.83574133  1
  H+  H228  1  0.64043399  0.61085263  0.84255309  1
  H+  H229  1  0.35041068  0.67460032  0.82354369  1
  H+  H230  1  0.36179920  0.70788310  0.34020637  1
  H+  H231  1  0.70652654  0.86987847  0.27130818  1
  H+  H232  1  0.13922749  0.36844174  0.98357551  1
  H+  H233  1  0.31823348  0.16314807  0.43122121  1
  H+  H234  1  0.61429786  0.22357237  0.17191459  1
  H+  H235  1  0.87624330  0.01557899  0.18077432  1
  H+  H236  1  0.39089479  0.03269636  0.51090139  1
  H+  H237  1  0.70799458  0.03627203  0.22892056  1
  H+  H238  1  0.01750754  0.13419382  -0.00725066  1
  H+  H239  1  0.74627789  0.15976566  0.85430927  1
  H+  H240  1  0.89298046  0.35976303  0.65784854  1
  H+  H241  1  0.38062055  0.76168716  0.65926103  1
  H+  H242  1  0.12137584  0.10262330  0.33059533  1
  H+  H243  1  0.96592766  0.58676045  0.89765968  1
  H+  H244  1  0.51485801  0.62421019  0.16401021  1
  H+  H245  1  0.84882142  0.68973834  0.67971130  1
  H+  H246  1  0.22611195  0.61189866  0.50825180  1
  H+  H247  1  0.85724362  0.60658699  0.67404008  1
  H+  H248  1  0.87066359  0.64631689  0.34454652  1
  H+  H249  1  0.36151443  0.47467704  0.68218605  1
  H+  H250  1  0.63303725  0.35130566  0.17043896  1
  H+  H251  1  0.22709738  0.87333674  0.51051835  1
  H+  H252  1  0.88596914  0.48130819  0.81465348  1
  H+  H253  1  0.85362808  0.97485665  0.66609755  1
  H+  H254  1  0.13451413  0.27652667  -0.02125790  1
  H+  H255  1  0.25862059  0.88361445  0.00708725  1
  H+  H256  1  1.03709559  0.40594090  0.99573519  1
  H+  H257  1  0.86745918  0.21788352  0.50831878  1
  H+  H258  1  0.11036634  0.71956882  0.67213296  1
  H+  H259  1  0.77739996  0.37760773  0.50254875  1
  H+  H260  1  0.34170763  0.17430996  0.72862122  1
  H+  H261  1  0.22835922  0.87294215  0.32763236  1
  H+  H262  1  0.40703506  0.57681008  0.57936434  1
  H+  H263  1  0.13753678  0.27052996  0.50784692  1
  H+  H264  1  0.52419806  0.15700223  0.34899486  1
  H+  H265  1  0.48800458  0.37003837  0.83503168  1
  H+  H266  1  0.87697926  0.23493323  0.82748684  1
  H+  H267  1  0.60511922  0.71694320  0.67607447  1
  H+  H268  1  0.62429743  0.85247494  0.66193481  1
  H+  H269  1  0.32651477  0.15541575  0.10120705  1
  H+  H270  1  0.88494014  0.65040382  0.82462340  1
  H+  H271  1  0.79779464  0.42069904  0.99109660  1
  H+  H272  1  0.92286044  0.89370154  0.17049102  1
  H+  H273  1  0.84784634  0.21526462  0.32832258  1
  H+  H274  1  0.52809639  0.14794524  0.50032589  1
  H+  H275  1  0.25757410  0.13360706  0.34661922  1
  H+  H276  1  0.90436941  0.40147651  -0.01931479  1
  H+  H277  1  0.34978588  0.85066918  0.48917377  1
  H+  H278  1  0.35507914  0.97961924  0.01048995  1
  H+  H279  1  0.89279548  0.77933492  0.50196352  1
  H+  H280  1  0.39162021  0.27321342  0.98970384  1
  H+  H281  1  0.77661642  0.13115331  0.16624661  1
  H+  H282  1  0.85468580  0.67477678  0.09933801  1
  H+  H283  1  0.62315455  0.39475037  0.99928295  1
  H+  H284  1  0.47250377  0.85011035  0.32701516  1
  H+  H285  1  0.62138121  0.72120178  0.83166892  1
  H+  H286  1  -0.01837064  0.62349608  0.33402166  1
  H+  H287  1  0.86437804  0.13009640  0.16693770  1
  H+  H288  1  0.12565890  0.64970570  0.50138879  1
  H+  H289  1  0.40997618  0.82352114  0.56714792  1
  H+  H290  1  0.27222935  0.38460325  0.67301889  1
  H+  H291  1  0.96613527  0.10224662  0.18946507  1
  H+  H292  1  0.60922907  0.97213252  0.49937880  1
  H+  H293  1  0.64838153  0.29426642  0.83215861  1
  H+  H294  1  0.33408683  0.65620124  0.43679449  1
  H+  H295  1  0.92110298  0.58942880  0.60081122  1
  H+  H296  1  0.68931733  0.36515889  0.91569493  1
  H+  H297  1  0.59354941  0.18471911  0.76768053  1
  H+  H298  1  0.78078691  0.12785678  0.50895177  1
  H+  H299  1  0.46623925  0.09708146  0.00680819  1
  H+  H300  1  0.16973973  0.07268405  0.92960909  1
  H+  H301  1  0.37449376  0.71929312  -0.03035038  1
  H+  H302  1  0.17638879  0.33799516  0.89378289  1
  H+  H303  1  0.08370338  0.16176918  0.43500727  1
  H+  H304  1  0.16218451  0.58109653  0.92562184  1
  H+  H305  1  0.82301070  0.14363524  0.07824544  1
  H+  H306  1  0.82960622  0.91482327  0.75846723  1
  H+  H307  1  0.63904323  0.76696746  0.99660139  1
  H+  H308  1  0.12415306  0.23616396  0.67612048  1
  H+  H309  1  0.07507274  0.91632004  0.73714689  1
  H+  H310  1  0.86904664  0.48522190  0.34733907  1
  H+  H311  1  0.83119452  0.40615131  0.44031400  1
  H+  H312  1  0.41704834  0.67293453  0.89662280  1
  H+  H313  1  0.92279980  0.59320929  0.27412405  1
  H+  H314  1  0.09150345  0.42035770  0.08867055  1
  H+  H315  1  0.41415539  0.09971875  0.27443636  1
  H+  H316  1  0.41508108  0.09265338  0.56927432  1
  H+  H317  1  0.13159254  0.11086803  0.83063768  1
  H+  H318  1  0.41377429  0.53502565  0.33099420  1
  H+  H319  1  0.97001332  0.86593429  0.98634305  1
  H+  H320  1  0.06091553  0.12332813  0.12791213  1
  H+  H321  1  0.16838646  0.09147637  0.56558555  1
  H+  H322  1  0.09721978  0.68227636  0.40551191  1
  H+  H323  1  0.40862212  0.84151280  0.93854462  1
  H+  H324  1  0.32406199  0.38207517  0.75569384  1
  H+  H325  1  0.83466803  0.17115672  0.77182979  1
  H+  H326  1  0.58677185  0.18229278  0.40689382  1
  H+  H327  1  0.08472683  0.40555225  0.40546553  1
  H+  H328  1  0.16307100  0.83706260  0.23716127  1
  H+  H329  1  0.71110335  0.09064410  1.00441862  1
  H+  H330  1  0.89910851  0.82885162  0.89413551  1
  H+  H331  1  0.63204650  0.60771332  0.15638353  1
  H+  H332  1  0.16338986  0.82802286  0.93412851  1
  H+  H333  1  0.61912602  0.72248549  0.35849665  1
  H+  H334  1  0.08371795  0.16981181  0.76998150  1
  H+  H335  1  0.08777183  0.92453349  0.40292485  1
  H+  H336  1  0.84091083  0.67770477  0.43497396  1
  H+  H337  1  0.42821634  0.33551850  0.89647851  1
  H+  H338  1  0.67200848  0.33815340  0.26762759  1
  H+  H339  1  0.88683887  0.35264375  0.51086148  1
  H+  H340  1  0.16008039  0.07315365  0.27234407  1
  H+  H341  1  0.82479932  0.40308121  0.08964491  1
  H+  H342  1  0.37242821  0.44372009  0.40288042  1
  H+  H343  1  0.90184570  0.11877438  0.51851768  1
  H+  H344  1  0.31219474  0.92243575  0.75742541  1
  H+  H345  1  0.56676394  0.89034663  0.73626476  1
  H+  H346  1  0.83248510  0.91722959  0.10555234  1
  H+  H347  1  0.33380772  0.91471031  0.40025195  1
  H+  H348  1  0.16717229  0.58489817  0.56794537  1
  H+  H349  1  0.10037706  0.21070044  0.33832974  1
  H+  H350  1  0.42627366  0.34884916  0.60020704  1
  H+  H351  1  0.58231070  0.90612999  0.09714555  1
  H+  H352  1  0.37010782  0.62867920  0.98715781  1
  H+  H353  1  0.67312420  0.82718302  0.93690011  1
  H+  H354  1  0.58618525  0.40981988  0.06202385  1
  H+  H355  1  0.93264498  0.85529600  0.58583500  1
  H+  H356  1  0.34436515  0.27138974  0.31892129  1
  H+  H357  1  0.75724359  0.89744702  0.36146402  1
  H+  H358  1  0.82894018  0.64734163  0.76900786  1
  H+  H359  1  0.13185851  0.72791139  1.00766645  1
  H+  H360  1  0.65663640  0.82696815  0.56796194  1
  H+  H361  1  0.88433795  0.02323533  0.83679407  1
  H+  H362  1  0.90748982  0.07648762  0.27608382  1
  H+  H363  1  0.58762636  0.66560667  0.07009471  1
  H+  H364  1  0.56415414  0.90733483  0.40326414  1
  H+  H365  1  0.67281726  0.58514711  0.93755812  1
  H+  H366  1  0.09075957  0.17845488  0.04271636  1
  H+  H367  1  0.58904652  0.42299659  0.76009023  1
  H+  H368  1  0.93239901  0.35693121  0.88551512  1
  H+  H369  1  0.92239542  0.32688417  0.60037902  1
  H+  H370  1  0.41462047  0.57714397  0.23529506  1
  H+  H371  1  0.67702639  0.57518819  0.27009897  1
  H+  H372  1  0.27666564  0.38738740  1.00105539  1
  H+  H373  1  0.56609000  0.65429978  0.44933070  1
  H+  H374  1  0.83377082  0.93467612  0.44951158  1
  H+  H375  1  0.25461962  0.87170394  0.66832798  1
  H+  H376  1  0.89313125  0.32776984  0.25876218  1
  H+  H377  1  0.51630326  0.87868962  0.83435204  1
  H+  H378  1  0.66117002  0.07729995  0.57355589  1
  H+  H379  1  0.39490558  0.32195756  0.25976735  1
  H+  H380  1  0.56947947  0.14121712  0.08786452  1
  H+  H381  1  0.15867421  0.84026361  0.60590820  1
  H+  H382  1  0.41607770  0.81926233  0.22381570  1
  H+  H383  1  0.67981196  0.12239609  0.90937076  1
  O2-  O384  1  0.07219703  0.14495218  0.16937707  1
  O2-  O385  1  0.08928485  0.16571137  0.48041048  1
  O2-  O386  1  0.08234114  0.16578876  0.81565495  1
  O2-  O387  1  0.08777214  0.41257511  0.13421682  1
  O2-  O388  1  0.08272530  0.41303963  0.48637176  1
  O2-  O389  1  0.09438448  0.41909095  0.80530437  1
  O2-  O390  1  0.09179626  0.66889313  0.14645923  1
  O2-  O391  1  0.10083733  0.68427776  0.48366318  1
  O2-  O392  1  -0.01197601  0.65197321  0.82194754  1
  O2-  O393  1  0.03136169  0.94744598  0.12699736  1
  O2-  O394  1  0.08682787  0.92899484  0.47437400  1
  O2-  O395  1  0.06239655  0.89889621  0.81607213  1
  O2-  O396  1  0.32536563  0.15535679  0.14666345  1
  O2-  O397  1  0.31735260  0.15909087  0.47878179  1
  O2-  O398  1  0.34823612  0.17188885  0.80319504  1
  O2-  O399  1  0.31677489  0.39286748  0.19222073  1
  O2-  O400  1  0.32837908  0.41973569  0.47888137  1
  O2-  O401  1  0.31189313  0.35209764  0.79789300  1
  O2-  O402  1  0.34659078  0.65989002  0.13360439  1
  O2-  O403  1  0.33415153  0.66209194  0.48214192  1
  O2-  O404  1  0.31030012  0.69148702  0.80539335  1
  O2-  O405  1  0.32992938  0.91328122  0.14554498  1
  O2-  O406  1  0.30514741  0.85937831  0.46576686  1
  O2-  O407  1  0.30145268  0.92144841  0.80164184  1
  O2-  O408  1  0.58222050  0.15872999  0.16108945  1
  O2-  O409  1  0.58839721  0.17525590  0.48686365  1
  O2-  O410  1  0.58769752  0.18626995  0.81238658  1
  O2-  O411  1  0.58219291  0.40313123  0.13946356  1
  O2-  O412  1  0.60377330  0.41798726  0.49022063  1
  O2-  O413  1  0.58823959  0.42227127  0.80542037  1
  O2-  O414  1  0.57595940  0.65729373  0.14927945  1
  O2-  O415  1  0.57666857  0.66161940  0.49295174  1
  O2-  O416  1  0.58404925  0.65982443  0.81979615  1
  O2-  O417  1  0.58304028  0.90742208  0.14331531  1
  O2-  O418  1  0.58004687  0.91161322  0.48346801  1
  O2-  O419  1  0.54598639  0.85090000  0.81588013  1
  O2-  O420  1  0.83496400  0.16021568  0.14803601  1
  O2-  O421  1  0.84210173  0.15580540  0.49870146  1
  O2-  O422  1  0.84115963  0.17258758  0.81722142  1
  O2-  O423  1  0.80120892  0.36556727  0.12537692  1
  O2-  O424  1  0.83399641  0.39712733  0.48470971  1
  O2-  O425  1  0.84610857  0.42371044  0.79803006  1
  O2-  O426  1  0.85501277  0.67622123  0.14418630  1
  O2-  O427  1  0.84342046  0.68224584  0.48102858  1
  O2-  O428  1  0.83676569  0.65980402  0.81368356  1
  O2-  O429  1  0.83616817  0.91871029  0.15102703  1
  O2-  O430  1  0.82992184  0.91684595  0.49173531  1
  O2-  O431  1  0.83450888  0.92051065  0.80351511  1
  O2-  O432  1  0.16471967  0.07042886  0.19754779  1
  O2-  O433  1  0.16906057  0.09200438  0.51982424  1
  O2-  O434  1  0.16305948  0.07763802  0.83577361  1
  O2-  O435  1  0.14554821  0.30822481  0.18010555  1
  O2-  O436  1  0.16714468  0.32974773  0.52542004  1
  O2-  O437  1  0.17617875  0.33213656  0.84785185  1
  O2-  O438  1  0.19632973  0.62245761  0.19367285  1
  O2-  O439  1  0.16547874  0.58574764  0.52211735  1
  O2-  O440  1  0.14231440  0.57668989  0.85015182  1
  O2-  O441  1  0.16559869  0.83773181  0.19153518  1
  O2-  O442  1  0.17011383  0.85368887  0.52896189  1
  O2-  O443  1  0.13928832  0.81161124  0.85843949  1
  O2-  O444  1  0.41421165  0.08168041  0.19632426  1
  O2-  O445  1  0.41117860  0.09179207  0.52356898  1
  O2-  O446  1  0.44177324  0.05878743  0.86624951  1
  O2-  O447  1  0.42070242  0.32371757  0.18009437  1
  O2-  O448  1  0.45689488  0.39778766  0.53087256  1
  O2-  O449  1  0.42741041  0.33516851  0.85045339  1
  O2-  O450  1  0.41207436  0.56725660  0.18985565  1
  O2-  O451  1  0.40911968  0.57775775  0.53372801  1
  O2-  O452  1  0.44479913  0.68733528  0.85526485  1
  O2-  O453  1  0.41437152  0.82666340  0.17888788  1
  O2-  O454  1  0.41177873  0.82446655  0.52135756  1
  O2-  O455  1  0.39546169  0.85537613  0.85705838  1
  O2-  O456  1  0.67782047  0.05539817  0.20179420  1
  O2-  O457  1  0.66086394  0.07400270  0.52827961  1
  O2-  O458  1  0.69964144  0.16386250  0.87546227  1
  O2-  O459  1  0.66191006  0.32073700  0.18751449  1
  O2-  O460  1  0.67047650  0.33270489  0.54885177  1
  O2-  O461  1  0.68384012  0.35635197  0.84372767  1
  O2-  O462  1  0.66690678  0.57810583  0.15230566  1
  O2-  O463  1  0.67725792  0.58771533  0.52311250  1
  O2-  O464  1  0.66897818  0.57817594  0.85708807  1
  O2-  O465  1  0.66055396  0.82560495  0.18838707  1
  O2-  O466  1  0.66098440  0.82826067  0.52224104  1
  O2-  O467  1  0.67568990  0.82772973  0.85796619  1
  O2-  O468  1  0.90354594  0.07569710  0.19791121  1
  O2-  O469  1  0.93983257  0.09369783  0.52983532  1
  O2-  O470  1  0.91596965  0.08254799  0.85410731  1
  O2-  O471  1  0.91896249  0.33379352  0.17757246  1
  O2-  O472  1  0.91926956  0.32522030  0.52870021  1
  O2-  O473  1  0.92952824  0.34310763  0.84136407  1
  O2-  O474  1  0.92258785  0.59002706  0.20127391  1
  O2-  O475  1  0.92785807  0.60342128  0.53095774  1
  O2-  O476  1  0.98183463  0.57777105  0.85505901  1
  O2-  O477  1  0.97403665  0.88603477  0.17310206  1
  O2-  O478  1  0.92540113  0.84245252  0.51529175  1
  O2-  O479  1  0.89949385  0.82598857  0.84847379  1
  O2-  O480  1  0.15611563  0.07323092  0.31826955  1
  O2-  O481  1  0.17253158  0.09046102  0.64386052  1
  O2-  O482  1  0.16657273  0.07592958  0.97398590  1
  O2-  O483  1  0.14290249  0.30321350  0.31240258  1
  O2-  O484  1  0.17407369  0.33577294  0.64716285  1
  O2-  O485  1  0.16869329  0.33784553  0.96697693  1
  O2-  O486  1  0.16136791  0.58048236  0.32197622  1
  O2-  O487  1  0.16904067  0.58467909  0.64349994  1
  O2-  O488  1  0.17879489  0.58639656  0.96971166  1
  O2-  O489  1  0.16723666  0.84125510  0.31536476  1
  O2-  O490  1  0.15812797  0.83312739  0.65096510  1
  O2-  O491  1  0.16993324  0.83398562  0.97979272  1
  O2-  O492  1  0.41425438  0.10808388  0.31950499  1
  O2-  O493  1  0.42982858  0.10543685  0.64579668  1
  O2-  O494  1  0.40932887  0.07104571  0.98571230  1
  O2-  O495  1  0.36117271  0.32370481  0.29488587  1
  O2-  O496  1  0.41766917  0.33502091  0.64469468  1
  O2-  O497  1  0.42260895  0.33184871  0.97194038  1
  O2-  O498  1  0.42285971  0.58970057  0.30870582  1
  O2-  O499  1  0.40866048  0.57516879  0.65751811  1
  O2-  O500  1  0.40333221  0.58557497  1.03718530  1
  O2-  O501  1  0.41536619  0.80967689  0.30413265  1
  O2-  O502  1  0.41130199  0.82299804  0.64391087  1
  O2-  O503  1  0.40955095  0.82007124  0.97977280  1
  O2-  O504  1  0.64383026  0.07574677  0.32497155  1
  O2-  O505  1  0.66470362  0.08355033  0.65397181  1
  O2-  O506  1  0.65328794  0.06561233  0.98532456  1
  O2-  O507  1  0.67409935  0.34366093  0.31274003  1
  O2-  O508  1  0.67129635  0.34210257  0.61581706  1
  O2-  O509  1  0.69303714  0.36560626  0.96213423  1
  O2-  O510  1  0.67190030  0.58602558  0.31287766  1
  O2-  O511  1  0.66089265  0.57826418  0.64528242  1
  O2-  O512  1  0.67566170  0.58716084  0.98295738  1
  O2-  O513  1  0.64688331  0.83216606  0.25373884  1
  O2-  O514  1  0.65251201  0.82104046  0.64458384  1
  O2-  O515  1  0.66974193  0.82820450  0.98225968  1
  O2-  O516  1  0.90382644  0.07155267  0.32129091  1
  O2-  O517  1  0.92189459  0.08516011  0.68291796  1
  O2-  O518  1  0.91464807  0.08096011  0.97848797  1
  O2-  O519  1  0.86544293  0.30630957  0.29845201  1
  O2-  O520  1  0.92358375  0.32832805  0.64693879  1
  O2-  O521  1  0.93639841  0.37204589  0.96296942  1
  O2-  O522  1  0.92121102  0.59357518  0.32053799  1
  O2-  O523  1  0.91684671  0.58049729  0.64708236  1
  O2-  O524  1  0.94594678  0.60300339  0.96998601  1
  O2-  O525  1  0.89051788  0.83097739  0.28764580  1
  O2-  O526  1  0.93351957  0.86164993  0.63232830  1
  O2-  O527  1  0.91021893  0.83924072  0.97054768  1
  O2-  O528  1  0.08221091  0.16597550  -0.00063285  1
  O2-  O529  1  0.07442123  0.14927840  0.35589197  1
  O2-  O530  1  0.09441808  0.17592797  0.69292610  1
  O2-  O531  1  0.09560294  0.42654764  0.01261963  1
  O2-  O532  1  0.08722924  0.40266272  0.36053441  1
  O2-  O533  1  0.09013784  0.41709581  0.68130370  1
  O2-  O534  1  0.10206378  0.66782534  0.02283400  1
  O2-  O535  1  0.09781426  0.68365281  0.35998835  1
  O2-  O536  1  0.08623480  0.65927495  0.68477234  1
  O2-  O537  1  0.07587135  0.90707336  0.01717100  1
  O2-  O538  1  0.08981801  0.92382098  0.35628033  1
  O2-  O539  1  0.08705085  0.92719845  0.69261802  1
  O2-  O540  1  0.33164195  0.16496967  0.02144936  1
  O2-  O541  1  0.31700010  0.17078743  0.36319087  1
  O2-  O542  1  0.33886134  0.17193268  0.68254008  1
  O2-  O543  1  0.33336664  0.41519707  0.02112598  1
  O2-  O544  1  0.41068263  0.46187268  0.36698657  1
  O2-  O545  1  0.33195527  0.41108476  0.69137158  1
  O2-  O546  1  0.35050560  0.65714989  -0.04345352  1
  O2-  O547  1  0.32889768  0.64968188  0.35850226  1
  O2-  O548  1  0.32828454  0.66340041  0.68687626  1
  O2-  O549  1  0.31927082  0.91767616  0.02703927  1
  O2-  O550  1  0.33959519  0.93752154  0.35757039  1
  O2-  O551  1  0.31963844  0.90359692  0.67636000  1
  O2-  O552  1  0.56423477  0.13766169  0.04181636  1
  O2-  O553  1  0.58484962  0.18050674  0.36155636  1
  O2-  O554  1  0.60292230  0.19185860  0.67945955  1
  O2-  O555  1  0.58767753  0.41768075  0.01668523  1
  O2-  O556  1  0.59582295  0.41902393  0.37195915  1
  O2-  O557  1  0.58327196  0.41295590  0.68010970  1
  O2-  O558  1  0.58479224  0.66518133  0.02482382  1
  O2-  O559  1  0.60057947  0.69225620  0.31987489  1
  O2-  O560  1  0.57610970  0.65748631  0.69307083  1
  O2-  O561  1  0.57728903  0.89961790  0.02301118  1
  O2-  O562  1  0.55732055  0.90813078  0.35843316  1
  O2-  O563  1  0.57504838  0.90574104  0.69243743  1
  O2-  O564  1  0.81646861  0.14071838  0.03173883  1
  O2-  O565  1  0.82814703  0.15628287  0.34498816  1
  O2-  O566  1  0.83105999  0.16949212  0.69330105  1
  O2-  O567  1  0.85551971  0.44316589  0.00972446  1
  O2-  O568  1  0.83757334  0.42436271  0.36123507  1
  O2-  O569  1  0.83603168  0.41251158  0.67415440  1
  O2-  O570  1  0.85322288  0.67485905  0.01186961  1
  O2-  O571  1  0.83952762  0.67580433  0.36048567  1
  O2-  O572  1  0.81930907  0.63031689  0.69274398  1
  O2-  O573  1  0.83073634  0.91600367  0.02746891  1
  O2-  O574  1  0.78566719  0.91157613  0.32211369  1
  O2-  O575  1  0.82242236  0.91238359  0.67525809  1
