# generated using pymatgen
data_H2O
_symmetry_space_group_name_H-M   'P 1'
_cell_length_a   17.99779479
_cell_length_b   17.99678227
_cell_length_c   22.01480988
_cell_angle_alpha   90.01616065
_cell_angle_beta   89.99360829
_cell_angle_gamma   120.00421707
_symmetry_Int_Tables_number   1
_chemical_formula_structural   H2O
_chemical_formula_sum   'H384 O192'
_cell_volume   6175.06104140
_cell_formula_units_Z   192
loop_
 _symmetry_equiv_pos_site_id
 _symmetry_equiv_pos_as_xyz
  1  'x, y, z'
loop_
 _atom_type_symbol
 _atom_type_oxidation_number
  H+  1.0
  O2-  -2.0
loop_
 _atom_site_type_symbol
 _atom_site_label
 _atom_site_symmetry_multiplicity
 _atom_site_fract_x
 _atom_site_fract_y
 _atom_site_fract_z
 _atom_site_occupancy
  H+  H0  1  1.02040584  0.63228534  0.49236460  1
  H+  H1  1  0.60664011  0.63694657  1.00110356  1
  H+  H2  1  0.63506117  0.77731939  0.32079346  1
  H+  H3  1  0.53381648  0.62999676  0.67397751  1
  H+  H4  1  0.72610419  0.61831520  0.99489779  1
  H+  H5  1  0.27113372  0.38770730  0.15433010  1
  H+  H6  1  0.89666397  0.89991437  1.00970343  1
  H+  H7  1  0.47947953  0.87072012  0.32013650  1
  H+  H8  1  0.38909312  0.12812951  0.50780688  1
  H+  H9  1  0.46723113  0.85230193  0.66335677  1
  H+  H10  1  0.70711377  0.84602334  0.85041661  1
  H+  H11  1  0.32651757  0.40760412  0.39372265  1
  H+  H12  1  0.36114640  0.47574540  0.14705414  1
  H+  H13  1  0.35621841  0.55531850  0.52403403  1
  H+  H14  1  0.26510180  0.87918686  0.16026040  1
  H+  H15  1  0.52009742  0.38770687  0.16403505  1
  H+  H16  1  0.38857941  0.63369304  0.83471297  1
  H+  H17  1  0.36179108  0.66769349  0.49430541  1
  H+  H18  1  0.77818399  0.62567946  0.49511440  1
  H+  H19  1  0.28358964  0.15001690  0.66401232  1
  H+  H20  1  0.56767724  0.90728349  0.73246045  1
  H+  H21  1  0.86452209  0.46884008  0.15975941  1
  H+  H22  1  0.66617206  0.12127631  0.30038477  1
  H+  H23  1  0.90530381  0.05590203  0.65118807  1
  H+  H24  1  0.15555984  0.37824906  0.66650732  1
  H+  H25  1  0.11388244  0.99464665  0.34058358  1
  H+  H26  1  0.49663830  0.36308370  0.84175412  1
  H+  H27  1  0.61088939  0.48158143  0.34638039  1
  H+  H28  1  0.39696792  0.27094373  0.50210351  1
  H+  H29  1  0.84235672  0.91809467  0.89771885  1
  H+  H30  1  0.86602939  0.89689998  0.16059753  1
  H+  H31  1  0.81458129  0.11324810  0.67743414  1
  H+  H32  1  0.62826793  0.24712552  0.99585608  1
  H+  H33  1  0.39419100  1.02268888  0.17750684  1
  H+  H34  1  0.53099299  0.13778857  0.16252360  1
  H+  H35  1  0.66674962  0.58218334  0.27622057  1
  H+  H36  1  0.26540734  0.39566587  0.48344454  1
  H+  H37  1  0.13366222  0.23702845  0.83540424  1
  H+  H38  1  0.58521135  0.92325596  0.39481845  1
  H+  H39  1  0.08384416  0.72753500  0.01933460  1
  H+  H40  1  0.16217967  0.58938189  0.54995486  1
  H+  H41  1  0.51745793  0.13976410  0.66990450  1
  H+  H42  1  0.12945940  0.60624592  0.17197229  1
  H+  H43  1  0.00997401  0.39352484  0.82691939  1
  H+  H44  1  0.63215307  0.10797940  0.51138026  1
  H+  H45  1  0.23438087  0.68611539  0.61641803  1
  H+  H46  1  0.23424127  0.12553104  0.32975095  1
  H+  H47  1  0.02680120  0.13876384  0.33248455  1
  H+  H48  1  0.63626464  0.41612709  0.02290010  1
  H+  H49  1  0.15070086  0.63606174  0.65450150  1
  H+  H50  1  0.52072752  0.13952059  0.50314539  1
  H+  H51  1  0.50776015  0.87717714  0.82391163  1
  H+  H52  1  0.73656887  0.60621058  0.66636482  1
  H+  H53  1  0.77640906  0.47747283  0.71101589  1
  H+  H54  1  0.27082329  0.89759273  0.49301686  1
  H+  H55  1  0.79815089  0.41989207  0.33373936  1
  H+  H56  1  0.87220492  0.15748564  0.48571892  1
  H+  H57  1  0.62502367  0.75596211  0.84485568  1
  H+  H58  1  0.85200367  0.65682426  0.73181544  1
  H+  H59  1  0.60534596  0.75569872  0.14948056  1
  H+  H60  1  0.37832271  0.84846395  0.66893347  1
  H+  H61  1  0.13658341  0.76955631  0.66657617  1
  H+  H62  1  0.02127720  0.62983757  0.16494377  1
  H+  H63  1  0.12717173  0.61530444  -0.00244702  1
  H+  H64  1  0.01666127  0.38101966  0.01349242  1
  H+  H65  1  0.22296334  0.88764590  0.31388978  1
  H+  H66  1  0.59542057  0.65802103  0.48993443  1
  H+  H67  1  0.88579927  0.39426334  0.48462701  1
  H+  H68  1  0.76367582  0.37493487  1.00641392  1
  H+  H69  1  0.89022288  0.60275182  0.17299210  1
  H+  H70  1  0.54842862  0.61699063  0.83262430  1
  H+  H71  1  0.38642274  0.51684923  0.00305174  1
  H+  H72  1  0.58927935  0.86413057  0.82352979  1
  H+  H73  1  0.22379492  0.62767016  0.49253569  1
  H+  H74  1  0.11924170  0.14339698  0.33603618  1
  H+  H75  1  0.14007386  0.76886595  0.85346964  1
  H+  H76  1  0.60259577  0.13346411  0.66832240  1
  H+  H77  1  0.65016522  0.26536597  0.50140913  1
  H+  H78  1  0.93625447  0.83210062  0.56530042  1
  H+  H79  1  0.40154095  0.12113021  0.85485331  1
  H+  H80  1  0.36065548  0.47655543  0.34046206  1
  H+  H81  1  0.74552183  0.60314866  0.84248365  1
  H+  H82  1  0.53176888  0.12729824  0.82736804  1
  H+  H83  1  0.13443246  0.11187642  0.84437644  1
  H+  H84  1  0.32849613  0.17184243  0.72998654  1
  H+  H85  1  0.62698221  0.89826339  0.03413678  1
  H+  H86  1  0.39123689  0.87239233  0.31841857  1
  H+  H87  1  0.87365909  0.39549642  0.33573670  1
  H+  H88  1  0.93324126  0.15549914  0.65638468  1
  H+  H89  1  0.60074685  0.88423233  0.67207959  1
  H+  H90  1  0.37634006  0.37265596  0.82756298  1
  H+  H91  1  0.63472377  0.10432210  0.99578237  1
  H+  H92  1  0.64741136  0.60891769  0.66391740  1
  H+  H93  1  0.35535411  0.63286522  0.15023912  1
  H+  H94  1  0.60794147  0.98427169  0.49031170  1
  H+  H95  1  0.35630485  0.72185528  0.15286884  1
  H+  H96  1  0.36485565  0.73188686  0.33556370  1
  H+  H97  1  0.64116588  0.26570463  0.33908095  1
  H+  H98  1  0.86002889  0.13182636  0.00491175  1
  H+  H99  1  0.10632894  0.96872942  0.84856516  1
  H+  H100  1  0.62547797  0.97146135  0.12257349  1
  H+  H101  1  0.13602065  0.36917314  -0.00191036  1
  H+  H102  1  0.35039841  0.98899051  0.32955454  1
  H+  H103  1  0.87376089  0.16747712  0.82030851  1
  H+  H104  1  0.77862335  0.63878479  0.33749765  1
  H+  H105  1  0.14676329  0.86282449  0.67025981  1
  H+  H106  1  0.25997412  0.62218340  1.00110388  1
  H+  H107  1  0.39014010  0.65450400  0.86470192  1
  H+  H108  1  0.03764011  0.40086967  0.43513868  1
  H+  H109  1  0.47371362  0.86225581  0.16516436  1
  H+  H110  1  0.09582694  0.19425374  0.48460639  1
  H+  H111  1  0.88743427  0.77784130  0.33120269  1
  H+  H112  1  0.17160050  0.85103826  0.94270438  1
  H+  H113  1  0.62131860  0.01752432  0.66531945  1
  H+  H114  1  0.42289865  0.49846592  0.85033195  1
  H+  H115  1  0.13312029  0.36365546  0.17105424  1
  H+  H116  1  0.11724416  0.14083445  0.17197341  1
  H+  H117  1  0.75825579  0.76050787  0.64842781  1
  H+  H118  1  0.71065817  0.86356386  0.51769662  1
  H+  H119  1  0.38167085  0.02277802  0.66390039  1
  H+  H120  1  0.72010924  0.61125944  0.18469180  1
  H+  H121  1  0.84378914  0.89488052  0.65773304  1
  H+  H122  1  0.89381221  0.02575896  0.98498442  1
  H+  H123  1  0.91081119  0.53737552  0.32429893  1
  H+  H124  1  0.61636450  0.78112198  0.50855869  1
  H+  H125  1  0.07102549  0.91426132  0.10247940  1
  H+  H126  1  0.76142010  0.88955350  0.32598605  1
  H+  H127  1  0.90605290  0.06838121  0.82086366  1
  H+  H128  1  0.39859312  0.51913124  0.66874608  1
  H+  H129  1  0.60448738  0.31628240  0.97336425  1
  H+  H130  1  0.39992585  0.60976423  0.66712890  1
  H+  H131  1  0.78178255  0.13486604  0.33114163  1
  H+  H132  1  0.62486232  0.36573701  0.49207587  1
  H+  H133  1  0.60984953  0.72831010  0.00056645  1
  H+  H134  1  0.96974776  0.85265226  0.94755248  1
  H+  H135  1  0.96147849  0.10197378  0.49536354  1
  H+  H136  1  0.38770138  0.36410654  0.32272243  1
  H+  H137  1  0.02992218  0.14218051  -0.00371702  1
  H+  H138  1  0.66741529  0.40951224  0.31853907  1
  H+  H139  1  0.10550723  0.38821404  0.34536422  1
  H+  H140  1  0.63408645  0.26723131  0.65525340  1
  H+  H141  1  -0.01467681  0.89975754  0.65038271  1
  H+  H142  1  0.07071402  0.93464025  0.69865661  1
  H+  H143  1  0.11253039  0.72760964  0.49467869  1
  H+  H144  1  0.08325417  0.66219172  0.73646722  1
  H+  H145  1  0.63281587  0.86601229  0.32216684  1
  H+  H146  1  0.73173170  0.85600952  0.99270131  1
  H+  H147  1  0.62501784  0.45381737  0.49999121  1
  H+  H148  1  0.36376290  0.90150451  0.83283081  1
  H+  H149  1  0.25682549  0.11660908  0.82828066  1
  H+  H150  1  0.71499312  0.87131168  0.65693056  1
  H+  H151  1  0.17399045  0.02784446  0.63293934  1
  H+  H152  1  1.02761778  0.63289171  0.67399299  1
  H+  H153  1  0.77822772  0.12132463  0.15899341  1
  H+  H154  1  0.12860794  0.12359979  0.67435169  1
  H+  H155  1  0.70600778  0.11225000  0.66493051  1
  H+  H156  1  0.62045250  0.97876652  0.33262799  1
  H+  H157  1  0.37479489  0.60934498  -0.00025752  1
  H+  H158  1  0.66312262  0.61672692  0.83700195  1
  H+  H159  1  0.13498728  0.10374981  0.49166351  1
  H+  H160  1  0.41325967  0.26957934  0.84458832  1
  H+  H161  1  0.50072438  0.63847286  0.49479365  1
  H+  H162  1  0.37453236  0.39618840  0.00205004  1
  H+  H163  1  0.64171273  0.61872440  0.33386639  1
  H+  H164  1  0.59743957  0.65960392  0.76870868  1
  H+  H165  1  0.25750831  0.80756743  0.35372980  1
  H+  H166  1  0.39073295  0.02849883  0.85110717  1
  H+  H167  1  0.89422767  0.27793779  0.64857271  1
  H+  H168  1  0.11774840  0.23918651  0.17140091  1
  H+  H169  1  0.86293584  0.71731687  0.00052978  1
  H+  H170  1  0.35639860  -0.00936736  0.49346376  1
  H+  H171  1  0.48019499  0.63130134  0.14985739  1
  H+  H172  1  0.11339541  0.51114748  0.84214711  1
  H+  H173  1  0.67203935  0.32709679  0.59519569  1
  H+  H174  1  0.11908061  0.63397098  0.48949847  1
  H+  H175  1  0.11448251  0.47650052  0.67322538  1
  H+  H176  1  0.02971151  0.38585594  0.66900558  1
  H+  H177  1  0.88512328  0.35728611  1.00148736  1
  H+  H178  1  0.13554402  0.31802717  0.52217020  1
  H+  H179  1  0.44027075  0.09854557  0.32894893  1
  H+  H180  1  0.15172917  1.02484021  0.49502640  1
  H+  H181  1  0.35593203  -0.02000789  1.01552677  1
  H+  H182  1  0.21716938  0.60514670  0.16866345  1
  H+  H183  1  0.62035713  0.47056187  0.67436173  1
  H+  H184  1  0.52352219  0.12786792  1.01555746  1
  H+  H185  1  0.41463544  0.32984068  0.23067543  1
  H+  H186  1  0.87493098  0.54706600  0.83034608  1
  H+  H187  1  0.60167574  0.89301850  0.49044879  1
  H+  H188  1  0.88849425  0.52790678  0.65607450  1
  H+  H189  1  0.89597879  1.03146716  0.16639650  1
  H+  H190  1  0.22699318  0.37268820  -0.00209264  1
  H+  H191  1  0.88013948  0.86373980  0.33116441  1
  H+  H192  1  0.87410615  0.14348044  0.33283138  1
  H+  H193  1  0.55074793  0.05553506  0.35524610  1
  H+  H194  1  1.02065089  0.14193303  0.16830532  1
  H+  H195  1  0.64863735  0.10755523  0.83717308  1
  H+  H196  1  0.12048515  0.22833069  -0.00068420  1
  H+  H197  1  0.87179295  0.51552855  -0.00051019  1
  H+  H198  1  0.10598263  0.46908606  0.16126643  1
  H+  H199  1  0.01577264  0.89234918  0.16314965  1
  H+  H200  1  0.52449720  0.64308542  0.33758248  1
  H+  H201  1  0.62982991  0.56807384  0.51781422  1
  H+  H202  1  0.03754091  0.89338519  0.48950601  1
  H+  H203  1  0.17812949  0.33441710  0.90367372  1
  H+  H204  1  0.99972804  0.14216696  0.83774458  1
  H+  H205  1  0.35001139  0.21749344  0.15922835  1
  H+  H206  1  0.21367369  0.61342150  0.32688579  1
  H+  H207  1  0.50156594  0.35501854  0.50740810  1
  H+  H208  1  0.27324040  0.89641148  0.83567932  1
  H+  H209  1  0.97098797  0.35430703  0.16945834  1
  H+  H210  1  0.87791200  0.63806776  0.66640621  1
  H+  H211  1  0.24897407  0.70693325  0.78238519  1
  H+  H212  1  0.39746520  0.27971181  0.65821028  1
  H+  H213  1  0.26742997  0.13250214  0.00163224  1
  H+  H214  1  0.88107723  0.70325622  0.83433747  1
  H+  H215  1  0.35417192  0.87736037  0.15675728  1
  H+  H216  1  0.13612813  0.27849239  0.32562212  1
  H+  H217  1  0.28700409  0.39497276  0.67608118  1
  H+  H218  1  0.92194880  0.57772748  0.23442306  1
  H+  H219  1  0.28815450  0.63036706  0.67126217  1
  H+  H220  1  0.61755628  0.72258232  0.67394483  1
  H+  H221  1  0.86378727  0.71737562  0.49367156  1
  H+  H222  1  0.09879006  0.62753104  0.83456252  1
  H+  H223  1  0.20149227  0.60508637  0.84670847  1
  H+  H224  1  0.13398172  0.88630896  0.31682811  1
  H+  H225  1  0.12557792  0.39606679  0.50711331  1
  H+  H226  1  0.89033163  0.02859644  0.31459751  1
  H+  H227  1  0.12960368  0.10993328  0.99026188  1
  H+  H228  1  0.38473016  0.35859965  0.17089704  1
  H+  H229  1  0.36192631  0.85166455  0.99435502  1
  H+  H230  1  0.87853033  0.28964635  0.82915290  1
  H+  H231  1  0.78237464  0.41059853  0.83422826  1
  H+  H232  1  0.61510094  0.37867719  0.66999922  1
  H+  H233  1  0.92114904  0.28999411  0.48651562  1
  H+  H234  1  0.89576779  0.51655582  0.49899431  1
  H+  H235  1  0.88529119  0.26860666  1.00408343  1
  H+  H236  1  0.65060856  0.37020335  0.84230598  1
  H+  H237  1  0.10879235  0.72227944  0.16268496  1
  H+  H238  1  0.61446159  0.23055574  0.15853431  1
  H+  H239  1  0.10713919  0.47755746  0.34258266  1
  H+  H240  1  0.75736806  0.39638618  0.67414471  1
  H+  H241  1  0.13289446  0.86103486  0.16408447  1
  H+  H242  1  0.62445376  0.98333837  0.02150251  1
  H+  H243  1  0.36331326  0.22478719  0.33790899  1
  H+  H244  1  -0.08682319  0.83893275  0.23880156  1
  H+  H245  1  0.85883020  0.37706510  0.15755830  1
  H+  H246  1  0.63894576  0.37027221  0.17000944  1
  H+  H247  1  0.94128800  0.72053614  0.12668949  1
  H+  H248  1  0.13514057  0.85490225  0.85653995  1
  H+  H249  1  0.66073687  0.24864068  0.31633444  1
  H+  H250  1  0.62499141  0.47928156  0.82773667  1
  H+  H251  1  0.93967093  0.33675517  0.59069209  1
  H+  H252  1  0.48894035  0.36659466  0.65859304  1
  H+  H253  1  0.36526883  0.44751172  0.48938239  1
  H+  H254  1  0.63340124  0.52258442  0.18340531  1
  H+  H255  1  0.86078297  0.21939176  0.16046091  1
  H+  H256  1  0.36767789  0.78868735  0.83670464  1
  H+  H257  1  0.74191151  0.35558011  0.49991896  1
  H+  H258  1  0.24385680  0.35871868  0.84766602  1
  H+  H259  1  0.96116565  0.60558689  1.00172860  1
  H+  H260  1  0.90213131  0.62020720  0.31863355  1
  H+  H261  1  0.24100529  0.89540160  0.00767252  1
  H+  H262  1  0.30474946  0.07583838  0.79492081  1
  H+  H263  1  0.37411817  0.38966826  0.67282625  1
  H+  H264  1  0.88910231  0.78331177  0.17702780  1
  H+  H265  1  0.13641325  0.85908953  0.50600653  1
  H+  H266  1  0.47716767  0.36502738  0.32464594  1
  H+  H267  1  0.88042784  0.82083895  0.86533004  1
  H+  H268  1  0.88715976  0.38190948  0.83792820  1
  H+  H269  1  0.48143505  0.36785727  -0.00214681  1
  H+  H270  1  0.28276364  0.15401667  0.48569321  1
  H+  H271  1  0.22475472  0.36719078  0.32439420  1
  H+  H272  1  0.85400315  0.97733405  0.51087023  1
  H+  H273  1  0.88914079  0.27668634  0.32226659  1
  H+  H274  1  0.97529370  0.83728675  0.85436152  1
  H+  H275  1  0.02039226  0.64686408  0.82561886  1
  H+  H276  1  0.04632843  0.13290092  0.67682506  1
  H+  H277  1  0.38314006  0.11368071  0.66434812  1
  H+  H278  1  0.22033445  0.11952984  0.16931268  1
  H+  H279  1  0.10334736  0.47409101  1.01159486  1
  H+  H280  1  0.98122919  0.85615676  0.65585094  1
  H+  H281  1  0.38539901  0.11184375  1.00232667  1
  H+  H282  1  0.89198700  0.60467158  0.50106184  1
  H+  H283  1  0.38565141  0.62403383  0.34100431  1
  H+  H284  1  0.66083672  0.90181604  0.17632380  1
  H+  H285  1  0.35454392  0.12624403  0.33632052  1
  H+  H286  1  1.03174125  0.85760623  1.00051925  1
  H+  H287  1  0.62032836  0.49303338  0.00753596  1
  H+  H288  1  0.35737125  0.75354014  0.48322466  1
  H+  H289  1  0.92551095  0.09258229  0.25847268  1
  H+  H290  1  0.68156244  0.08638722  0.89852102  1
  H+  H291  1  0.85749414  0.62446860  0.00626792  1
  H+  H292  1  0.16262670  0.07951787  0.90401185  1
  H+  H293  1  0.09446942  0.92333009  0.42916527  1
  H+  H294  1  0.58151669  0.42892644  0.10636010  1
  H+  H295  1  0.72423502  0.10668977  0.99585618  1
  H+  H296  1  0.67965483  0.32910739  0.89519550  1
  H+  H297  1  0.07827929  0.42425432  0.77170796  1
  H+  H298  1  0.17409763  0.09641998  0.26886494  1
  H+  H299  1  0.84823673  0.92165586  0.06056231  1
  H+  H300  1  0.85666018  0.92296262  0.82775723  1
  H+  H301  1  0.59277093  0.41732969  0.76850740  1
  H+  H302  1  0.16049894  0.84038462  0.22720542  1
  H+  H303  1  0.67653142  0.56379910  0.57689835  1
  H+  H304  1  0.83415286  0.94408627  0.71258486  1
  H+  H305  1  0.58023248  0.68055142  0.39567378  1
  H+  H306  1  0.78017670  0.90207350  0.15506039  1
  H+  H307  1  0.07891249  0.41113982  0.10086621  1
  H+  H308  1  0.33338527  0.92233707  0.73878228  1
  H+  H309  1  0.84769661  0.42114144  0.42797030  1
  H+  H310  1  0.84028563  0.66411216  0.39421657  1
  H+  H311  1  0.31877108  0.91350967  0.07463919  1
  H+  H312  1  0.07179496  0.66066151  0.07033470  1
  H+  H313  1  0.67150366  0.58631462  0.93373941  1
  H+  H314  1  0.19482416  0.37604643  0.60386194  1
  H+  H315  1  0.97751766  0.36637105  0.32386989  1
  H+  H316  1  0.67439806  0.84680477  0.22629637  1
  H+  H317  1  0.41030126  0.09112327  0.56878852  1
  H+  H318  1  0.72677563  0.36644958  0.16738430  1
  H+  H319  1  0.69809069  0.38395040  0.25803580  1
  H+  H320  1  0.36456470  0.76497230  0.98844918  1
  H+  H321  1  0.10113255  0.17005660  0.77621142  1
  H+  H322  1  0.15737876  1.00492375  0.72738551  1
  H+  H323  1  0.58754433  0.16370517  0.07333343  1
  H+  H324  1  0.65464638  0.07034570  0.56828052  1
  H+  H325  1  0.44420992  0.56899536  0.90093557  1
  H+  H326  1  0.33155514  0.67951429  0.39749192  1
  H+  H327  1  0.58147794  0.15458458  0.76421249  1
  H+  H328  1  0.81539349  0.94542008  0.38148832  1
  H+  H329  1  0.07036317  0.14775894  0.42105486  1
  H+  H330  1  0.82498046  0.17437350  0.73381069  1
  H+  H331  1  0.41908100  0.56855832  0.57882056  1
  H+  H332  1  0.32053772  0.65572190  0.06032640  1
  H+  H333  1  0.31634235  0.16135335  0.09893577  1
  H+  H334  1  0.46872218  0.87465072  0.48619468  1
  H+  H335  1  0.77440812  0.14558288  0.82594654  1
  H+  H336  1  0.64847459  0.82838026  0.60299806  1
  H+  H337  1  0.33935929  0.41818152  0.06357810  1
  H+  H338  1  0.41230110  0.08010134  0.23644805  1
  H+  H339  1  0.91967919  0.09127425  0.92795188  1
  H+  H340  1  0.14771424  0.57754309  0.93810941  1
  H+  H341  1  0.83898975  0.75329978  0.66193136  1
  H+  H342  1  0.12825494  0.03123106  0.17390057  1
  H+  H343  1  0.33018985  0.92897000  0.39036734  1
  H+  H344  1  0.56906589  0.14267923  0.44276324  1
  H+  H345  1  0.43422738  0.33086645  0.56937218  1
  H+  H346  1  0.41949238  0.83302503  0.22611479  1
  H+  H347  1  0.34838755  0.41066659  0.77144469  1
  H+  H348  1  0.82595294  0.90189386  0.46312709  1
  H+  H349  1  0.92864416  0.58053347  0.59401905  1
  H+  H350  1  0.85205548  0.18987204  0.42366557  1
  H+  H351  1  0.16271292  0.82802419  0.56725720  1
  H+  H352  1  0.16721572  0.33986067  0.23212849  1
  H+  H353  1  0.16029470  0.57281296  0.26671515  1
  H+  H354  1  0.91365376  0.32854523  0.22948678  1
  H+  H355  1  0.82344158  0.40805314  0.06568053  1
  H+  H356  1  0.11281452  0.01344197  0.98721288  1
  H+  H357  1  0.67957540  0.06272527  0.24895047  1
  H+  H358  1  0.37196899  0.72186193  0.67639656  1
  H+  H359  1  0.57639655  0.15104250  0.34311738  1
  H+  H360  1  0.35534798  0.22365260  0.00328445  1
  H+  H361  1  0.47868444  0.61963202  1.00089203  1
  H+  H362  1  0.31473468  0.67861357  0.76176988  1
  H+  H363  1  0.40676025  0.59043626  0.28222301  1
  H+  H364  1  0.42874379  0.33826802  0.93604407  1
  H+  H365  1  0.83745928  0.44129339  0.77339631  1
  H+  H366  1  0.85328439  0.67802436  0.09374942  1
  H+  H367  1  0.66185303  0.83051863  0.93966445  1
  H+  H368  1  0.08781204  0.90752287  0.79267793  1
  H+  H369  1  0.41934426  0.08035014  0.94659858  1
  H+  H370  1  0.38112901  0.87960741  0.48771079  1
  H+  H371  1  0.89634729  0.86722000  0.51872721  1
  H+  H372  1  0.40121587  0.83805954  0.90046332  1
  H+  H373  1  0.89358854  0.12089294  0.16730126  1
  H+  H374  1  0.42693846  0.57622725  0.20569318  1
  H+  H375  1  0.91959662  0.09994532  0.55903843  1
  H+  H376  1  0.02290448  0.90465651  0.34144004  1
  H+  H377  1  0.27594469  0.88544953  0.67871945  1
  H+  H378  1  0.16404180  0.74172874  0.34232953  1
  H+  H379  1  0.58140798  0.69186645  0.09189949  1
  H+  H380  1  0.83104958  0.15755091  0.06644704  1
  H+  H381  1  0.18533053  0.09176613  0.58015250  1
  H+  H382  1  0.58441149  0.41101447  0.39905771  1
  H+  H383  1  0.34307912  0.18093013  0.42609204  1
  O2-  O384  1  0.08624800  0.17488846  0.15904027  1
  O2-  O385  1  0.06427169  0.13685819  0.46736515  1
  O2-  O386  1  0.09628930  0.17330278  0.82103799  1
  O2-  O387  1  0.07813569  0.40795700  0.14692683  1
  O2-  O388  1  0.04074145  0.40184934  0.48099018  1
  O2-  O389  1  0.07360825  0.42717247  0.81612791  1
  O2-  O390  1  0.08100884  0.66161099  0.14791922  1
  O2-  O391  1  0.08292610  0.66680375  0.47805693  1
  O2-  O392  1  0.08157004  0.66845623  0.81546303  1
  O2-  O393  1  0.07581285  0.92201544  0.14651158  1
  O2-  O394  1  0.09778148  0.92076054  0.47506753  1
  O2-  O395  1  0.08001344  0.90625369  0.83707606  1
  O2-  O396  1  0.30865604  0.15963631  0.14352430  1
  O2-  O397  1  0.34438264  0.18565530  0.47340226  1
  O2-  O398  1  0.31299035  0.13180833  0.80671134  1
  O2-  O399  1  0.33059853  0.41315974  0.13764023  1
  O2-  O400  1  0.31851677  0.39821822  0.46848727  1
  O2-  O401  1  0.34968967  0.40771219  0.81673125  1
  O2-  O402  1  0.32325857  0.66186959  0.13707238  1
  O2-  O403  1  0.32561277  0.68632674  0.47444880  1
  O2-  O404  1  0.29166357  0.69396778  0.79835174  1
  O2-  O405  1  0.32482689  0.90871442  0.14289319  1
  O2-  O406  1  0.32787522  0.93278754  0.47407090  1
  O2-  O407  1  0.33180662  0.93182573  0.81816639  1
  O2-  O408  1  0.58823612  0.17144205  0.14222945  1
  O2-  O409  1  0.57959982  0.16239900  0.48563135  1
  O2-  O410  1  0.58687903  0.14422721  0.80763173  1
  O2-  O411  1  0.58174837  0.42347444  0.15116726  1
  O2-  O412  1  0.59078785  0.39563738  0.48186776  1
  O2-  O413  1  0.59189334  0.41807390  0.81376301  1
  O2-  O414  1  0.57010698  0.69526559  0.13550124  1
  O2-  O415  1  0.55819189  0.67944198  0.47629914  1
  O2-  O416  1  0.60491227  0.66137110  0.81353246  1
  O2-  O417  1  0.62396414  0.96936578  0.16861234  1
  O2-  O418  1  0.57761146  0.92504977  0.46964914  1
  O2-  O419  1  0.56137766  0.89160236  0.80192238  1
  O2-  O420  1  0.83905873  0.15981294  0.14418489  1
  O2-  O421  1  0.86276369  0.20253215  0.46806192  1
  O2-  O422  1  0.83275102  0.18270781  0.80275139  1
  O2-  O423  1  0.83068823  0.40952825  0.14253668  1
  O2-  O424  1  0.84741960  0.41774679  0.47418384  1
  O2-  O425  1  0.84334622  0.45016232  0.81782682  1
  O2-  O426  1  0.88003082  0.69279773  0.13567718  1
  O2-  O427  1  0.83695118  0.65805248  0.47796519  1
  O2-  O428  1  0.85502663  0.64608387  0.81228442  1
  O2-  O429  1  0.84145949  0.92955634  0.14050075  1
  O2-  O430  1  0.82551608  0.91234196  0.50652008  1
  O2-  O431  1  0.82596045  0.88329819  0.86074548  1
  O2-  O432  1  0.15940754  0.09140365  0.18904454  1
  O2-  O433  1  0.17638298  0.08674804  0.50746195  1
  O2-  O434  1  0.16146762  0.07672305  0.85785626  1
  O2-  O435  1  0.16621965  0.33516992  0.18647227  1
  O2-  O436  1  0.16958357  0.38025606  0.52010689  1
  O2-  O437  1  0.18248526  0.32675360  0.85935168  1
  O2-  O438  1  0.15796898  0.57319584  0.18525848  1
  O2-  O439  1  0.16166874  0.59285825  0.50516738  1
  O2-  O440  1  0.14207369  0.57379279  0.86192405  1
  O2-  O441  1  0.16105024  0.83077229  0.18155472  1
  O2-  O442  1  0.16245405  0.82512846  0.52213994  1
  O2-  O443  1  0.17049573  0.82904344  0.86956773  1
  O2-  O444  1  0.43211007  0.08033099  0.19376923  1
  O2-  O445  1  0.41500304  0.09418418  0.52347174  1
  O2-  O446  1  0.42682592  0.08718247  0.86955988  1
  O2-  O447  1  0.41527562  0.32878966  0.18502819  1
  O2-  O448  1  0.43867685  0.33052155  0.52256760  1
  O2-  O449  1  0.43598856  0.32851976  0.85850479  1
  O2-  O450  1  0.41795023  0.58479699  0.16332634  1
  O2-  O451  1  0.41310022  0.56371568  0.53242777  1
  O2-  O452  1  0.47091960  0.54721947  0.87298398  1
  O2-  O453  1  0.41512593  0.82786388  0.18052299  1
  O2-  O454  1  0.40695787  0.84328059  0.49785478  1
  O2-  O455  1  0.40546436  0.84620668  0.85475658  1
  O2-  O456  1  0.68279277  0.05879772  0.18827277  1
  O2-  O457  1  0.65770752  0.07239057  0.52321734  1
  O2-  O458  1  0.68979265  0.09065037  0.85381702  1
  O2-  O459  1  0.66821094  0.33972121  0.18586999  1
  O2-  O460  1  0.68165590  0.32659107  0.51584646  1
  O2-  O461  1  0.68949165  0.34795307  0.85245195  1
  O2-  O462  1  0.66312226  0.58090912  0.20257661  1
  O2-  O463  1  0.67480598  0.55680084  0.53099988  1
  O2-  O464  1  0.68552608  0.58100417  0.85618051  1
  O2-  O465  1  0.67861428  0.85721633  0.18166289  1
  O2-  O466  1  0.64907318  0.83820324  0.52853679  1
  O2-  O467  1  0.64605721  0.81534224  0.86138551  1
  O2-  O468  1  0.92701288  0.09201915  0.18274616  1
  O2-  O469  1  0.90504757  0.08237632  0.51572178  1
  O2-  O470  1  0.93596744  0.11616682  0.84879075  1
  O2-  O471  1  0.91008085  0.32329461  0.18396906  1
  O2-  O472  1  0.95253230  0.35378139  0.50496056  1
  O2-  O473  1  0.91425314  0.34725102  0.84718822  1
  O2-  O474  1  0.91804335  0.57093630  0.18771600  1
  O2-  O475  1  0.92543228  0.57760161  0.51563903  1
  O2-  O476  1  0.90759365  0.61237248  0.83876292  1
  O2-  O477  1  0.91411427  0.84256445  0.19323271  1
  O2-  O478  1  0.92946115  0.83670086  0.52162051  1
  O2-  O479  1  0.91790936  0.79612629  0.87203035  1
  O2-  O480  1  0.17243319  0.09703032  0.31415651  1
  O2-  O481  1  0.19001254  0.08761543  0.62597594  1
  O2-  O482  1  0.15594175  0.07290750  0.97727639  1
  O2-  O483  1  0.16373980  0.33832149  0.30985373  1
  O2-  O484  1  0.19346918  0.35973885  0.64663196  1
  O2-  O485  1  0.16757375  0.33982943  0.98277020  1
  O2-  O486  1  0.15736457  0.56912925  0.31167839  1
  O2-  O487  1  0.19300820  0.62781886  0.62944662  1
  O2-  O488  1  0.15562958  0.58290177  0.98350371  1
  O2-  O489  1  0.16369583  0.85843368  0.29742445  1
  O2-  O490  1  0.16899124  0.82950816  0.64970829  1
  O2-  O491  1  0.17879917  0.88196319  0.98280523  1
  O2-  O492  1  0.38315169  0.07608403  0.31129404  1
  O2-  O493  1  0.41034285  0.08229141  0.64656941  1
  O2-  O494  1  0.41421362  0.07822587  0.99198127  1
  O2-  O495  1  0.41751791  0.33344087  0.30794521  1
  O2-  O496  1  0.42985239  0.33848900  0.63973557  1
  O2-  O497  1  0.42236343  0.33979555  0.98109651  1
  O2-  O498  1  0.41532086  0.59054689  0.32576222  1
  O2-  O499  1  0.42968924  0.57924000  0.65078521  1
  O2-  O500  1  0.41383944  0.58250897  0.98945105  1
  O2-  O501  1  0.41976201  0.84043507  0.30357185  1
  O2-  O502  1  0.40458185  0.81489676  0.65435192  1
  O2-  O503  1  0.39100704  0.82461340  0.97380264  1
  O2-  O504  1  0.68094000  0.07606707  0.29925188  1
  O2-  O505  1  0.64785092  0.07724205  0.64770935  1
  O2-  O506  1  0.66428460  0.07407342  0.97960868  1
  O2-  O507  1  0.71861712  0.41665292  0.29682077  1
  O2-  O508  1  0.66549829  0.32875142  0.64014025  1
  O2-  O509  1  0.65356450  0.30767348  0.97659135  1
  O2-  O510  1  0.67008444  0.58564397  0.32220937  1
  O2-  O511  1  0.67640407  0.57642569  0.65000496  1
  O2-  O512  1  0.66566245  0.58905797  0.97882240  1
  O2-  O513  1  0.66495884  0.83786429  0.30552154  1
  O2-  O514  1  0.65529999  0.82657932  0.64837839  1
  O2-  O515  1  0.66969774  0.83037076  0.98466072  1
  O2-  O516  1  0.92582919  0.09041193  0.30414295  1
  O2-  O517  1  0.94583132  0.11467049  0.63589272  1
  O2-  O518  1  0.91878899  0.08680325  0.97297771  1
  O2-  O519  1  0.91786379  0.33663634  0.30630821  1
  O2-  O520  1  0.93622020  0.33644194  0.63542232  1
  O2-  O521  1  0.92110946  0.33076529  0.99515560  1
  O2-  O522  1  0.93511966  0.59377914  0.30326455  1
  O2-  O523  1  0.92951576  0.58601070  0.63934008  1
  O2-  O524  1  0.90015241  0.57761202  0.98811458  1
  O2-  O525  1  0.91551126  0.83925395  0.31694204  1
  O2-  O526  1  0.82033503  0.79154299  0.64301796  1
  O2-  O527  1  0.99132675  0.87937348  0.98752812  1
  O2-  O528  1  0.09066838  0.16605127  0.00868070  1
  O2-  O529  1  0.08472119  0.16964651  0.35231844  1
  O2-  O530  1  0.08866168  0.12831287  0.70248647  1
  O2-  O531  1  0.08007050  0.41437501  0.02664113  1
  O2-  O532  1  0.07333420  0.41644677  0.35951266  1
  O2-  O533  1  0.08861615  0.41803034  0.68851256  1
  O2-  O534  1  0.06854373  0.66551905  0.02522984  1
  O2-  O535  1  0.21443957  0.74799202  0.36360787  1
  O2-  O536  1  0.08735976  0.66547551  0.69094414  1
  O2-  O537  1  0.10084594  0.82723586  0.01919063  1
  O2-  O538  1  0.08339616  0.93399471  0.35608830  1
  O2-  O539  1  0.12577343  0.94457359  0.71509117  1
  O2-  O540  1  0.32721943  0.16323439  0.01738699  1
  O2-  O541  1  0.33052013  0.16722418  0.35704745  1
  O2-  O542  1  0.33999780  0.17910639  0.68561309  1
  O2-  O543  1  0.34574930  0.42798191  0.01816276  1
  O2-  O544  1  0.32982601  0.41383070  0.34808577  1
  O2-  O545  1  0.34780119  0.42042008  0.69274920  1
  O2-  O546  1  0.32183446  0.64949463  0.01495068  1
  O2-  O547  1  0.33852801  0.67312507  0.35307806  1
  O2-  O548  1  0.34480297  0.65919773  0.69128834  1
  O2-  O549  1  0.31563928  0.91775914  0.02766871  1
  O2-  O550  1  0.32981515  0.92440321  0.34550141  1
  O2-  O551  1  0.33597474  0.91986109  0.69349728  1
  O2-  O552  1  0.58543819  0.15853873  0.02625123  1
  O2-  O553  1  0.54169183  0.10180978  0.36945214  1
  O2-  O554  1  0.57874394  0.17047825  0.68274998  1
  O2-  O555  1  0.59270256  0.43316780  0.02590493  1
  O2-  O556  1  0.58051902  0.41831801  0.35488115  1
  O2-  O557  1  0.58719027  0.40985024  0.68859363  1
  O2-  O558  1  0.57434944  0.66629831  0.01406186  1
  O2-  O559  1  0.58562769  0.67587077  0.35133709  1
  O2-  O560  1  0.59576046  0.66185325  0.68684710  1
  O2-  O561  1  0.60627751  0.93497260  0.05120182  1
  O2-  O562  1  0.58470360  0.91912801  0.34895617  1
  O2-  O563  1  0.57120569  0.91493067  0.68619376  1
  O2-  O564  1  0.82745575  0.15865266  0.02121906  1
  O2-  O565  1  0.84125326  0.17100037  0.34770161  1
  O2-  O566  1  0.82165830  0.16931994  0.68660841  1
  O2-  O567  1  0.82364468  0.41012913  0.02013534  1
  O2-  O568  1  0.85311852  0.43225284  0.35501350  1
  O2-  O569  1  0.80508232  0.44719389  0.69610761  1
  O2-  O570  1  0.82882747  0.66133652  0.01992015  1
  O2-  O571  1  0.84069240  0.67154804  0.34963700  1
  O2-  O572  1  0.84293847  0.65983658  0.68748445  1
  O2-  O573  1  0.85292915  0.91728400  0.01542141  1
  O2-  O574  1  0.82285835  0.92382354  0.34278038  1
  O2-  O575  1  0.83566116  0.94470180  0.66833051  1
