# generated using pymatgen
data_H2O
_symmetry_space_group_name_H-M   'P 1'
_cell_length_a   18.00358493
_cell_length_b   18.00101140
_cell_length_c   22.01506970
_cell_angle_alpha   90.02315810
_cell_angle_beta   90.00338126
_cell_angle_gamma   119.99757147
_symmetry_Int_Tables_number   1
_chemical_formula_structural   H2O
_chemical_formula_sum   'H384 O192'
_cell_volume   6178.98537537
_cell_formula_units_Z   192
loop_
 _symmetry_equiv_pos_site_id
 _symmetry_equiv_pos_as_xyz
  1  'x, y, z'
loop_
 _atom_type_symbol
 _atom_type_oxidation_number
  H+  1.0
  O2-  -2.0
loop_
 _atom_site_type_symbol
 _atom_site_label
 _atom_site_symmetry_multiplicity
 _atom_site_fract_x
 _atom_site_fract_y
 _atom_site_fract_z
 _atom_site_occupancy
  H+  H0  1  0.02513827  0.64165117  0.82523826  1
  H+  H1  1  0.39066402  0.77743479  0.99271941  1
  H+  H2  1  0.86584361  0.97256209  0.00475879  1
  H+  H3  1  0.73630093  0.62148702  0.82587057  1
  H+  H4  1  0.62329280  0.23300355  0.15750827  1
  H+  H5  1  0.07039760  0.83363409  0.51277124  1
  H+  H6  1  0.38350212  0.51459719  0.16846561  1
  H+  H7  1  0.11305396  -0.01800650  0.49442068  1
  H+  H8  1  0.35857245  0.88033321  0.99806390  1
  H+  H9  1  0.32771965  0.18769533  0.38374834  1
  H+  H10  1  0.61450614  0.39307422  0.82083446  1
  H+  H11  1  0.10617520  0.63034187  0.33930767  1
  H+  H12  1  0.96982645  0.11341387  0.66494090  1
  H+  H13  1  0.85424063  0.14476203  0.63918342  1
  H+  H14  1  0.61053703  0.96731098  0.34305370  1
  H+  H15  1  0.64674500  0.84625437  0.16758619  1
  H+  H16  1  0.35605851  0.64318449  0.33925393  1
  H+  H17  1  0.27922202  0.65181889  -0.00271262  1
  H+  H18  1  0.36654082  0.12791012  0.16544400  1
  H+  H19  1  0.84995843  0.12931009  0.86102433  1
  H+  H20  1  0.73318563  0.79271460  0.70041333  1
  H+  H21  1  0.13839706  0.77518573  0.84201530  1
  H+  H22  1  0.08213576  0.66943357  0.73357584  1
  H+  H23  1  0.85832105  0.48571084  0.48543061  1
  H+  H24  1  0.87723804  0.76779158  0.65485477  1
  H+  H25  1  0.62362730  0.85423000  0.83870470  1
  H+  H26  1  0.77186387  0.39319637  0.66917692  1
  H+  H27  1  0.39053426  0.54010741  0.34096890  1
  H+  H28  1  0.86104935  0.38977132  0.82142373  1
  H+  H29  1  0.33074005  0.13180449  0.68936515  1
  H+  H30  1  0.38900498  0.32951604  0.51915975  1
  H+  H31  1  0.67431749  0.32992154  0.22806408  1
  H+  H32  1  0.37442359  0.73102763  0.67215585  1
  H+  H33  1  0.12461808  0.22429506  0.15441743  1
  H+  H34  1  0.51687962  0.86208653  0.49616273  1
  H+  H35  1  0.81625227  0.16631955  0.58302160  1
  H+  H36  1  0.88373599  0.27760897  0.84969535  1
  H+  H37  1  0.38470734  0.89812776  0.34577828  1
  H+  H38  1  0.29322916  0.63094207  0.50182230  1
  H+  H39  1  1.02556097  0.63813265  0.67159226  1
  H+  H40  1  0.39854944  0.29286941  0.96007888  1
  H+  H41  1  0.69963322  0.83441161  0.50753480  1
  H+  H42  1  0.26332892  0.88703248  0.83931679  1
  H+  H43  1  0.09586904  0.59469799  0.51532915  1
  H+  H44  1  0.45715221  0.10594520  0.98383099  1
  H+  H45  1  0.61424634  0.23181276  0.82588376  1
  H+  H46  1  0.57767824  0.42553978  0.01998867  1
  H+  H47  1  0.60770031  0.03068951  0.59081955  1
  H+  H48  1  0.89063419  0.87161031  0.50163074  1
  H+  H49  1  0.37105950  0.10630445  0.32124397  1
  H+  H50  1  0.87057165  0.73402679  0.82307074  1
  H+  H51  1  0.00767863  0.62087535  0.16038778  1
  H+  H52  1  0.92200567  0.32372779  0.22852309  1
  H+  H53  1  0.11445170  0.76326865  0.17396109  1
  H+  H54  1  0.32509023  0.36452353  0.46856389  1
  H+  H55  1  0.26407697  0.14379211  0.32770336  1
  H+  H56  1  0.10823919  0.47116734  0.34067609  1
  H+  H57  1  0.13900485  1.02931935  0.32577378  1
  H+  H58  1  0.21951450  0.12217676  0.79942289  1
  H+  H59  1  0.10041479  0.38267409  0.49376576  1
  H+  H60  1  0.64967284  0.64940938  0.67970833  1
  H+  H61  1  0.33594941  0.22165108  0.68897114  1
  H+  H62  1  0.27991827  0.09852162  0.83362282  1
  H+  H63  1  0.10532864  0.87078401  0.01082087  1
  H+  H64  1  0.61347028  0.67768815  0.73617063  1
  H+  H65  1  0.89080132  0.52667050  0.65558388  1
  H+  H66  1  0.34286513  0.62346284  0.81538758  1
  H+  H67  1  1.02523786  0.38018325  0.15820494  1
  H+  H68  1  0.72170555  0.85926797  -0.00713056  1
  H+  H69  1  0.16482599  0.08273243  0.26506286  1
  H+  H70  1  0.83318695  0.42059339  0.76045688  1
  H+  H71  1  0.75038706  0.89045319  0.32162192  1
  H+  H72  1  0.65376715  0.87512338  0.31930467  1
  H+  H73  1  0.75885451  0.87348512  0.82962560  1
  H+  H74  1  0.46845623  0.35815417  0.68083006  1
  H+  H75  1  0.26143117  0.61071159  0.17060758  1
  H+  H76  1  0.89114723  0.61643038  0.31109613  1
  H+  H77  1  0.78167233  0.38585853  1.00905627  1
  H+  H78  1  0.63055273  0.76992742  0.98901330  1
  H+  H79  1  0.61324019  0.10266093  0.84953584  1
  H+  H80  1  0.72071762  0.61561823  0.97908313  1
  H+  H81  1  0.64952427  0.25394931  0.48862041  1
  H+  H82  1  0.80938323  0.93537113  0.47889737  1
  H+  H83  1  0.87599784  0.23458909  0.15534682  1
  H+  H84  1  0.31680412  0.20631604  0.48028551  1
  H+  H85  1  0.47901381  0.11077889  0.17552543  1
  H+  H86  1  0.57771752  0.14847741  0.50016789  1
  H+  H87  1  0.78322196  0.12597489  1.01129245  1
  H+  H88  1  0.73081561  0.10070474  0.33723794  1
  H+  H89  1  0.95713178  0.09799001  0.83629087  1
  H+  H90  1  0.22879497  0.35774243  0.66642634  1
  H+  H91  1  0.85297113  0.10212629  0.36085014  1
  H+  H92  1  0.32550026  0.19754826  0.02469524  1
  H+  H93  1  0.21447723  0.60572196  0.32696800  1
  H+  H94  1  0.13909178  0.61706731  -0.00678135  1
  H+  H95  1  0.74814171  0.87727959  0.67039411  1
  H+  H96  1  0.60958686  0.71689329  0.17289500  1
  H+  H97  1  0.40682982  0.33582638  0.62646723  1
  H+  H98  1  0.78881211  0.14530615  0.15734868  1
  H+  H99  1  0.52801759  0.61992210  0.50699781  1
  H+  H100  1  0.20112409  0.10937071  0.66387340  1
  H+  H101  1  0.24329758  0.22773937  0.45824169  1
  H+  H102  1  0.63751591  0.61023036  0.51145899  1
  H+  H103  1  0.73255611  0.61573597  0.33915839  1
  H+  H104  1  0.87649110  0.74875793  0.33520563  1
  H+  H105  1  0.12844328  0.77027799  0.32418054  1
  H+  H106  1  0.12649642  0.60073551  0.17456820  1
  H+  H107  1  0.87715731  0.61865588  0.50667029  1
  H+  H108  1  0.11976806  -0.02710309  0.15525196  1
  H+  H109  1  0.47492848  0.58298997  0.83505561  1
  H+  H110  1  0.09316975  0.42731995  0.77508389  1
  H+  H111  1  0.57452243  0.89256720  0.39429168  1
  H+  H112  1  0.65481303  0.09839097  1.03343044  1
  H+  H113  1  0.92405116  0.04575864  0.49902311  1
  H+  H114  1  0.47583193  0.60987522  0.17609466  1
  H+  H115  1  0.25040656  0.61187274  0.51764773  1
  H+  H116  1  0.97276707  0.36684389  0.83773975  1
  H+  H117  1  0.09439411  0.13176257  0.82692742  1
  H+  H118  1  0.60451229  0.63994526  0.98767399  1
  H+  H119  1  0.47478900  0.36964675  0.32266052  1
  H+  H120  1  0.19420463  0.11009079  0.52044189  1
  H+  H121  1  0.85708114  0.84388648  0.66050268  1
  H+  H122  1  0.73656384  0.36302935  0.16916608  1
  H+  H123  1  0.27080371  0.38807907  0.33134256  1
  H+  H124  1  0.86846305  1.00704974  0.83711420  1
  H+  H125  1  0.21795084  0.85650696  0.99457801  1
  H+  H126  1  0.14077262  0.61966350  0.66509787  1
  H+  H127  1  0.13618883  0.86464239  0.84555925  1
  H+  H128  1  1.03322317  0.89623133  0.83402708  1
  H+  H129  1  0.77359984  0.56436953  1.03865277  1
  H+  H130  1  0.37977549  0.13197832  0.45307235  1
  H+  H131  1  0.12932054  0.97790925  0.83004034  1
  H+  H132  1  0.40454555  0.15787188  0.48040446  1
  H+  H133  1  0.14863354  0.36749702  0.66189317  1
  H+  H134  1  0.38306655  0.77501670  0.32195403  1
  H+  H135  1  0.09870028  0.13277192  0.67616102  1
  H+  H136  1  0.62069190  0.48807871  -0.03457252  1
  H+  H137  1  0.10145170  0.50800587  0.51456213  1
  H+  H138  1  0.86183783  0.94374738  0.41820512  1
  H+  H139  1  0.53495317  0.39716949  0.18895618  1
  H+  H140  1  0.09416951  0.88907769  0.66432072  1
  H+  H141  1  0.59774319  0.71574132  0.83062977  1
  H+  H142  1  0.10607739  0.22572123  0.67644953  1
  H+  H143  1  0.52308976  0.14659042  0.82478746  1
  H+  H144  1  0.11114293  0.87329230  0.16160367  1
  H+  H145  1  0.88763320  0.37737059  0.49316349  1
  H+  H146  1  0.85915293  0.74043197  0.49889286  1
  H+  H147  1  0.01028924  0.38324619  0.48750613  1
  H+  H148  1  0.60960535  0.71821284  0.50992292  1
  H+  H149  1  0.22893018  0.35863299  0.17428616  1
  H+  H150  1  0.02183763  0.89508944  0.33529917  1
  H+  H151  1  0.36296248  0.39430291  0.33086744  1
  H+  H152  1  0.33945434  0.94737799  0.49583888  1
  H+  H153  1  0.11376711  0.64080982  0.82748266  1
  H+  H154  1  0.87904239  0.02701596  0.65975719  1
  H+  H155  1  0.39083710  0.27237950  0.17187963  1
  H+  H156  1  0.83140903  0.54290933  0.19523047  1
  H+  H157  1  0.24649161  0.11070616  0.00061471  1
  H+  H158  1  0.13790842  0.11207123  0.97588792  1
  H+  H159  1  0.21995030  0.61565683  0.83801618  1
  H+  H160  1  0.56830497  0.88295623  0.10048702  1
  H+  H161  1  0.39555503  0.09368359  0.74160839  1
  H+  H162  1  0.02951396  0.13153356  0.00005950  1
  H+  H163  1  0.57767763  0.91468902  0.17005168  1
  H+  H164  1  1.01288765  0.87139287  1.01512030  1
  H+  H165  1  0.36524067  0.10337946  -0.00968047  1
  H+  H166  1  0.61366375  0.63731520  0.35148176  1
  H+  H167  1  0.39869319  0.08230071  0.90129472  1
  H+  H168  1  0.41692391  0.89310808  0.52200691  1
  H+  H169  1  0.12783716  0.36226102  0.84688642  1
  H+  H170  1  0.63530600  0.88505742  0.65102707  1
  H+  H171  1  0.45093983  0.82330409  0.16745745  1
  H+  H172  1  0.63113233  0.23391501  0.33870883  1
  H+  H173  1  0.12105605  0.27124193  0.84385597  1
  H+  H174  1  0.89585500  0.10672725  0.99149940  1
  H+  H175  1  0.35003093  0.96480582  -0.00451509  1
  H+  H176  1  0.10608678  0.15138137  0.46782377  1
  H+  H177  1  0.35607793  0.39125607  0.70334657  1
  H+  H178  1  0.48471105  0.62469396  0.34726901  1
  H+  H179  1  0.00429286  0.88704437  0.66280172  1
  H+  H180  1  0.83766031  0.17377561  0.91720238  1
  H+  H181  1  0.60987081  0.87654115  1.00976101  1
  H+  H182  1  0.90063906  0.12816995  0.16976171  1
  H+  H183  1  0.84034739  0.66788816  0.72710693  1
  H+  H184  1  0.59209391  0.07824709  0.64731704  1
  H+  H185  1  0.87173190  0.63750028  0.66832680  1
  H+  H186  1  0.12776490  0.51177199  0.17488401  1
  H+  H187  1  0.73241660  0.60203274  0.65753734  1
  H+  H188  1  0.89129907  0.36404165  0.17329021  1
  H+  H189  1  0.85731757  0.47835262  0.32860115  1
  H+  H190  1  0.32845478  0.91447838  0.78119199  1
  H+  H191  1  0.88375642  0.86465096  -0.00049477  1
  H+  H192  1  -0.03895722  0.60925511  0.50079798  1
  H+  H193  1  0.61312615  0.47558507  0.33879889  1
  H+  H194  1  0.87030392  0.47783058  0.15933365  1
  H+  H195  1  0.37615937  0.76671012  0.83953667  1
  H+  H196  1  0.02222350  0.63185433  0.00463705  1
  H+  H197  1  0.63994832  0.27849532  0.65811553  1
  H+  H198  1  0.39580433  0.28034964  0.81923140  1
  H+  H199  1  0.03585500  0.13783104  0.15081893  1
  H+  H200  1  0.34799022  0.70228672  0.16877829  1
  H+  H201  1  0.52240599  0.88206151  1.00949267  1
  H+  H202  1  0.59568473  0.83624390  0.49421452  1
  H+  H203  1  0.27807543  0.64853240  0.66562104  1
  H+  H204  1  0.37586007  0.98329951  0.34673205  1
  H+  H205  1  0.22022246  0.37391588  0.50465688  1
  H+  H206  1  0.58744025  0.11969090  -0.03204419  1
  H+  H207  1  0.48237378  0.38233356  -0.04167228  1
  H+  H208  1  0.82972173  0.65279256  1.06967334  1
  H+  H209  1  0.87500777  0.27237943  0.63665641  1
  H+  H210  1  0.34787142  0.48422802  0.78097574  1
  H+  H211  1  0.14149270  0.25019669  0.47887374  1
  H+  H212  1  0.37779935  0.52306779  -0.00513579  1
  H+  H213  1  0.38857090  0.79703453  0.53888220  1
  H+  H214  1  0.38225527  0.88175434  0.69546318  1
  H+  H215  1  0.88781060  0.52706974  0.83170159  1
  H+  H216  1  0.18262417  0.09374927  0.91838393  1
  H+  H217  1  0.65405146  0.53504994  0.19395040  1
  H+  H218  1  0.37111722  0.60583380  0.17268913  1
  H+  H219  1  0.12910748  0.85934725  0.32357901  1
  H+  H220  1  0.53610717  0.39726050  0.49862815  1
  H+  H221  1  0.36468987  0.64687928  -0.00395178  1
  H+  H222  1  0.65539651  0.04480082  0.17132260  1
  H+  H223  1  0.22943107  0.10410064  0.17474525  1
  H+  H224  1  0.61274670  0.63558268  0.82608857  1
  H+  H225  1  0.12849464  0.36307873  0.33280964  1
  H+  H226  1  0.37057783  0.00684617  0.84295186  1
  H+  H227  1  0.35641321  0.47678489  0.68355593  1
  H+  H228  1  0.46731832  0.04787443  0.51182341  1
  H+  H229  1  0.64214146  0.37166936  0.50514502  1
  H+  H230  1  0.50896823  0.87613949  0.82784620  1
  H+  H231  1  0.12757239  0.77056249  0.66267003  1
  H+  H232  1  0.36600755  0.88253720  0.15226190  1
  H+  H233  1  0.10762704  0.72271421  0.00995829  1
  H+  H234  1  0.21711533  0.85233328  0.48290968  1
  H+  H235  1  0.65520547  0.82866683  0.89930606  1
  H+  H236  1  0.17158561  0.94825866  0.46738458  1
  H+  H237  1  0.68929758  0.84149335  0.23033549  1
  H+  H238  1  0.64536406  0.53077183  0.82717435  1
  H+  H239  1  0.51671315  0.64016303  0.99402604  1
  H+  H240  1  0.88237385  0.86321579  0.83834747  1
  H+  H241  1  0.87310591  0.98225858  0.16121725  1
  H+  H242  1  0.39405087  1.01924642  0.16651489  1
  H+  H243  1  0.15267484  0.50441911  0.68119932  1
  H+  H244  1  0.15189860  0.53443967  0.99261262  1
  H+  H245  1  0.72947936  0.61530578  0.50935569  1
  H+  H246  1  0.38301182  0.51396116  0.50410520  1
  H+  H247  1  0.89604450  0.87039248  0.16871782  1
  H+  H248  1  0.20605158  0.47438692  0.71987002  1
  H+  H249  1  0.22307722  0.82587638  0.50690368  1
  H+  H250  1  0.60551775  0.62833307  0.17624004  1
  H+  H251  1  0.63438961  0.35908380  0.31738010  1
  H+  H252  1  0.13741010  0.40246984  1.00710559  1
  H+  H253  1  0.65258806  0.32859053  1.05141927  1
  H+  H254  1  0.07217877  0.71013514  0.49405027  1
  H+  H255  1  0.87020159  0.12540725  0.50713094  1
  H+  H256  1  0.40596999  0.56609128  0.93041522  1
  H+  H257  1  0.28631344  0.82259743  0.71032459  1
  H+  H258  1  0.47477322  0.74862307  0.45584733  1
  H+  H259  1  0.98433597  0.86845363  0.17045530  1
  H+  H260  1  0.38284807  0.60485654  0.66120976  1
  H+  H261  1  0.89235538  0.51717494  0.98751077  1
  H+  H262  1  0.87699832  0.64479681  0.15507072  1
  H+  H263  1  0.77428135  0.39486422  0.48717337  1
  H+  H264  1  0.87009534  0.38412963  1.00376635  1
  H+  H265  1  0.59271542  0.96630143  0.82758548  1
  H+  H266  1  0.64230368  0.00900727  1.01284901  1
  H+  H267  1  0.14149080  0.27295805  -0.00819015  1
  H+  H268  1  0.16528887  0.32484956  0.23161125  1
  H+  H269  1  0.63630822  0.97342444  0.50611003  1
  H+  H270  1  0.87050119  0.64425448  0.82307925  1
  H+  H271  1  0.65156689  0.12952724  0.17455844  1
  H+  H272  1  0.95455395  0.12274833  0.22523135  1
  H+  H273  1  0.96438426  0.35834161  0.65277195  1
  H+  H274  1  0.52555230  0.14972859  0.68122688  1
  H+  H275  1  0.10807740  0.48085819  0.83506626  1
  H+  H276  1  0.62277735  0.39577319  0.18875194  1
  H+  H277  1  0.89188923  0.88119477  0.32093265  1
  H+  H278  1  0.87934030  0.73752412  0.15365663  1
  H+  H279  1  0.36192329  0.39435959  0.00236916  1
  H+  H280  1  0.11472124  0.38050787  0.16186421  1
  H+  H281  1  0.14219063  0.10646803  0.16697335  1
  H+  H282  1  0.36413072  0.38326765  0.15858319  1
  H+  H283  1  0.71792523  0.06512938  0.51768358  1
  H+  H284  1  0.98810528  0.33790354  0.32409098  1
  H+  H285  1  0.37691184  0.85638316  0.84503784  1
  H+  H286  1  0.73275493  0.37083158  0.82771254  1
  H+  H287  1  0.52531044  0.39458610  0.81584387  1
  H+  H288  1  0.76745439  0.13151117  0.73543297  1
  H+  H289  1  0.63534776  0.36519152  0.65807973  1
  H+  H290  1  0.40301068  0.81852183  0.22924989  1
  H+  H291  1  0.60112474  0.20805364  -0.00567997  1
  H+  H292  1  0.91335057  0.34687454  0.55328890  1
  H+  H293  1  0.67065553  0.57625599  0.59936787  1
  H+  H294  1  0.11130790  0.01690383  0.66071887  1
  H+  H295  1  0.91876435  0.58656719  0.59622827  1
  H+  H296  1  0.90329485  0.83495984  0.56518202  1
  H+  H297  1  0.91728440  0.58118696  0.25281650  1
  H+  H298  1  0.07035525  0.65402462  0.10344911  1
  H+  H299  1  0.16816427  0.33307336  0.93273138  1
  H+  H300  1  0.15206066  0.57923068  0.60344562  1
  H+  H301  1  0.15393531  0.57106320  0.26833458  1
  H+  H302  1  0.63531410  0.35908451  0.98974817  1
  H+  H303  1  0.46771270  0.86997185  0.62595143  1
  H+  H304  1  0.34306274  0.91762793  0.09245670  1
  H+  H305  1  0.97588879  0.26117498  0.28598389  1
  H+  H306  1  0.91509414  0.83746514  0.89783367  1
  H+  H307  1  0.91819191  0.84346640  0.26214855  1
  H+  H308  1  0.84592002  0.41682097  0.09996445  1
  H+  H309  1  0.07953353  0.41260290  0.40235137  1
  H+  H310  1  0.40783226  0.56666567  0.60478911  1
  H+  H311  1  0.41396723  0.33458366  0.22941095  1
  H+  H312  1  0.93722959  0.09048337  0.56315942  1
  H+  H313  1  0.33003008  0.67912940  0.39337430  1
  H+  H314  1  0.87853163  0.77381875  0.99384527  1
  H+  H315  1  0.91602577  0.33845371  0.93305051  1
  H+  H316  1  0.38591088  0.94548876  0.43325271  1
  H+  H317  1  0.32652686  0.66946196  0.76101828  1
  H+  H318  1  0.58605130  0.16537844  0.10158176  1
  H+  H319  1  0.62418407  0.48388556  0.49241395  1
  H+  H320  1  0.60949287  0.41430699  0.09051884  1
  H+  H321  1  0.86974751  0.19592952  0.34825088  1
  H+  H322  1  0.52921410  0.07166460  0.56926412  1
  H+  H323  1  0.47833001  0.85710686  0.31971892  1
  H+  H324  1  0.88762309  0.60273868  0.98903312  1
  H+  H325  1  0.83706510  0.91782022  0.06636351  1
  H+  H326  1  0.63226038  0.14468835  0.34441570  1
  H+  H327  1  0.42394328  0.83898445  0.93501773  1
  H+  H328  1  0.32253605  0.42433868  0.41974639  1
  H+  H329  1  0.82276400  0.67968778  0.43956471  1
  H+  H330  1  0.16690591  0.33381380  0.56621638  1
  H+  H331  1  0.33035202  0.41258180  0.10043007  1
  H+  H332  1  0.54040948  0.88192986  0.73411077  1
  H+  H333  1  0.56676499  0.37259329  0.08952445  1
  H+  H334  1  0.61116677  0.47184212  0.66780358  1
  H+  H335  1  0.80766996  0.89096188  0.76706687  1
  H+  H336  1  0.14569488  0.82462709  0.23371529  1
  H+  H337  1  0.10798295  0.43222275  0.06593324  1
  H+  H338  1  0.82618977  0.42291258  0.38917912  1
  H+  H339  1  0.15685383  0.82905402  0.93651832  1
  H+  H340  1  0.68214445  0.59652089  0.27715754  1
  H+  H341  1  0.43591511  0.42363471  0.54474101  1
  H+  H342  1  0.38143019  0.02908859  0.68712414  1
  H+  H343  1  0.59391522  0.17549041  0.73176117  1
  H+  H344  1  0.21109453  0.86089347  0.64765649  1
  H+  H345  1  0.67718544  0.34585126  0.88778953  1
  H+  H346  1  0.76667084  0.13144513  0.76956698  1
  H+  H347  1  0.89018126  0.27554011  0.99070673  1
  H+  H348  1  0.85387857  0.17007515  0.06158463  1
  H+  H349  1  0.87872759  0.01988899  0.28710483  1
  H+  H350  1  0.62253387  0.18940352  0.42550179  1
  H+  H351  1  0.08340568  0.92350666  0.39421249  1
  H+  H352  1  0.91825392  0.58233405  0.89289054  1
  H+  H353  1  0.73963796  0.62503828  0.17754484  1
  H+  H354  1  0.26911186  0.38472862  0.00599488  1
  H+  H355  1  0.09787220  0.80250997  0.57159365  1
  H+  H356  1  0.58183096  0.41470569  0.39615067  1
  H+  H357  1  0.67420214  0.59585671  0.91278207  1
  H+  H358  1  0.82657197  0.16505431  0.46559574  1
  H+  H359  1  0.85933771  0.39041435  0.66774059  1
  H+  H360  1  0.40190303  0.07164697  0.26621157  1
  H+  H361  1  0.72834533  0.36852741  0.31945339  1
  H+  H362  1  0.38310788  0.28215999  0.31848413  1
  H+  H363  1  0.32384889  0.14549972  0.10802528  1
  H+  H364  1  0.43339070  0.66266866  0.41648334  1
  H+  H365  1  0.58599200  0.66183550  0.41335720  1
  H+  H366  1  0.11641984  0.23095861  0.37025772  1
  H+  H367  1  0.66992555  0.86224655  0.59199708  1
  H+  H368  1  0.13272642  0.07417588  0.57587551  1
  H+  H369  1  0.90960801  0.70094076  0.37720039  1
  H+  H370  1  0.08007741  0.90369370  0.08378359  1
  H+  H371  1  0.78484928  0.89033910  0.16072495  1
  H+  H372  1  0.41447056  0.61389243  0.50353988  1
  H+  H373  1  0.06885721  0.16257903  0.76644674  1
  H+  H374  1  0.06839834  0.65952355  0.43094534  1
  H+  H375  1  0.16572662  0.59029870  0.90053477  1
  H+  H376  1  0.67187415  0.34114613  0.56531411  1
  H+  H377  1  0.68526593  0.09023400  0.87994611  1
  H+  H378  1  0.01936661  0.63246325  0.33299546  1
  H+  H379  1  0.67810714  0.08370666  0.27554560  1
  H+  H380  1  0.09330186  0.16254386  0.05732257  1
  H+  H381  1  0.91601685  0.06899899  0.93169022  1
  H+  H382  1  0.41094599  0.34694311  0.87062926  1
  H+  H383  1  0.58710504  0.41883870  0.72946851  1
  O2-  O384  1  0.09631952  0.16492433  0.13688413  1
  O2-  O385  1  0.14438195  0.20805418  0.45007723  1
  O2-  O386  1  0.06311866  0.15946318  0.81244784  1
  O2-  O387  1  0.08708644  0.41300059  0.14672241  1
  O2-  O388  1  0.07361485  0.41326620  0.47438904  1
  O2-  O389  1  0.07805975  0.42052456  0.81891237  1
  O2-  O390  1  0.06866281  0.65155478  0.14887942  1
  O2-  O391  1  0.06040258  0.65377353  0.47604393  1
  O2-  O392  1  0.08618439  0.67361688  0.81112627  1
  O2-  O393  1  0.08577428  0.91142089  0.14064958  1
  O2-  O394  1  0.11180480  0.93366142  0.47049782  1
  O2-  O395  1  0.09375136  0.91551614  0.82388155  1
  O2-  O396  1  0.33419910  0.15785224  0.15188747  1
  O2-  O397  1  0.30779166  0.25089243  0.46257661  1
  O2-  O398  1  0.37604561  0.11921542  0.81522101  1
  O2-  O399  1  0.33209601  0.41334022  0.14608723  1
  O2-  O400  1  0.31919749  0.41565575  0.46543375  1
  O2-  O401  1  0.35167390  0.52485474  0.81360649  1
  O2-  O402  1  0.32320551  0.63996619  0.15832491  1
  O2-  O403  1  0.42330956  0.68947240  0.45250499  1
  O2-  O404  1  0.32396333  0.66533341  0.80663589  1
  O2-  O405  1  0.35674403  0.92863193  0.13619128  1
  O2-  O406  1  0.39392262  0.95474193  0.48158871  1
  O2-  O407  1  0.32711463  0.92028484  0.82631393  1
  O2-  O408  1  0.59324007  0.16968153  0.14574266  1
  O2-  O409  1  0.63368662  0.19463511  0.47334768  1
  O2-  O410  1  0.58336344  0.17051239  0.81288675  1
  O2-  O411  1  0.59648600  0.43068442  0.19977472  1
  O2-  O412  1  0.59165825  0.42207580  0.47734732  1
  O2-  O413  1  0.58869949  0.42720879  0.80605643  1
  O2-  O414  1  0.57089227  0.65497930  0.16462250  1
  O2-  O415  1  0.58788233  0.65624843  0.49250653  1
  O2-  O416  1  0.57225907  0.65596256  0.81458721  1
  O2-  O417  1  0.56039352  0.86430819  0.14495413  1
  O2-  O418  1  0.55514586  0.85437599  0.46775742  1
  O2-  O419  1  0.56780736  0.90770124  0.80955984  1
  O2-  O420  1  0.84832418  0.17276214  0.14112602  1
  O2-  O421  1  0.82192796  0.13880531  0.50535582  1
  O2-  O422  1  0.82519011  0.16572365  0.87378906  1
  O2-  O423  1  0.84296727  0.41484788  0.14525698  1
  O2-  O424  1  0.83225532  0.42636615  0.46808657  1
  O2-  O425  1  0.83109659  0.42068262  0.80630123  1
  O2-  O426  1  0.84837902  0.67713322  0.13801190  1
  O2-  O427  1  0.82796197  0.67705771  0.48382551  1
  O2-  O428  1  0.84054145  0.67409797  0.80661878  1
  O2-  O429  1  0.84588099  0.92361511  0.14437226  1
  O2-  O430  1  0.86498677  0.94436666  0.46596869  1
  O2-  O431  1  0.81817847  0.90320202  0.81210888  1
  O2-  O432  1  0.16636798  0.07150625  0.18381817  1
  O2-  O433  1  0.13364923  0.07313495  0.52939987  1
  O2-  O434  1  0.22072062  0.09348197  0.83684200  1
  O2-  O435  1  0.16705850  0.32514271  0.18663481  1
  O2-  O436  1  0.16167558  0.33567051  0.52110531  1
  O2-  O437  1  0.15610842  0.32973950  0.86018839  1
  O2-  O438  1  0.15690793  0.57179675  0.19166063  1
  O2-  O439  1  0.11241378  0.55850551  0.53949177  1
  O2-  O440  1  0.16041057  0.58687290  0.85445624  1
  O2-  O441  1  0.14105920  0.82383435  0.18735960  1
  O2-  O442  1  0.06299180  0.78221694  0.53417622  1
  O2-  O443  1  0.16854485  0.83422760  0.86021510  1
  O2-  O444  1  0.41753595  0.07852754  0.18565418  1
  O2-  O445  1  0.51054578  0.09793620  0.53595737  1
  O2-  O446  1  0.40838749  0.07476769  0.85466017  1
  O2-  O447  1  0.41787664  0.33378572  0.18386202  1
  O2-  O448  1  0.43718750  0.37004687  0.54482940  1
  O2-  O449  1  0.42098858  0.34159084  0.82706937  1
  O2-  O450  1  0.41000042  0.57507882  0.18494509  1
  O2-  O451  1  0.41947003  0.56821531  0.52635689  1
  O2-  O452  1  0.42083577  0.53351236  0.85342566  1
  O2-  O453  1  0.39369853  0.80665849  0.18432897  1
  O2-  O454  1  0.43428915  0.85584232  0.54551607  1
  O2-  O455  1  0.40874650  0.82658849  0.85579090  1
  O2-  O456  1  0.68500002  0.10170122  0.18937300  1
  O2-  O457  1  0.65541353  0.02870534  0.52582708  1
  O2-  O458  1  0.62294541  0.06165778  0.87375016  1
  O2-  O459  1  0.67474424  0.33085661  0.18185984  1
  O2-  O460  1  0.67480738  0.34340825  0.51973781  1
  O2-  O461  1  0.67121875  0.34042602  0.84384538  1
  O2-  O462  1  0.68434357  0.59922950  0.19955457  1
  O2-  O463  1  0.66858946  0.57769344  0.52325514  1
  O2-  O464  1  0.67588145  0.59179583  0.84189580  1
  O2-  O465  1  0.68734640  0.82984399  0.18457428  1
  O2-  O466  1  0.64382981  0.80997468  0.52684226  1
  O2-  O467  1  0.65288263  0.82327625  0.85393061  1
  O2-  O468  1  0.93268242  0.09880158  0.18513873  1
  O2-  O469  1  0.94692962  0.10261498  0.51909051  1
  O2-  O470  1  0.89928961  0.06611768  0.85547268  1
  O2-  O471  1  0.92060632  0.33034673  0.18380459  1
  O2-  O472  1  0.91622971  0.34569512  0.50851309  1
  O2-  O473  1  0.91214096  0.34114775  0.85273270  1
  O2-  O474  1  0.89198773  0.56944645  0.18440012  1
  O2-  O475  1  0.90212190  0.58261294  0.51962732  1
  O2-  O476  1  0.91888965  0.58717672  0.84760222  1
  O2-  O477  1  0.92350493  0.83764876  0.18472570  1
  O2-  O478  1  0.90807934  0.83248212  0.52007799  1
  O2-  O479  1  0.91766371  0.83775509  0.85295440  1
  O2-  O480  1  0.16888703  0.08925555  0.30988908  1
  O2-  O481  1  0.14064937  0.08047706  0.64766581  1
  O2-  O482  1  0.16850922  0.08165253  0.96177651  1
  O2-  O483  1  0.15688059  0.32957894  0.31536503  1
  O2-  O484  1  0.17082452  0.33021334  0.64659525  1
  O2-  O485  1  0.17365267  0.33404855  0.97874952  1
  O2-  O486  1  0.15329009  0.57105961  0.31403821  1
  O2-  O487  1  0.17248083  0.59210570  0.64781649  1
  O2-  O488  1  0.17286898  0.59343330  0.97388838  1
  O2-  O489  1  0.15505413  0.82763794  0.30481952  1
  O2-  O490  1  0.14889280  0.82885454  0.64370184  1
  O2-  O491  1  0.15580519  0.82838130  0.98221864  1
  O2-  O492  1  0.39702636  0.07101077  0.31099866  1
  O2-  O493  1  0.40530590  0.08968896  0.69690684  1
  O2-  O494  1  0.39688635  0.07826332  0.96834231  1
  O2-  O495  1  0.41508477  0.34437293  0.30602548  1
  O2-  O496  1  0.40575587  0.33056841  0.67105961  1
  O2-  O497  1  0.41859671  0.35329662  0.95271607  1
  O2-  O498  1  0.42072440  0.60333557  0.34277141  1
  O2-  O499  1  0.40430091  0.56587776  0.64981527  1
  O2-  O500  1  0.40800146  0.57993885  0.97412460  1
  O2-  O501  1  0.41803320  0.83373815  0.30464232  1
  O2-  O502  1  0.45264728  0.84833723  0.66861931  1
  O2-  O503  1  0.42365491  0.84146416  0.98015429  1
  O2-  O504  1  0.67155443  0.07711975  0.31996578  1
  O2-  O505  1  0.56367160  0.02905995  0.61960777  1
  O2-  O506  1  0.67823781  0.07286459  1.00598929  1
  O2-  O507  1  0.66734681  0.33197482  0.30248997  1
  O2-  O508  1  0.66969572  0.33900448  0.64245869  1
  O2-  O509  1  0.65863921  0.32383866  1.00759494  1
  O2-  O510  1  0.67446104  0.58712053  0.32219275  1
  O2-  O511  1  0.67076925  0.57262763  0.64494287  1
  O2-  O512  1  0.66439837  0.58767145  0.95858668  1
  O2-  O513  1  0.69501068  0.86218053  0.29884945  1
  O2-  O514  1  0.68874279  0.89877865  0.63006636  1
  O2-  O515  1  0.66216223  0.83368174  0.97729836  1
  O2-  O516  1  0.89360529  0.02865467  0.33019424  1
  O2-  O517  1  0.91277221  0.08499004  0.64375752  1
  O2-  O518  1  0.92313223  0.07316690  0.97708228  1
  O2-  O519  1  0.94327448  0.28790843  0.29997760  1
  O2-  O520  1  0.90736434  0.33902486  0.63653454  1
  O2-  O521  1  0.91246294  0.33560063  0.97813120  1
  O2-  O522  1  0.92090263  0.58511867  0.29983755  1
  O2-  O523  1  0.92458201  0.58764233  0.64172196  1
  O2-  O524  1  0.92064080  0.57752121  0.97120130  1
  O2-  O525  1  0.91712629  0.84455144  0.30761583  1
  O2-  O526  1  0.89859357  0.82838042  0.64195245  1
  O2-  O527  1  0.91521868  0.83427737  0.98381323  1
  O2-  O528  1  0.09138175  0.16364838  0.01198847  1
  O2-  O529  1  0.09494889  0.23972290  0.33079466  1
  O2-  O530  1  0.07128873  0.16624447  0.69283524  1
  O2-  O531  1  0.11875025  0.44255808  0.02193940  1
  O2-  O532  1  0.08219092  0.41041712  0.35607041  1
  O2-  O533  1  0.14827095  0.45292770  0.70381660  1
  O2-  O534  1  0.07966351  0.66219220  0.02457779  1
  O2-  O535  1  0.07688626  0.66198399  0.35330875  1
  O2-  O536  1  0.08567413  0.67073442  0.68806535  1
  O2-  O537  1  0.07329731  0.89786796  0.03098824  1
  O2-  O538  1  0.08270482  0.92266873  0.34905959  1
  O2-  O539  1  0.06545645  0.92135992  0.67593841  1
  O2-  O540  1  0.30431861  0.13610424  0.02494166  1
  O2-  O541  1  0.32800487  0.17968077  0.33996086  1
  O2-  O542  1  0.29646837  0.15970644  0.69778489  1
  O2-  O543  1  0.32961780  0.41766296  0.02344948  1
  O2-  O544  1  0.33038278  0.42264206  0.34620254  1
  O2-  O545  1  0.32449947  0.42278784  0.70963118  1
  O2-  O546  1  0.34048853  0.68264037  0.01019102  1
  O2-  O547  1  0.32022486  0.67043991  0.34929860  1
  O2-  O548  1  0.33590324  0.67109465  0.68503981  1
  O2-  O549  1  0.32252150  0.90587055  0.01176903  1
  O2-  O550  1  0.36498306  0.93094876  0.37063270  1
  O2-  O551  1  0.32923915  0.88327685  0.70663887  1
  O2-  O552  1  0.56611255  0.14475748  -0.00166005  1
  O2-  O553  1  0.60816999  0.17909265  0.36183982  1
  O2-  O554  1  0.58834661  0.17654018  0.68687581  1
  O2-  O555  1  0.58784714  0.42378333  -0.02367533  1
  O2-  O556  1  0.57900483  0.41403897  0.35097911  1
  O2-  O557  1  0.57970859  0.41142248  0.68436531  1
  O2-  O558  1  0.57870862  0.67224492  0.00499736  1
  O2-  O559  1  0.58117570  0.66338814  0.36831919  1
  O2-  O560  1  0.64713819  0.69823675  0.69835597  1
  O2-  O561  1  0.58063906  0.90611148  0.02933183  1
  O2-  O562  1  0.57963682  0.90408899  0.34955508  1
  O2-  O563  1  0.53142207  0.85459379  0.69265250  1
  O2-  O564  1  0.84730097  0.16270400  0.01654694  1
  O2-  O565  1  0.83037198  0.14125665  0.36894213  1
  O2-  O566  1  0.82383631  0.17563789  0.62757058  1
  O2-  O567  1  0.84278529  0.41893072  0.01995956  1
  O2-  O568  1  0.82249569  0.41884428  0.34401074  1
  O2-  O569  1  0.83256112  0.42322298  0.68474023  1
  O2-  O570  1  0.81091258  0.62440786  0.02749834  1
  O2-  O571  1  0.85889463  0.69068456  0.35434164  1
  O2-  O572  1  0.83723719  0.66422652  0.68190516  1
  O2-  O573  1  0.83319732  0.91232846  0.02102828  1
  O2-  O574  1  0.85113273  0.93820225  0.35129788  1
  O2-  O575  1  0.78027656  0.85503860  0.69621859  1
