# generated using pymatgen
data_H2O
_symmetry_space_group_name_H-M   'P 1'
_cell_length_a   17.98865687
_cell_length_b   17.97344325
_cell_length_c   21.98901407
_cell_angle_alpha   90.02944416
_cell_angle_beta   89.97262290
_cell_angle_gamma   120.00149968
_symmetry_Int_Tables_number   1
_chemical_formula_structural   H2O
_chemical_formula_sum   'H384 O192'
_cell_volume   6156.86706826
_cell_formula_units_Z   192
loop_
 _symmetry_equiv_pos_site_id
 _symmetry_equiv_pos_as_xyz
  1  'x, y, z'
loop_
 _atom_type_symbol
 _atom_type_oxidation_number
  H+  1.0
  O2-  -2.0
loop_
 _atom_site_type_symbol
 _atom_site_label
 _atom_site_symmetry_multiplicity
 _atom_site_fract_x
 _atom_site_fract_y
 _atom_site_fract_z
 _atom_site_occupancy
  H+  H0  1  0.48370630  0.37252151  0.64400559  1
  H+  H1  1  0.62284016  0.79334155  0.94181368  1
  H+  H2  1  0.61008241  0.48155501  0.81790086  1
  H+  H3  1  0.05486582  0.16182274  0.81819281  1
  H+  H4  1  0.13255528  0.27567214  0.64363052  1
  H+  H5  1  0.08179492  0.16820738  0.10331567  1
  H+  H6  1  0.87006867  0.88802613  0.49480282  1
  H+  H7  1  0.64357298  0.86099954  0.33071260  1
  H+  H8  1  0.43117253  0.41032855  0.16499600  1
  H+  H9  1  0.17509329  0.05359627  0.82683736  1
  H+  H10  1  0.72622781  0.01860678  0.62152637  1
  H+  H11  1  0.02815146  0.89151670  0.33757469  1
  H+  H12  1  0.10689820  0.71880686  0.67438845  1
  H+  H13  1  0.39033780  0.76724707  0.50770584  1
  H+  H14  1  0.28694596  0.15160193  0.67044745  1
  H+  H15  1  0.10389092  0.72353645  0.01715546  1
  H+  H16  1  0.65960284  0.08189421  0.26788771  1
  H+  H17  1  0.37646153  0.84651279  0.66038622  1
  H+  H18  1  0.41621036  0.05681931  0.89523203  1
  H+  H19  1  0.86404507  0.67534256  0.43172017  1
  H+  H20  1  0.12848893  0.74049369  0.33862381  1
  H+  H21  1  0.75249826  0.61298321  0.49482515  1
  H+  H22  1  0.63210334  0.61196123  0.83016919  1
  H+  H23  1  0.34014713  0.91510615  0.07191534  1
  H+  H24  1  0.74335407  0.11707124  0.01675219  1
  H+  H25  1  0.19994696  0.08633970  0.18322186  1
  H+  H26  1  0.81977613  0.64974243  0.72867655  1
  H+  H27  1  0.63682763  0.76299880  0.16464147  1
  H+  H28  1  0.76826881  0.88358581  0.67139741  1
  H+  H29  1  0.38045811  1.00711431  0.34372176  1
  H+  H30  1  0.51373791  0.87319106  0.67293882  1
  H+  H31  1  0.61563966  0.63720858  0.65723609  1
  H+  H32  1  0.71960608  0.86156279  0.96206522  1
  H+  H33  1  0.35826082  0.24220469  0.49139885  1
  H+  H34  1  0.10706091  0.21452499  0.00312485  1
  H+  H35  1  0.61148074  0.64347932  0.50731501  1
  H+  H36  1  0.30752757  0.91144300  0.16672518  1
  H+  H37  1  0.14231088  0.03042564  0.32870561  1
  H+  H38  1  0.63900094  0.77232682  0.65193999  1
  H+  H39  1  0.98643519  0.11558307  0.50694197  1
  H+  H40  1  0.62610093  0.88903977  0.15834531  1
  H+  H41  1  0.61931462  0.97263114  0.33884807  1
  H+  H42  1  0.84432641  0.61108861  0.81937621  1
  H+  H43  1  0.78312988  0.13286565  0.67647438  1
  H+  H44  1  0.54029007  0.64101826  0.15661407  1
  H+  H45  1  0.40438179  0.07895884  0.60312988  1
  H+  H46  1  0.61837062  0.48254114  0.66265253  1
  H+  H47  1  0.39600289  0.28514957  0.64419305  1
  H+  H48  1  0.38207273  0.76018690  0.66799738  1
  H+  H49  1  0.26069470  0.86127075  0.82697547  1
  H+  H50  1  0.25426640  0.41396774  0.14620942  1
  H+  H51  1  0.86968845  0.87252194  0.33740798  1
  H+  H52  1  0.19864393  0.91751622  0.17876071  1
  H+  H53  1  0.58627049  0.34051124  -0.01671379  1
  H+  H54  1  0.02424245  0.14389850  0.16407990  1
  H+  H55  1  0.38147066  0.29929894  0.99351424  1
  H+  H56  1  0.71013177  0.12435538  0.32982470  1
  H+  H57  1  0.88838167  0.11751355  0.17980346  1
  H+  H58  1  0.61289034  0.73128813  0.49859896  1
  H+  H59  1  1.03920369  0.65584547  0.32958068  1
  H+  H60  1  0.47665471  0.10406493  0.34847271  1
  H+  H61  1  0.39004690  0.65690503  1.01020804  1
  H+  H62  1  0.48129444  0.38364233  0.83486848  1
  H+  H63  1  0.39463199  0.91028105  0.16193031  1
  H+  H64  1  0.41398160  0.27373828  0.17698390  1
  H+  H65  1  0.79044134  0.64475376  0.34088949  1
  H+  H66  1  0.13446157  0.11350697  0.49623915  1
  H+  H67  1  0.39378854  0.77495034  0.32814545  1
  H+  H68  1  1.01719612  0.12543009  1.00782151  1
  H+  H69  1  0.86241112  0.97578439  0.17150468  1
  H+  H70  1  0.13607731  0.52368697  0.66371982  1
  H+  H71  1  0.39042049  1.00104800  0.83484822  1
  H+  H72  1  0.58899358  0.10813849  0.66663242  1
  H+  H73  1  0.73093851  0.86609912  0.50488545  1
  H+  H74  1  0.03406307  0.97686693  0.12053051  1
  H+  H75  1  0.15629635  0.32691898  0.54739689  1
  H+  H76  1  0.09116048  0.95949207  0.66558324  1
  H+  H77  1  0.37043058  0.37170191  0.34284576  1
  H+  H78  1  0.11761715  0.61224187  0.84233571  1
  H+  H79  1  1.02529622  0.88929263  0.49640997  1
  H+  H80  1  0.48400980  0.86241596  0.84514108  1
  H+  H81  1  0.87079161  0.74105518  0.15494392  1
  H+  H82  1  0.37572503  0.26322150  0.82068769  1
  H+  H83  1  0.64338183  0.36379117  0.16582033  1
  H+  H84  1  0.64018889  0.12180837  0.82757349  1
  H+  H85  1  0.88701081  0.27176138  0.66528953  1
  H+  H86  1  0.59292111  0.11561094  0.34814632  1
  H+  H87  1  0.88599842  0.27391007  0.84250016  1
  H+  H88  1  0.72103632  0.36070054  0.82978099  1
  H+  H89  1  0.62304851  0.90122471  0.99301947  1
  H+  H90  1  -0.03383077  0.85125229  0.66728996  1
  H+  H91  1  0.52900796  0.88600667  0.00806890  1
  H+  H92  1  0.12833081  0.85559284  0.65381372  1
  H+  H93  1  0.27487763  0.50079269  0.11432409  1
  H+  H94  1  0.88477191  0.34434521  0.51351364  1
  H+  H95  1  0.52254110  0.12702628  0.81996998  1
  H+  H96  1  0.54978963  0.40022313  0.16798169  1
  H+  H97  1  0.49455433  0.62999689  -0.01361823  1
  H+  H98  1  0.58656639  0.66720626  0.71710253  1
  H+  H99  1  0.12440069  0.76159850  0.50136643  1
  H+  H100  1  0.10915467  0.22577668  0.48941678  1
  H+  H101  1  0.11764176  0.13900244  0.34258564  1
  H+  H102  1  0.36045070  0.63144802  0.34179878  1
  H+  H103  1  0.98544015  0.60672372  0.50797146  1
  H+  H104  1  0.39072119  0.25407549  0.33815515  1
  H+  H105  1  0.63575862  0.02207437  0.50166230  1
  H+  H106  1  0.39133407  0.12280321  0.51062737  1
  H+  H107  1  0.61531006  0.88759805  0.49239186  1
  H+  H108  1  0.97746653  0.37353439  0.17262594  1
  H+  H109  1  0.22699509  0.61273815  0.50848003  1
  H+  H110  1  0.36525263  0.62903201  0.67150304  1
  H+  H111  1  0.16292437  0.13866537  0.82613628  1
  H+  H112  1  0.89517055  0.50927377  0.00450584  1
  H+  H113  1  0.99535356  0.62161470  0.83084865  1
  H+  H114  1  0.91139574  0.55402382  0.28760217  1
  H+  H115  1  0.11133271  0.63265789  0.67844465  1
  H+  H116  1  0.18916742  0.06407605  0.99021308  1
  H+  H117  1  0.11971933  0.48999411  0.16137418  1
  H+  H118  1  0.89753575  0.77652612  0.50793428  1
  H+  H119  1  0.52379289  0.88236158  0.49354311  1
  H+  H120  1  0.47706660  0.61558193  0.64673311  1
  H+  H121  1  0.13861722  0.27972822  0.17031049  1
  H+  H122  1  0.13308232  0.36590561  0.17606056  1
  H+  H123  1  0.15034303  0.90648604  0.82367015  1
  H+  H124  1  0.27907433  0.88512779  0.34598538  1
  H+  H125  1  1.02652782  0.38484727  1.00781340  1
  H+  H126  1  0.86846001  0.48890853  0.14934759  1
  H+  H127  1  0.62969313  0.23639422  0.15564351  1
  H+  H128  1  0.56154745  0.52967957  0.28028131  1
  H+  H129  1  0.88495907  0.01815116  0.66520533  1
  H+  H130  1  0.37964917  0.45603069  0.49834011  1
  H+  H131  1  0.84761170  0.82723782  0.84222597  1
  H+  H132  1  0.23110453  0.38095007  0.83562595  1
  H+  H133  1  0.40676556  0.36230335  0.54957363  1
  H+  H134  1  0.83251643  0.85383773  -0.00465473  1
  H+  H135  1  0.14920904  0.87380993  0.33071923  1
  H+  H136  1  0.98233318  0.64224995  0.99071704  1
  H+  H137  1  0.46154957  0.09862545  0.66234090  1
  H+  H138  1  0.22810755  0.02107705  0.10943810  1
  H+  H139  1  0.74572492  0.36993324  0.98498104  1
  H+  H140  1  0.57240729  0.15042947  0.72403148  1
  H+  H141  1  0.63990223  0.72107814  0.01501179  1
  H+  H142  1  0.62053293  0.59737335  -0.00798089  1
  H+  H143  1  0.13811600  0.25393195  0.81997678  1
  H+  H144  1  0.96632994  0.61289736  0.09773363  1
  H+  H145  1  0.85489635  0.71586743  0.67207013  1
  H+  H146  1  0.01880046  0.38433529  0.82789401  1
  H+  H147  1  0.81866664  0.90585824  0.73394721  1
  H+  H148  1  0.39293521  1.03280846  0.51022012  1
  H+  H149  1  0.63608667  0.47305082  0.48116687  1
  H+  H150  1  0.91054923  0.38616615  -0.00584734  1
  H+  H151  1  0.72742874  0.35408588  0.52187961  1
  H+  H152  1  0.88689470  0.64080246  0.49251095  1
  H+  H153  1  0.73057249  0.11961589  0.17202735  1
  H+  H154  1  0.22629639  0.61007733  0.66817575  1
  H+  H155  1  0.38026110  0.65236087  0.17228583  1
  H+  H156  1  0.38906836  0.05298398  0.17938871  1
  H+  H157  1  0.06045624  0.65708575  0.77436284  1
  H+  H158  1  0.13116116  0.36276662  0.64518369  1
  H+  H159  1  0.97486091  0.36430582  0.31857675  1
  H+  H160  1  0.38525031  0.53815664  0.17259199  1
  H+  H161  1  0.14173950  0.57785606  0.94150021  1
  H+  H162  1  0.48388441  0.86281106  0.33028920  1
  H+  H163  1  0.84380343  0.70257935  0.81970490  1
  H+  H164  1  0.77362216  0.13832969  0.83109757  1
  H+  H165  1  0.85572878  0.47391421  0.82192552  1
  H+  H166  1  0.36928067  0.42358144  0.82740114  1
  H+  H167  1  0.20761924  0.61471624  0.84285524  1
  H+  H168  1  0.64814965  0.58272711  0.24467167  1
  H+  H169  1  0.53520432  0.01613808  0.94016747  1
  H+  H170  1  0.60685145  0.95902588  0.66842539  1
  H+  H171  1  0.61004593  0.98323821  0.82214636  1
  H+  H172  1  0.87241893  0.13850139  0.68021413  1
  H+  H173  1  0.47705254  0.37874400  0.99845155  1
  H+  H174  1  0.73953226  0.37695334  0.66338704  1
  H+  H175  1  0.12664603  0.35210500  0.48674396  1
  H+  H176  1  0.67142447  0.83886882  0.56469049  1
  H+  H177  1  0.02144532  0.38039888  0.49168168  1
  H+  H178  1  0.63101800  0.85678130  0.65901522  1
  H+  H179  1  0.14328907  0.62264405  0.32717014  1
  H+  H180  1  0.47085914  0.60195925  0.50178190  1
  H+  H181  1  0.72889192  0.61126736  0.64822538  1
  H+  H182  1  0.87891651  0.86489451  0.18249243  1
  H+  H183  1  0.16777872  0.81371862  0.18503008  1
  H+  H184  1  0.37929354  0.74085845  0.16699166  1
  H+  H185  1  0.88471483  0.41487709  0.31640152  1
  H+  H186  1  0.64754455  0.62234978  0.35269419  1
  H+  H187  1  0.33025780  0.07990505  0.00561534  1
  H+  H188  1  0.11803251  0.96543976  0.14021399  1
  H+  H189  1  0.51953553  0.35787283  0.34502770  1
  H+  H190  1  0.35034923  0.50329721  0.81354093  1
  H+  H191  1  0.34928884  -0.03614381  0.66946189  1
  H+  H192  1  0.85797947  0.09247195  0.84795721  1
  H+  H193  1  0.12364568  0.85855298  0.50306754  1
  H+  H194  1  0.24044857  0.62622254  0.17333061  1
  H+  H195  1  0.40106234  0.54824180  0.97639474  1
  H+  H196  1  0.89260673  0.77824606  0.32544346  1
  H+  H197  1  0.39006727  0.52496616  0.65344742  1
  H+  H198  1  0.37474768  0.39975486  0.66905786  1
  H+  H199  1  0.86396657  0.23397222  0.16818837  1
  H+  H200  1  0.60266151  0.47214533  0.00145831  1
  H+  H201  1  0.62847924  0.13786450  0.15744220  1
  H+  H202  1  0.62062355  0.37151242  0.33655629  1
  H+  H203  1  0.63655159  0.26442968  0.51885496  1
  H+  H204  1  0.40434608  0.40137860  0.19329399  1
  H+  H205  1  0.88121293  0.25496533  0.50309245  1
  H+  H206  1  0.15787789  0.82716713  0.90421183  1
  H+  H207  1  0.11716676  0.97716164  0.49114082  1
  H+  H208  1  0.72699878  0.11237775  0.49682895  1
  H+  H209  1  0.87165100  -0.02189678  0.49164123  1
  H+  H210  1  0.41266732  0.76557207  0.85254615  1
  H+  H211  1  0.31105261  0.06658064  0.18515734  1
  H+  H212  1  0.87239214  0.29292205  0.33192451  1
  H+  H213  1  0.61317083  0.13339726  0.50280484  1
  H+  H214  1  0.49687543  0.87467885  0.17509750  1
  H+  H215  1  0.83779446  0.94388292  0.00532473  1
  H+  H216  1  0.60521675  0.22336562  0.81392705  1
  H+  H217  1  0.86758323  0.39929551  0.15903667  1
  H+  H218  1  0.77232837  0.87420785  0.34199411  1
  H+  H219  1  0.73277733  0.36592490  0.16611960  1
  H+  H220  1  0.96910402  0.86962482  0.17569997  1
  H+  H221  1  0.77356637  0.88587953  0.16555364  1
  H+  H222  1  0.21820010  0.85524510  0.65148442  1
  H+  H223  1  0.71715164  0.60413202  0.83186234  1
  H+  H224  1  0.11673635  0.76619898  0.84575352  1
  H+  H225  1  0.88236703  0.36175527  0.83832476  1
  H+  H226  1  0.22482493  0.36504700  0.98626028  1
  H+  H227  1  0.40164167  0.77871116  0.00493465  1
  H+  H228  1  0.81702662  -0.05331274  0.83392676  1
  H+  H229  1  0.86084611  0.38195573  0.66588969  1
  H+  H230  1  0.22048477  0.85824226  0.00017663  1
  H+  H231  1  0.31618836  0.14773747  1.04256950  1
  H+  H232  1  0.75295799  0.40753622  -0.03421687  1
  H+  H233  1  0.89889742  0.11802188  0.51491790  1
  H+  H234  1  0.43230712  0.63692183  0.88750899  1
  H+  H235  1  0.85218160  0.53888893  0.88381295  1
  H+  H236  1  0.87904506  0.85555855  0.66490520  1
  H+  H237  1  0.37814221  0.10157787  0.34534701  1
  H+  H238  1  0.12045161  0.38877269  0.31669631  1
  H+  H239  1  0.13329462  0.66849033  0.18025669  1
  H+  H240  1  0.58273986  0.21221477  1.00256645  1
  H+  H241  1  0.92808581  0.06324493  0.85450285  1
  H+  H242  1  0.08870266  0.41947257  0.26152401  1
  H+  H243  1  0.46594606  0.59598901  0.33913504  1
  H+  H244  1  0.83277463  0.12425436  0.44743233  1
  H+  H245  1  0.07908992  0.94641036  -0.00316176  1
  H+  H246  1  0.89151608  0.10788704  1.00770404  1
  H+  H247  1  0.09657124  0.09265196  0.64899795  1
  H+  H248  1  0.64333862  0.38120469  0.66366430  1
  H+  H249  1  0.36198381  0.87634821  0.01294729  1
  H+  H250  1  0.11217784  0.08223430  0.99356722  1
  H+  H251  1  0.13597542  0.36942989  0.83648007  1
  H+  H252  1  0.74206324  0.38698415  0.31199986  1
  H+  H253  1  0.97513453  0.60966293  0.66333160  1
  H+  H254  1  0.64296760  1.02793738  0.16830188  1
  H+  H255  1  0.58704668  0.12386840  1.00148220  1
  H+  H256  1  0.08924271  0.62842652  0.01499795  1
  H+  H257  1  0.36622661  0.41285189  -0.00063647  1
  H+  H258  1  0.86896208  0.47230990  0.50745158  1
  H+  H259  1  0.12162011  0.64080192  0.49299434  1
  H+  H260  1  0.42696516  0.20128245  0.20353593  1
  H+  H261  1  0.23607067  0.36067706  0.32976389  1
  H+  H262  1  0.27470314  0.14835226  0.49714767  1
  H+  H263  1  0.15524402  0.14423941  0.18709804  1
  H+  H264  1  0.90299808  0.63513789  0.13355300  1
  H+  H265  1  0.45694365  0.09206760  0.99740769  1
  H+  H266  1  0.60867752  0.39060682  0.81497357  1
  H+  H267  1  0.63454894  0.73901019  0.80304441  1
  H+  H268  1  0.11356212  0.38053248  0.00903077  1
  H+  H269  1  0.02141385  0.38784176  0.67220374  1
  H+  H270  1  0.10680027  0.47027310  0.49201257  1
  H+  H271  1  0.86597986  0.47533726  0.66792616  1
  H+  H272  1  0.27668215  0.16081445  0.82068462  1
  H+  H273  1  0.91457850  0.34213650  0.23058133  1
  H+  H274  1  0.12382475  0.52218954  0.00089754  1
  H+  H275  1  0.38029026  0.89848824  0.50217252  1
  H+  H276  1  0.52539501  0.13858545  0.50526401  1
  H+  H277  1  0.05179650  0.67455389  0.16291128  1
  H+  H278  1  1.02222598  0.13966425  0.67478598  1
  H+  H279  1  0.88262304  0.68495263  0.98843586  1
  H+  H280  1  0.73378573  0.62581744  0.15880351  1
  H+  H281  1  0.36970091  0.88501035  0.34365209  1
  H+  H282  1  0.27259166  0.12936620  0.34807312  1
  H+  H283  1  0.75213277  0.24205768  0.37700872  1
  H+  H284  1  0.73596270  0.15186123  1.02891267  1
  H+  H285  1  0.90426263  0.25347117  0.01584856  1
  H+  H286  1  0.62454596  0.37904681  0.49303181  1
  H+  H287  1  0.67909679  0.60294469  0.45399852  1
  H+  H288  1  0.84675863  0.70318373  0.08739639  1
  H+  H289  1  0.87937143  0.65033210  0.32227537  1
  H+  H290  1  0.21836195  0.97692528  0.78149586  1
  H+  H291  1  0.87111576  0.47454645  0.36311612  1
  H+  H292  1  0.60001045  0.00551075  0.98179808  1
  H+  H293  1  0.89030806  0.06100540  0.94645379  1
  H+  H294  1  0.16812813  0.58768355  0.56796911  1
  H+  H295  1  0.92543515  0.58170638  0.56830991  1
  H+  H296  1  0.92014251  0.33994529  0.93363347  1
  H+  H297  1  0.68560397  0.06666823  0.58781797  1
  H+  H298  1  0.58322058  0.41697568  0.06484927  1
  H+  H299  1  0.59122776  0.66678107  0.07611389  1
  H+  H300  1  0.59990862  0.92304284  0.09912724  1
  H+  H301  1  0.35164560  0.19849788  0.75931033  1
  H+  H302  1  0.04985470  0.89575143  0.05957398  1
  H+  H303  1  0.83773003  0.16257074  0.77476670  1
  H+  H304  1  0.52898099  0.26537105  0.93848930  1
  H+  H305  1  0.10522731  0.47496308  0.82859662  1
  H+  H306  1  0.15259588  0.07618310  0.55559570  1
  H+  H307  1  0.91678713  0.83954022  0.26501385  1
  H+  H308  1  0.66247019  0.82102953  0.22675231  1
  H+  H309  1  0.42255645  0.35628979  0.89568037  1
  H+  H310  1  0.90317616  0.13807988  0.32804382  1
  H+  H311  1  0.66786125  0.33559370  0.60446889  1
  H+  H312  1  0.63096713  0.66407682  0.41311002  1
  H+  H313  1  0.88611255  0.79917074  0.89611786  1
  H+  H314  1  0.57619078  0.91363562  0.76921472  1
  H+  H315  1  0.83043794  0.40908254  0.76406171  1
  H+  H316  1  0.43558326  0.84622196  0.23458467  1
  H+  H317  1  0.16259791  0.33057829  0.92976822  1
  H+  H318  1  0.64499048  0.77256368  0.33070019  1
  H+  H319  1  0.15214225  0.82321606  0.56723511  1
  H+  H320  1  0.08473364  0.42162712  0.10580448  1
  H+  H321  1  0.34704692  0.85656107  0.82194781  1
  H+  H322  1  0.35885124  0.62427521  0.49222551  1
  H+  H323  1  0.79983185  0.19460292  0.41197424  1
  H+  H324  1  0.64454546  0.56741152  0.92921365  1
  H+  H325  1  0.18145889  0.33461486  0.26768458  1
  H+  H326  1  0.64929136  0.32722258  0.88314871  1
  H+  H327  1  0.32660368  0.44791870  0.05024640  1
  H+  H328  1  0.33193908  0.16113434  0.40922081  1
  H+  H329  1  0.37551357  -0.00371955  0.99487171  1
  H+  H330  1  0.96012226  0.83260504  0.99486459  1
  H+  H331  1  0.34409112  0.43182919  0.72761120  1
  H+  H332  1  0.92267170  0.09208610  0.23828583  1
  H+  H333  1  0.43218233  0.29901437  0.27580528  1
  H+  H334  1  0.42583651  0.83343780  0.94238233  1
  H+  H335  1  0.07686995  0.15946603  0.43288421  1
  H+  H336  1  0.14091355  0.53175914  0.31911431  1
  H+  H337  1  0.65279896  0.08305457  0.88908920  1
  H+  H338  1  0.98400467  0.12574071  0.33034423  1
  H+  H339  1  0.41935063  0.82200531  0.56886740  1
  H+  H340  1  0.58981437  0.16777920  0.09466923  1
  H+  H341  1  0.31752484  0.89812383  0.72600602  1
  H+  H342  1  0.91889021  0.07873091  0.60547817  1
  H+  H343  1  0.58945719  0.91411360  0.39904393  1
  H+  H344  1  0.88445150  0.60821253  0.65936939  1
  H+  H345  1  0.82656205  0.40455600  0.45399674  1
  H+  H346  1  0.36854910  0.13903600  0.67040965  1
  H+  H347  1  0.91420851  0.32023919  0.60129577  1
  H+  H348  1  0.38292924  0.50411287  0.33694750  1
  H+  H349  1  0.93052015  0.61963383  0.92657011  1
  H+  H350  1  0.67307887  0.33796575  0.26064675  1
  H+  H351  1  0.36134885  0.68094745  0.07392990  1
  H+  H352  1  0.11936752  0.22896569  0.34148030  1
  H+  H353  1  0.09834705  0.91905949  0.72849613  1
  H+  H354  1  0.95604395  0.63023681  0.23954100  1
  H+  H355  1  0.34871280  0.92443020  0.44331461  1
  H+  H356  1  0.08962309  0.66928175  0.43192140  1
  H+  H357  1  0.91661261  0.83171754  0.56933053  1
  H+  H358  1  0.03495356  0.01416731  0.60789346  1
  H+  H359  1  0.18126972  0.10469852  0.27550121  1
  H+  H360  1  0.34684127  0.64359600  0.73922249  1
  H+  H361  1  0.08426799  0.91772397  0.39812908  1
  H+  H362  1  0.33287771  0.66180605  0.43546534  1
  H+  H363  1  0.59137180  0.39762506  0.40707079  1
  H+  H364  1  0.57263769  0.15041285  0.41095527  1
  H+  H365  1  0.19148988  0.85667377  0.27204927  1
  H+  H366  1  0.09847583  0.17806952  0.72438742  1
  H+  H367  1  0.41037539  0.57001177  0.55973197  1
  H+  H368  1  0.27649130  0.64004835  0.33972410  1
  H+  H369  1  0.34319475  0.39608405  0.40540959  1
  H+  H370  1  0.58411900  0.42442542  0.72420069  1
  H+  H371  1  0.67337965  0.58231568  0.58649763  1
  H+  H372  1  0.64153415  0.62719410  0.15616212  1
  H+  H373  1  0.69029224  0.85928310  0.86121072  1
  H+  H374  1  0.41928426  0.57809531  0.23864535  1
  H+  H375  1  0.63149363  0.49373012  0.15505536  1
  H+  H376  1  0.53698378  0.66784617  0.81178283  1
  H+  H377  1  0.17967397  0.59639137  0.23155707  1
  H+  H378  1  0.86749451  0.44775739  0.06273415  1
  H+  H379  1  0.12814064  0.85441992  0.99732669  1
  H+  H380  1  0.84976152  0.17864095  0.10978352  1
  H+  H381  1  0.08134577  0.41449410  0.73106638  1
  H+  H382  1  0.96609800  0.23490453  0.05401109  1
  H+  H383  1  0.83793716  0.90747374  0.40340931  1
  O2-  O384  1  0.08463116  0.17688455  0.14824738  1
  O2-  O385  1  0.07818112  0.15955295  0.47852918  1
  O2-  O386  1  0.11333585  0.19217011  0.80266369  1
  O2-  O387  1  0.08564722  0.42677816  0.15143903  1
  O2-  O388  1  0.07778387  0.41404041  0.47135915  1
  O2-  O389  1  0.07959305  0.41510315  0.81271378  1
  O2-  O390  1  0.10512960  0.70312234  0.18671400  1
  O2-  O391  1  0.08879326  0.66966326  0.47756065  1
  O2-  O392  1  0.05789787  0.65698119  0.81951991  1
  O2-  O393  1  0.04747556  0.93152529  0.12851619  1
  O2-  O394  1  0.08498631  0.91440366  0.47948061  1
  O2-  O395  1  0.16031773  0.95644523  0.79679430  1
  O2-  O396  1  0.20234940  0.00457969  0.14998695  1
  O2-  O397  1  0.33618653  0.18002908  0.48397663  1
  O2-  O398  1  0.34695342  0.20131039  0.80481305  1
  O2-  O399  1  0.30031804  0.46515792  0.12344888  1
  O2-  O400  1  0.35087285  0.39416702  0.48462571  1
  O2-  O401  1  0.32928026  0.43924905  0.80853745  1
  O2-  O402  1  0.34814587  0.67903613  0.15417581  1
  O2-  O403  1  0.33221747  0.65960533  0.48084802  1
  O2-  O404  1  0.36424553  0.60152469  0.81166721  1
  O2-  O405  1  0.36464505  0.94001550  0.14551230  1
  O2-  O406  1  0.35484821  0.93311437  0.48786886  1
  O2-  O407  1  0.31753621  0.88666925  0.80602815  1
  O2-  O408  1  0.60019047  0.17299775  0.14102183  1
  O2-  O409  1  0.58577080  0.16742855  0.48903437  1
  O2-  O410  1  0.58085067  0.16236880  0.80081187  1
  O2-  O411  1  0.60300552  0.42927681  0.14451651  1
  O2-  O412  1  0.60236305  0.41118638  0.46956217  1
  O2-  O413  1  0.57773407  0.42073953  0.80088709  1
  O2-  O414  1  0.59838140  0.67218746  0.13926421  1
  O2-  O415  1  0.58249363  0.66939996  0.48557536  1
  O2-  O416  1  0.59265022  0.67728518  0.79539159  1
  O2-  O417  1  0.60067094  0.92521447  0.14441017  1
  O2-  O418  1  0.58359841  0.91585832  0.47637726  1
  O2-  O419  1  0.57690758  0.92070298  0.81391572  1
  O2-  O420  1  0.83450764  0.17285831  0.15382982  1
  O2-  O421  1  0.81579842  0.16326764  0.46500086  1
  O2-  O422  1  0.83609839  0.16220440  0.82024577  1
  O2-  O423  1  0.83384001  0.42562119  0.14334323  1
  O2-  O424  1  0.83303913  0.40865426  0.49802127  1
  O2-  O425  1  0.82764727  0.40879817  0.80902118  1
  O2-  O426  1  0.84558106  0.68645703  0.13067079  1
  O2-  O427  1  0.86101444  0.67513095  0.47682730  1
  O2-  O428  1  0.81376055  0.64309573  0.80194270  1
  O2-  O429  1  0.83654820  0.91530094  0.15793397  1
  O2-  O430  1  0.84080930  0.91765323  0.47622635  1
  O2-  O431  1  0.79459287  0.88903708  0.81371852  1
  O2-  O432  1  0.19731690  0.13262042  0.20751320  1
  O2-  O433  1  0.16583970  0.08308880  0.51143745  1
  O2-  O434  1  0.20024774  0.11488838  0.83954899  1
  O2-  O435  1  0.16970390  0.34054960  0.18643642  1
  O2-  O436  1  0.15323160  0.31858448  0.50217033  1
  O2-  O437  1  0.17011742  0.34173646  0.84994085  1
  O2-  O438  1  0.17866360  0.59405432  0.18619325  1
  O2-  O439  1  0.16635996  0.58854904  0.52266956  1
  O2-  O440  1  0.14814228  0.58101777  0.85618336  1
  O2-  O441  1  0.20968233  0.87315127  0.19891525  1
  O2-  O442  1  0.14952952  0.82281291  0.51982019  1
  O2-  O443  1  0.15694775  0.82673443  0.85845019  1
  O2-  O444  1  0.37293065  0.09407563  0.19549788  1
  O2-  O445  1  0.42096426  0.09328321  0.52746435  1
  O2-  O446  1  0.42559869  0.06007791  0.85064073  1
  O2-  O447  1  0.44992518  0.26541503  0.20608795  1
  O2-  O448  1  0.40817278  0.36176816  0.50411221  1
  O2-  O449  1  0.42055562  0.35635759  0.85050803  1
  O2-  O450  1  0.42589058  0.59133179  0.19463204  1
  O2-  O451  1  0.41002437  0.56391918  0.51385824  1
  O2-  O452  1  0.44102870  0.66347887  0.84604594  1
  O2-  O453  1  0.43598409  0.84711906  0.18922729  1
  O2-  O454  1  0.42321138  0.82726884  0.52364514  1
  O2-  O455  1  0.42395622  0.82380655  0.86202615  1
  O2-  O456  1  0.66778086  0.08892093  0.18353114  1
  O2-  O457  1  0.66823903  0.08138372  0.51913175  1
  O2-  O458  1  0.67049765  0.09264929  0.84567971  1
  O2-  O459  1  0.67097747  0.32993527  0.17941816  1
  O2-  O460  1  0.66615209  0.32554357  0.53511032  1
  O2-  O461  1  0.65743247  0.33167508  0.83860196  1
  O2-  O462  1  0.67283999  0.59237581  0.17160782  1
  O2-  O463  1  0.68832204  0.58308637  0.49461144  1
  O2-  O464  1  0.65576083  0.57681792  0.84710903  1
  O2-  O465  1  0.66380090  0.82558979  0.18218152  1
  O2-  O466  1  0.67032994  0.83721571  0.51885468  1
  O2-  O467  1  0.70083199  0.85162094  0.81717878  1
  O2-  O468  1  0.92132287  0.08928994  0.19261209  1
  O2-  O469  1  0.92514751  0.08324359  0.52526015  1
  O2-  O470  1  0.86979360  0.04703303  0.86638448  1
  O2-  O471  1  0.91568108  0.34215940  0.18511117  1
  O2-  O472  1  0.91395805  0.31209762  0.52458532  1
  O2-  O473  1  0.91581092  0.33521917  0.85530453  1
  O2-  O474  1  0.93664817  0.60411364  0.13706484  1
  O2-  O475  1  0.92460777  0.57703981  0.52252561  1
  O2-  O476  1  0.88641166  0.56297592  0.84700362  1
  O2-  O477  1  0.91182905  0.83454140  0.19665252  1
  O2-  O478  1  0.92195491  0.83649435  0.52385157  1
  O2-  O479  1  0.88361537  0.80171950  0.85128076  1
  O2-  O480  1  0.17563671  0.09345339  0.32166144  1
  O2-  O481  1  0.09270299  0.04197529  0.62517829  1
  O2-  O482  1  0.12994999  0.04329173  0.97520656  1
  O2-  O483  1  0.17681550  0.33493595  0.31284718  1
  O2-  O484  1  0.15491704  0.33142520  0.62320719  1
  O2-  O485  1  0.16315717  0.32699183  0.97509029  1
  O2-  O486  1  0.17544490  0.59453056  0.31129202  1
  O2-  O487  1  0.16741983  0.58577192  0.65102866  1
  O2-  O488  1  0.13917646  0.57985277  0.98628580  1
  O2-  O489  1  0.18183899  0.84521461  0.31739423  1
  O2-  O490  1  0.15704538  0.82482707  0.63600373  1
  O2-  O491  1  0.16168121  0.82739660  0.98237015  1
  O2-  O492  1  0.41157375  0.07188789  0.33217284  1
  O2-  O493  1  0.39976473  0.07392318  0.64879870  1
  O2-  O494  1  0.40175586  0.05625946  0.97612563  1
  O2-  O495  1  0.42612469  0.31276776  0.31918135  1
  O2-  O496  1  0.42373234  0.34479040  0.62884332  1
  O2-  O497  1  0.41839446  0.35716230  0.97809053  1
  O2-  O498  1  0.40851243  0.56511829  0.32168823  1
  O2-  O499  1  0.41593302  0.58465220  0.63384545  1
  O2-  O500  1  0.43813830  0.60984272  0.96557655  1
  O2-  O501  1  0.42387133  0.83624691  0.31452417  1
  O2-  O502  1  0.41028208  0.81865317  0.64881459  1
  O2-  O503  1  0.42898220  0.84028968  0.98757149  1
  O2-  O504  1  0.65528032  0.07649459  0.31284783  1
  O2-  O505  1  0.69745676  0.05123991  0.63029372  1
  O2-  O506  1  0.59265249  0.04975427  0.95746055  1
  O2-  O507  1  0.68041092  0.34602568  0.30544976  1
  O2-  O508  1  0.67480351  0.34827276  0.65064556  1
  O2-  O509  1  0.58529566  0.29276415  0.95776460  1
  O2-  O510  1  0.62264859  0.56755081  0.28692253  1
  O2-  O511  1  0.66858414  0.58226683  0.63105949  1
  O2-  O512  1  0.64027543  0.55926553  0.97390107  1
  O2-  O513  1  0.67606274  0.83165748  0.31594441  1
  O2-  O514  1  0.66827457  0.83526218  0.64099413  1
  O2-  O515  1  0.66694272  0.85363685  0.93799776  1
  O2-  O516  1  0.92363161  0.09989315  0.31464487  1
  O2-  O517  1  0.91695330  0.07938501  0.65090058  1
  O2-  O518  1  0.90533681  0.06533293  0.99024926  1
  O2-  O519  1  0.91408896  0.34563098  0.30813048  1
  O2-  O520  1  0.91333142  0.32987583  0.64630965  1
  O2-  O521  1  0.92548524  0.34222983  0.97897496  1
  O2-  O522  1  0.94153017  0.61780144  0.28276835  1
  O2-  O523  1  0.91636538  0.57908346  0.64443491  1
  O2-  O524  1  0.92358649  0.62259325  0.97086228  1
  O2-  O525  1  0.91771477  0.83977671  0.31256050  1
  O2-  O526  1  0.90832908  0.82506443  0.64811393  1
  O2-  O527  1  0.89660091  0.80150903  0.97874373  1
  O2-  O528  1  0.07757452  0.15709914  0.02291742  1
  O2-  O529  1  0.08514781  0.16836612  0.35585611  1
  O2-  O530  1  0.08575497  0.16674085  0.68019438  1
  O2-  O531  1  0.08343934  0.40821074  0.02877161  1
  O2-  O532  1  0.08665728  0.41773615  0.30592625  1
  O2-  O533  1  0.08240248  0.41873918  0.68587769  1
  O2-  O534  1  0.06288238  0.66339764  0.02976695  1
  O2-  O535  1  0.09392698  0.67884890  0.35239116  1
  O2-  O536  1  0.07710784  0.66014785  0.69189441  1
  O2-  O537  1  0.05269403  0.88556468  0.01456321  1
  O2-  O538  1  0.08812639  0.92071346  0.35297776  1
  O2-  O539  1  0.07717489  0.90417598  0.68585464  1
  O2-  O540  1  0.28592682  0.08966624  0.02633227  1
  O2-  O541  1  0.33358645  0.15422735  0.36386025  1
  O2-  O542  1  0.34651438  0.17937021  0.68390934  1
  O2-  O543  1  0.33148509  0.44128089  0.00564756  1
  O2-  O544  1  0.34122564  0.40157778  0.36001008  1
  O2-  O545  1  0.34928872  0.43435525  0.68279024  1
  O2-  O546  1  0.36198550  0.68673898  0.02905038  1
  O2-  O547  1  0.33697574  0.66815907  0.35540975  1
  O2-  O548  1  0.33756240  0.65573073  0.69634559  1
  O2-  O549  1  0.32907786  0.90477482  0.02676545  1
  O2-  O550  1  0.34009379  0.91470268  0.36154604  1
  O2-  O551  1  0.31785767  0.90144742  0.68060129  1
  O2-  O552  1  0.56794880  0.15866601  0.02589522  1
  O2-  O553  1  0.56278489  0.14426080  0.36602828  1
  O2-  O554  1  0.56338489  0.14231894  0.67899970  1
  O2-  O555  1  0.57143989  0.41060207  0.02025696  1
  O2-  O556  1  0.58270897  0.39168635  0.35846363  1
  O2-  O557  1  0.58979420  0.42207024  0.67864323  1
  O2-  O558  1  0.59066591  0.66584111  0.02586535  1
  O2-  O559  1  0.67469952  0.65795715  0.38978441  1
  O2-  O560  1  0.58661653  0.66881167  0.67154871  1
  O2-  O561  1  0.59255241  0.92373667  0.01788557  1
  O2-  O562  1  0.59233563  0.91181703  0.35342865  1
  O2-  O563  1  0.57491070  0.90154431  0.68740309  1
  O2-  O564  1  0.90628166  0.20740168  0.04107624  1
  O2-  O565  1  0.78718648  0.21596101  0.36781628  1
  O2-  O566  1  0.84055870  0.16704957  0.69567407  1
  O2-  O567  1  0.90126274  0.46381555  0.02476410  1
  O2-  O568  1  0.85944141  0.45433813  0.32122744  1
  O2-  O569  1  0.83109328  0.41349502  0.68089270  1
  O2-  O570  1  0.85326228  0.71561307  0.00639839  1
  O2-  O571  1  0.85222202  0.67543182  0.34897589  1
  O2-  O572  1  0.82447631  0.65348695  0.68228005  1
  O2-  O573  1  0.79755590  0.88146163  0.00264224  1
  O2-  O574  1  0.83410144  0.90122792  0.35711994  1
  O2-  O575  1  0.82787942  0.91212503  0.68912675  1
