# generated using pymatgen
data_H2O
_symmetry_space_group_name_H-M   'P 1'
_cell_length_a   17.95475455
_cell_length_b   17.96103868
_cell_length_c   21.95808194
_cell_angle_alpha   89.98089310
_cell_angle_beta   89.94967648
_cell_angle_gamma   120.02127557
_symmetry_Int_Tables_number   1
_chemical_formula_structural   H2O
_chemical_formula_sum   'H384 O192'
_cell_volume   6131.15740887
_cell_formula_units_Z   192
loop_
 _symmetry_equiv_pos_site_id
 _symmetry_equiv_pos_as_xyz
  1  'x, y, z'
loop_
 _atom_type_symbol
 _atom_type_oxidation_number
  H+  1.0
  O2-  -2.0
loop_
 _atom_site_type_symbol
 _atom_site_label
 _atom_site_symmetry_multiplicity
 _atom_site_fract_x
 _atom_site_fract_y
 _atom_site_fract_z
 _atom_site_occupancy
  H+  H0  1  0.10189928  0.86488735  0.67800098  1
  H+  H1  1  -0.02527851  0.61390518  0.33031525  1
  H+  H2  1  0.72808374  0.50651673  0.56699895  1
  H+  H3  1  0.64881854  0.15816896  0.67885687  1
  H+  H4  1  0.35407530  0.73331502  0.01568230  1
  H+  H5  1  0.08154822  0.45996194  0.48644204  1
  H+  H6  1  0.11271581  0.71676099  0.68030397  1
  H+  H7  1  0.45626691  0.83943359  0.65751493  1
  H+  H8  1  0.73140457  0.10632399  1.01801883  1
  H+  H9  1  0.22945728  0.86358249  0.50975049  1
  H+  H10  1  0.00667971  0.38734022  0.14701401  1
  H+  H11  1  0.74524869  0.12593769  0.84790763  1
  H+  H12  1  0.36829324  0.89146977  0.49468855  1
  H+  H13  1  0.16870462  0.08600809  0.93862101  1
  H+  H14  1  0.74092598  0.62036070  0.68188139  1
  H+  H15  1  0.89244182  0.87250619  0.66403329  1
  H+  H16  1  0.10420404  0.63512117  0.83791344  1
  H+  H17  1  0.22425154  0.22942552  0.77653493  1
  H+  H18  1  0.52399293  0.13338824  0.01860605  1
  H+  H19  1  0.30518653  0.41896298  0.48619801  1
  H+  H20  1  0.36414459  0.51802489  0.17577571  1
  H+  H21  1  0.07919999  0.91185695  0.40436182  1
  H+  H22  1  0.09997725  0.12987845  0.15745233  1
  H+  H23  1  0.86125355  0.98613265  0.83078909  1
  H+  H24  1  0.73041168  0.86280642  0.31168383  1
  H+  H25  1  0.35183029  0.63687254  0.16754852  1
  H+  H26  1  0.02030857  0.87871129  0.34384250  1
  H+  H27  1  0.39523814  0.88468451  0.86376450  1
  H+  H28  1  0.11354925  0.73035565  0.34184700  1
  H+  H29  1  0.95723492  0.35628426  0.30643638  1
  H+  H30  1  0.11238934  0.46981203  1.00068968  1
  H+  H31  1  0.62711836  0.27814484  0.33056419  1
  H+  H32  1  0.65900144  0.57769268  0.76187786  1
  H+  H33  1  0.47799535  0.85396058  0.49823261  1
  H+  H34  1  0.65823204  0.03594408  0.85096094  1
  H+  H35  1  0.96631258  0.60964305  0.85039872  1
  H+  H36  1  0.37503071  0.60891202  0.83381128  1
  H+  H37  1  0.39252783  0.32808416  0.59629544  1
  H+  H38  1  0.59634773  0.63072270  0.35158563  1
  H+  H39  1  0.12455195  0.15675556  0.66633066  1
  H+  H40  1  0.63289984  0.77130630  0.51586510  1
  H+  H41  1  0.34902248  0.17264615  0.10345743  1
  H+  H42  1  0.63123524  0.63434162  1.01249367  1
  H+  H43  1  0.09419615  0.61852669  0.68699426  1
  H+  H44  1  0.66877990  0.83610909  0.25431264  1
  H+  H45  1  0.13854716  0.86558089  0.33369756  1
  H+  H46  1  0.36274169  0.23235516  0.67380490  1
  H+  H47  1  0.48384786  0.12713001  0.85457826  1
  H+  H48  1  0.38830758  0.12178027  1.00818219  1
  H+  H49  1  0.11458429  0.23203990  -0.00258867  1
  H+  H50  1  0.21585626  0.61126704  0.83890960  1
  H+  H51  1  0.43816659  0.34849721  0.50191178  1
  H+  H52  1  0.04530443  0.21444796  0.50881816  1
  H+  H53  1  0.93221113  0.60537704  0.57932664  1
  H+  H54  1  0.58857255  0.33745983  0.85223635  1
  H+  H55  1  0.62134927  0.26748762  0.50026491  1
  H+  H56  1  0.85224339  0.72050203  0.83837174  1
  H+  H57  1  0.88150891  1.01399072  0.29007468  1
  H+  H58  1  1.00475028  0.61226280  0.16034766  1
  H+  H59  1  0.96993459  0.11809692  0.85546821  1
  H+  H60  1  0.44374357  0.59782168  0.64115081  1
  H+  H61  1  0.13895409  0.86172670  0.51083175  1
  H+  H62  1  0.47279147  0.87454761  1.01422511  1
  H+  H63  1  0.35109976  0.64287318  0.00850713  1
  H+  H64  1  0.67721416  0.85452448  0.61031734  1
  H+  H65  1  0.86085993  -0.02406335  1.00952083  1
  H+  H66  1  0.14234179  0.32034380  0.26403572  1
  H+  H67  1  0.50563516  0.38719201  0.66781487  1
  H+  H68  1  0.72910464  0.84665791  0.51411982  1
  H+  H69  1  0.88954175  0.15553603  0.47760915  1
  H+  H70  1  0.33895455  0.33259851  0.50061634  1
  H+  H71  1  0.54740225  0.80990517  0.43690028  1
  H+  H72  1  0.99458225  0.13126175  0.65966334  1
  H+  H73  1  0.12018887  0.73309174  0.49878999  1
  H+  H74  1  0.93438234  1.00879401  0.46275660  1
  H+  H75  1  0.47751457  0.37865782  0.99760984  1
  H+  H76  1  0.12954546  0.85892810  0.85276552  1
  H+  H77  1  0.53328428  0.90803371  0.82852621  1
  H+  H78  1  0.68268799  0.67817131  0.19194903  1
  H+  H79  1  0.33058375  0.47307886  0.82938050  1
  H+  H80  1  0.86561548  0.35187281  0.51699283  1
  H+  H81  1  0.97305875  0.36960916  0.84005323  1
  H+  H82  1  0.38168367  0.23235187  0.16165295  1
  H+  H83  1  0.32498946  0.70357978  0.66120302  1
  H+  H84  1  0.14435796  0.33348417  0.58733249  1
  H+  H85  1  0.07936661  0.21706988  0.33884223  1
  H+  H86  1  0.71976040  0.13281727  0.32522169  1
  H+  H87  1  0.86132644  0.63483377  0.83466172  1
  H+  H88  1  0.34508826  0.71636684  0.79804207  1
  H+  H89  1  0.23647425  0.87975388  0.17946462  1
  H+  H90  1  0.47709824  0.11349404  0.32938806  1
  H+  H91  1  0.12277497  0.35703296  0.16902798  1
  H+  H92  1  0.14076802  0.36730079  -0.01626240  1
  H+  H93  1  0.26614282  0.88214848  0.86263219  1
  H+  H94  1  0.73996070  0.11052308  0.50604745  1
  H+  H95  1  0.36487428  0.23758763  1.00930277  1
  H+  H96  1  0.18830305  0.32622321  0.49600447  1
  H+  H97  1  0.18952512  0.57257454  0.53203045  1
  H+  H98  1  0.84408799  0.67159871  0.07756349  1
  H+  H99  1  0.13630296  0.11768449  -0.00456604  1
  H+  H100  1  0.35204643  0.48153541  0.34030426  1
  H+  H101  1  0.08685842  0.46609824  0.33071432  1
  H+  H102  1  0.36041909  0.61980968  0.49190752  1
  H+  H103  1  0.88454574  0.37143952  0.65727982  1
  H+  H104  1  0.62402104  0.89578350  0.31995082  1
  H+  H105  1  0.13195243  0.88320722  1.00538230  1
  H+  H106  1  0.24018353  0.35743796  0.33958162  1
  H+  H107  1  0.26515815  0.38228044  0.15960078  1
  H+  H108  1  0.13061652  0.07446509  0.23403984  1
  H+  H109  1  0.40282063  0.12149415  0.17042129  1
  H+  H110  1  0.86013362  0.48403985  0.66392029  1
  H+  H111  1  0.12165632  0.61006217  0.32384644  1
  H+  H112  1  0.38301099  0.10371531  0.32684274  1
  H+  H113  1  0.85294546  0.89300062  0.83209954  1
  H+  H114  1  0.65710397  0.02473911  0.16884154  1
  H+  H115  1  0.12783878  0.27122777  0.16883152  1
  H+  H116  1  0.23374105  0.48626375  0.53200936  1
  H+  H117  1  0.88394181  0.36982289  0.82890705  1
  H+  H118  1  0.10856154  0.63691220  0.50129366  1
  H+  H119  1  0.40784062  0.80262779  0.86573033  1
  H+  H120  1  0.11003368  0.01629339  0.33260508  1
  H+  H121  1  0.87094799  0.23963061  0.82572445  1
  H+  H122  1  0.34595301  0.21610228  0.49494381  1
  H+  H123  1  0.35591165  -0.02808863  0.67440801  1
  H+  H124  1  0.97752905  0.86229941  0.66484820  1
  H+  H125  1  0.23381338  0.11136026  0.84452662  1
  H+  H126  1  0.75557152  0.38240823  0.50780678  1
  H+  H127  1  0.24942550  0.38901503  0.66249396  1
  H+  H128  1  0.12915000  0.40284620  0.81481762  1
  H+  H129  1  0.09959607  0.46885904  0.15264892  1
  H+  H130  1  0.64659665  0.75744328  0.68737648  1
  H+  H131  1  0.79181886  0.63469597  0.51602762  1
  H+  H132  1  0.58192280  0.36895217  0.48796767  1
  H+  H133  1  0.60611057  0.63646804  0.82604739  1
  H+  H134  1  0.51699980  0.63749179  0.83313503  1
  H+  H135  1  0.45726979  0.62721650  0.49904682  1
  H+  H136  1  0.79450753  0.77926579  0.89015237  1
  H+  H137  1  0.12511603  0.37709616  0.64558296  1
  H+  H138  1  0.85720197  0.46989901  0.33216460  1
  H+  H139  1  0.66462330  0.35801458  0.93822511  1
  H+  H140  1  0.35541933  0.13104343  0.49844974  1
  H+  H141  1  0.11208135  -0.02847591  0.49806287  1
  H+  H142  1  0.02858932  0.87828141  0.16228775  1
  H+  H143  1  0.87184080  0.26445320  0.50961286  1
  H+  H144  1  0.40101518  0.77972537  0.31793000  1
  H+  H145  1  0.37350719  0.77011205  0.16859585  1
  H+  H146  1  0.92603958  0.82180743  0.26743671  1
  H+  H147  1  0.98945356  0.13422152  0.15191979  1
  H+  H148  1  0.63566995  0.28599185  0.65383476  1
  H+  H149  1  0.37561563  0.53173301  0.99295382  1
  H+  H150  1  0.76663125  0.63181175  0.35609556  1
  H+  H151  1  0.89697611  0.87581184  0.50853645  1
  H+  H152  1  0.88698930  0.73032123  0.16872367  1
  H+  H153  1  0.88357392  0.60982932  0.33144404  1
  H+  H154  1  0.63371139  0.24414826  0.16093349  1
  H+  H155  1  0.48819587  0.87072462  0.31463617  1
  H+  H156  1  0.61510498  0.13527725  0.49784659  1
  H+  H157  1  0.13172164  0.20093731  0.75314915  1
  H+  H158  1  0.55773766  0.63058119  0.59425614  1
  H+  H159  1  0.58648330  0.71257923  0.33711344  1
  H+  H160  1  0.38963480  0.36865318  0.16919656  1
  H+  H161  1  0.32845580  0.61723684  0.65824842  1
  H+  H162  1  0.83437944  0.17893900  0.43013970  1
  H+  H163  1  0.10997566  0.35142985  0.32161734  1
  H+  H164  1  0.64274898  0.03320503  0.31845733  1
  H+  H165  1  0.12558218  0.76697532  0.85549619  1
  H+  H166  1  0.35701690  0.98598646  0.01353804  1
  H+  H167  1  0.65711989  0.63128716  0.67801382  1
  H+  H168  1  0.02693786  0.89551499  0.83399327  1
  H+  H169  1  0.59887174  0.46682448  0.81839351  1
  H+  H170  1  0.63412907  0.78016255  0.83880414  1
  H+  H171  1  0.84745486  0.46460563  0.49535303  1
  H+  H172  1  0.88562490  0.59841503  0.17658467  1
  H+  H173  1  0.50449594  0.38708131  0.33504285  1
  H+  H174  1  0.60632224  0.13743680  0.33781287  1
  H+  H175  1  0.90226352  0.63832328  0.51401937  1
  H+  H176  1  0.83941436  0.97469607  0.47890102  1
  H+  H177  1  0.44467045  0.57315634  0.33940097  1
  H+  H178  1  0.86973521  0.60398613  1.00079645  1
  H+  H179  1  0.11782933  0.98052734  0.83287368  1
  H+  H180  1  0.38790974  0.02447682  0.50976504  1
  H+  H181  1  0.21530082  0.61620869  -0.00106094  1
  H+  H182  1  0.21398460  0.10845112  0.50356519  1
  H+  H183  1  0.87347324  0.32354553  0.99350211  1
  H+  H184  1  0.88018215  0.15236156  0.66882045  1
  H+  H185  1  0.77873195  0.36900280  -0.01942363  1
  H+  H186  1  0.60035934  0.56634367  0.50138254  1
  H+  H187  1  0.99594988  0.63432541  0.51261048  1
  H+  H188  1  0.89436988  0.62844390  0.66242492  1
  H+  H189  1  0.10736744  0.34602812  0.49588169  1
  H+  H190  1  0.12516158  0.89560537  0.16117181  1
  H+  H191  1  0.64045546  0.11365647  0.16834229  1
  H+  H192  1  0.08014571  0.40451906  0.05559597  1
  H+  H193  1  0.22738668  0.87843026  0.00337090  1
  H+  H194  1  0.79417881  0.64943595  0.17367022  1
  H+  H195  1  0.34651189  0.60299054  0.32561412  1
  H+  H196  1  0.62710338  0.36623726  0.32767544  1
  H+  H197  1  0.63254133  0.54895046  1.03138915  1
  H+  H198  1  0.63633772  0.59387807  0.47922671  1
  H+  H199  1  0.76882914  0.39814369  0.66037635  1
  H+  H200  1  0.62150804  0.52593715  0.33592306  1
  H+  H201  1  0.77582033  0.89511442  0.08977999  1
  H+  H202  1  0.62355916  0.42461023  0.00556050  1
  H+  H203  1  0.68260801  0.76420140  0.12549079  1
  H+  H204  1  0.38435783  0.77584985  0.49255913  1
  H+  H205  1  0.21659354  0.60989741  0.17014812  1
  H+  H206  1  0.61566749  0.13489188  0.01666155  1
  H+  H207  1  0.22280532  0.85307451  0.66687915  1
  H+  H208  1  0.88590377  0.12434301  0.84409516  1
  H+  H209  1  0.12893641  0.52272280  0.84178206  1
  H+  H210  1  0.11909579  0.09856835  0.50138609  1
  H+  H211  1  0.36781943  0.36245516  0.65589494  1
  H+  H212  1  0.87076261  0.73734700  0.67829457  1
  H+  H213  1  0.27624230  0.14704005  0.01023567  1
  H+  H214  1  0.36812156  0.36783744  0.84229717  1
  H+  H215  1  -0.01123477  0.59965289  0.01188749  1
  H+  H216  1  0.26698039  0.65749807  0.45198091  1
  H+  H217  1  0.61741181  0.86924273  0.48230949  1
  H+  H218  1  0.77531198  0.65119902  1.02615726  1
  H+  H219  1  0.63182927  0.90483177  0.67890583  1
  H+  H220  1  0.73497886  0.34372687  0.16789945  1
  H+  H221  1  0.08547264  0.60926630  0.00886884  1
  H+  H222  1  0.84322109  0.50532948  0.99559788  1
  H+  H223  1  0.46033207  0.62504449  0.98776335  1
  H+  H224  1  0.22827723  0.86541036  0.33329188  1
  H+  H225  1  0.20371641  0.59743225  0.31890379  1
  H+  H226  1  0.37093552  0.26413844  0.31998244  1
  H+  H227  1  0.64902947  0.02585367  0.50940924  1
  H+  H228  1  0.36706078  0.88867213  0.34005985  1
  H+  H229  1  0.19391628  0.10694623  0.32932620  1
  H+  H230  1  0.38668567  0.11990511  0.66410108  1
  H+  H231  1  0.84313352  0.25123240  0.33534286  1
  H+  H232  1  0.22802196  0.12706900  0.65913224  1
  H+  H233  1  0.54175401  0.58799172  0.61007269  1
  H+  H234  1  0.98056399  0.62079999  0.66546167  1
  H+  H235  1  0.59912927  0.74676242  -0.00375062  1
  H+  H236  1  0.52226766  0.12965686  0.49775539  1
  H+  H237  1  0.56962976  0.69167306  0.05679823  1
  H+  H238  1  0.15308558  0.12085797  0.83846984  1
  H+  H239  1  0.28868816  0.37025310  0.40554585  1
  H+  H240  1  0.35730724  0.23557625  0.83056104  1
  H+  H241  1  0.62455103  0.13386412  0.84056869  1
  H+  H242  1  0.35522746  0.88361387  0.67057828  1
  H+  H243  1  0.88694593  0.76545061  0.33024713  1
  H+  H244  1  0.72383487  0.87152778  0.83279157  1
  H+  H245  1  0.86502629  0.87900284  0.32460749  1
  H+  H246  1  0.18926238  0.31094708  0.82213254  1
  H+  H247  1  0.32685299  0.65796428  0.27927883  1
  H+  H248  1  0.27314909  0.39582634  0.00392826  1
  H+  H249  1  0.88888630  0.77460727  1.00912511  1
  H+  H250  1  0.86800903  0.73483219  0.50577887  1
  H+  H251  1  0.68767093  0.24080456  0.71937428  1
  H+  H252  1  0.77832244  0.04864934  0.07470568  1
  H+  H253  1  0.35421223  0.50973787  0.64683623  1
  H+  H254  1  0.57921773  0.16173658  0.40160952  1
  H+  H255  1  0.84535851  0.93824505  0.73216969  1
  H+  H256  1  1.02210662  0.41450462  0.66585631  1
  H+  H257  1  0.74586486  0.89606076  0.66574584  1
  H+  H258  1  0.60975574  0.26030275  0.85642888  1
  H+  H259  1  -0.00495333  0.37179483  0.48648584  1
  H+  H260  1  0.24200111  0.50225328  0.56411452  1
  H+  H261  1  0.07975956  0.12805299  0.33883901  1
  H+  H262  1  0.60760645  0.89536042  0.00862945  1
  H+  H263  1  0.36424880  0.40096226  0.00845181  1
  H+  H264  1  0.34263506  -0.03845774  0.82963934  1
  H+  H265  1  0.62033606  0.45771370  0.16939692  1
  H+  H266  1  0.97623106  0.86691220  1.00267254  1
  H+  H267  1  0.72311209  0.87338005  -0.01187140  1
  H+  H268  1  0.95889189  0.10817108  0.30252014  1
  H+  H269  1  0.74561247  0.12069901  0.66262642  1
  H+  H270  1  0.67751129  0.92507044  0.14577874  1
  H+  H271  1  0.85629794  0.47383589  0.82354497  1
  H+  H272  1  0.58437015  0.45703795  0.49481208  1
  H+  H273  1  0.11771933  1.01898437  0.17377137  1
  H+  H274  1  0.61195516  0.98557318  0.01510929  1
  H+  H275  1  0.11638566  0.98488155  0.01196324  1
  H+  H276  1  0.09900601  0.61712270  0.15408516  1
  H+  H277  1  0.57333375  0.63811979  0.49227091  1
  H+  H278  1  0.93840334  0.92604009  0.16628826  1
  H+  H279  1  0.30479184  0.42110348  0.72458604  1
  H+  H280  1  0.26234066  0.05135594  0.36840166  1
  H+  H281  1  0.02468406  0.88213485  0.50064323  1
  H+  H282  1  0.87731620  0.09780710  1.01556747  1
  H+  H283  1  0.62131640  0.36692476  0.65415891  1
  H+  H284  1  0.72229529  0.60820665  0.81656264  1
  H+  H285  1  0.89866067  0.57198782  0.90585308  1
  H+  H286  1  0.87990762  -0.00313830  0.67103494  1
  H+  H287  1  0.53013341  0.13449382  0.16352245  1
  H+  H288  1  0.45914471  0.37015961  0.83921496  1
  H+  H289  1  0.32658997  0.66919566  0.10541696  1
  H+  H290  1  0.42650768  0.08653362  0.23148070  1
  H+  H291  1  0.07810330  0.90315967  0.73524727  1
  H+  H292  1  0.58595249  0.16006166  0.09701098  1
  H+  H293  1  0.38484156  0.58282803  0.55896378  1
  H+  H294  1  0.76480950  0.38430495  0.32997889  1
  H+  H295  1  0.08529424  0.17073062  0.09340814  1
  H+  H296  1  0.64335683  0.34867680  0.16448222  1
  H+  H297  1  0.30982952  0.13489672  0.40750694  1
  H+  H298  1  0.32597979  0.41886816  0.10086775  1
  H+  H299  1  0.15004444  0.57499719  0.22657751  1
  H+  H300  1  0.70334175  0.54257752  0.91155565  1
  H+  H301  1  0.79122809  0.88790346  0.15903765  1
  H+  H302  1  0.08372186  0.66927214  0.40072823  1
  H+  H303  1  0.39845895  0.58170976  0.89740404  1
  H+  H304  1  0.38672183  0.56299058  0.23981049  1
  H+  H305  1  0.88541766  0.82295585  0.91966549  1
  H+  H306  1  0.41473622  0.34638160  0.93923942  1
  H+  H307  1  0.35611091  0.34399105  0.32830090  1
  H+  H308  1  0.88798430  0.33977545  0.21448553  1
  H+  H309  1  0.07410861  0.66657763  0.78013197  1
  H+  H310  1  0.33762545  0.17438584  0.73453982  1
  H+  H311  1  0.58188275  0.42013383  0.07062628  1
  H+  H312  1  0.85611172  0.14360961  0.10331099  1
  H+  H313  1  0.11555451  0.54730584  0.57769660  1
  H+  H314  1  0.02356349  0.14320787  0.00482445  1
  H+  H315  1  1.03174938  0.13295641  0.42528561  1
  H+  H316  1  0.42263566  0.85354810  0.95260330  1
  H+  H317  1  0.33522232  0.67185185  0.40341570  1
  H+  H318  1  0.47280631  0.11561479  0.66581095  1
  H+  H319  1  0.84969924  0.67849532  0.73932098  1
  H+  H320  1  0.83261047  0.42264896  0.76059814  1
  H+  H321  1  0.38069964  -0.01207125  0.16240465  1
  H+  H322  1  0.84580992  0.92734929  0.37723054  1
  H+  H323  1  0.41756939  0.08542729  0.56876588  1
  H+  H324  1  0.11538578  0.24325505  0.66613103  1
  H+  H325  1  0.75936071  0.72454193  0.23843457  1
  H+  H326  1  0.37392733  0.15715117  0.83438091  1
  H+  H327  1  0.83461751  0.66363305  0.41003221  1
  H+  H328  1  0.84412020  0.17632899  0.76749514  1
  H+  H329  1  0.67371247  0.09018890  0.23260432  1
  H+  H330  1  0.66993479  0.60825814  0.28945261  1
  H+  H331  1  0.60870639  0.93277132  0.10455882  1
  H+  H332  1  0.73936058  0.56981218  0.93292221  1
  H+  H333  1  0.59768283  0.47319209  0.67853308  1
  H+  H334  1  0.18490317  0.34936547  0.92519180  1
  H+  H335  1  0.33704218  0.92037380  0.43606417  1
  H+  H336  1  0.85578828  0.88377015  0.01308308  1
  H+  H337  1  0.86913832  0.33249913  0.92241404  1
  H+  H338  1  0.37952833  0.87373792  0.16577412  1
  H+  H339  1  0.64223794  0.32953508  0.55795771  1
  H+  H340  1  0.30488846  0.64233653  0.75122692  1
  H+  H341  1  0.60460152  0.69293349  0.74360008  1
  H+  H342  1  0.62976996  -0.00297725  0.67827101  1
  H+  H343  1  0.17337369  0.84740035  0.23634451  1
  H+  H344  1  0.59346870  0.92017563  0.38069270  1
  H+  H345  1  0.08768335  0.92228700  0.07302312  1
  H+  H346  1  0.05270754  0.40386108  0.38871265  1
  H+  H347  1  0.87127081  0.36384917  0.30806721  1
  H+  H348  1  0.68817437  0.09500428  0.95125032  1
  H+  H349  1  0.33848982  0.92605614  0.10270171  1
  H+  H350  1  0.77587842  0.24536975  0.38246028  1
  H+  H351  1  0.36927868  0.97839029  0.33964429  1
  H+  H352  1  0.59211504  0.15774898  0.77941441  1
  H+  H353  1  0.55568229  0.67235938  0.43119590  1
  H+  H354  1  0.49010118  0.20394123  0.88756120  1
  H+  H355  1  0.55851877  0.39802561  0.76656087  1
  H+  H356  1  0.91659680  0.84250705  0.57229493  1
  H+  H357  1  0.94525971  0.10700501  0.59661941  1
  H+  H358  1  0.66440770  0.85054014  0.92796700  1
  H+  H359  1  0.68113493  0.08721747  0.60485271  1
  H+  H360  1  0.16458718  0.82035010  0.60694774  1
  H+  H361  1  0.41329481  0.33850997  0.23075438  1
  H+  H362  1  0.66403654  0.67276043  0.09852253  1
  H+  H363  1  0.91647770  0.57400659  0.23757722  1
  H+  H364  1  0.52577667  0.37833816  0.16606237  1
  H+  H365  1  0.91562237  0.33727355  0.60096832  1
  H+  H366  1  0.55875996  0.41234853  0.39616330  1
  H+  H367  1  0.40819876  0.82082892  0.59421680  1
  H+  H368  1  0.16573208  0.09556348  0.60098297  1
  H+  H369  1  0.05424432  0.63369451  0.08559548  1
  H+  H370  1  0.59313311  0.93288922  0.74339095  1
  H+  H371  1  0.35582431  0.89514133  1.01387326  1
  H+  H372  1  0.42329840  0.09827040  0.94996803  1
  H+  H373  1  0.41417661  0.83777177  0.22766732  1
  H+  H374  1  0.61600490  0.89467196  0.82400284  1
  H+  H375  1  0.87658778  0.45560305  0.17257265  1
  H+  H376  1  0.16001984  0.58430387  0.93733860  1
  H+  H377  1  0.18076399  0.56515873  0.66551081  1
  H+  H378  1  0.91475685  0.09478153  0.21170012  1
  H+  H379  1  0.15813932  0.83764502  0.94399949  1
  H+  H380  1  0.90553493  0.08583574  0.94698546  1
  H+  H381  1  0.87377319  0.23866117  0.67196502  1
  H+  H382  1  0.69592946  0.56448917  0.59728243  1
  H+  H383  1  0.08736734  0.43105233  0.76247902  1
  O2-  O384  1  0.07689639  0.16747223  0.13879175  1
  O2-  O385  1  -0.00946601  0.15485865  0.50503148  1
  O2-  O386  1  0.16753429  0.21502248  0.79198134  1
  O2-  O387  1  0.06803600  0.40828389  0.13817870  1
  O2-  O388  1  0.05426980  0.40224823  0.46790652  1
  O2-  O389  1  0.08878131  0.42419138  0.80709891  1
  O2-  O390  1  0.06251527  0.64126497  0.13791216  1
  O2-  O391  1  0.08406596  0.67126900  0.48392499  1
  O2-  O392  1  0.07441656  0.66744318  0.82551058  1
  O2-  O393  1  0.08723064  0.91760498  0.14361930  1
  O2-  O394  1  0.08432800  0.91011170  0.48392436  1
  O2-  O395  1  0.08626771  0.91793187  0.82087109  1
  O2-  O396  1  0.35941594  0.17241611  0.14782990  1
  O2-  O397  1  0.32002321  0.15431383  0.48070747  1
  O2-  O398  1  0.33498776  0.17546529  0.81516559  1
  O2-  O399  1  0.32659861  0.41444154  0.14626959  1
  O2-  O400  1  0.27769717  0.35921028  0.47312636  1
  O2-  O401  1  0.29935578  0.41326945  0.81069727  1
  O2-  O402  1  0.32642860  0.67265277  0.15127813  1
  O2-  O403  1  0.32768992  0.67411432  0.44809647  1
  O2-  O404  1  0.31567600  0.65384618  0.79618803  1
  O2-  O405  1  0.34777692  0.92560604  0.14805940  1
  O2-  O406  1  0.33578633  0.92003842  0.48173298  1
  O2-  O407  1  0.33011519  0.91996255  0.86211046  1
  O2-  O408  1  0.59123718  0.16240538  0.14664188  1
  O2-  O409  1  0.58238918  0.16109339  0.48062864  1
  O2-  O410  1  0.58609499  0.15462542  0.82402842  1
  O2-  O411  1  0.58693956  0.40085390  0.15114640  1
  O2-  O412  1  0.55093044  0.40038787  0.47574242  1
  O2-  O413  1  0.56014280  0.40379846  0.81178868  1
  O2-  O414  1  0.64527489  0.70069777  0.12938954  1
  O2-  O415  1  0.55102889  0.67567817  0.47804004  1
  O2-  O416  1  0.57907184  0.67315750  0.82253076  1
  O2-  O417  1  0.63263094  0.94208314  0.14709056  1
  O2-  O418  1  0.57093408  0.86658912  0.45583704  1
  O2-  O419  1  0.59098702  0.93093005  0.80860995  1
  O2-  O420  1  0.89996968  0.17488408  0.15053448  1
  O2-  O421  1  0.83969537  0.16459540  0.47341652  1
  O2-  O422  1  0.84318597  0.17687544  0.81282951  1
  O2-  O423  1  0.84089432  0.39431974  0.15939085  1
  O2-  O424  1  0.81811504  0.41039253  0.51745328  1
  O2-  O425  1  0.83307951  0.41587998  0.80521306  1
  O2-  O426  1  0.84992927  0.66738475  0.15366439  1
  O2-  O427  1  0.84610047  0.67327366  0.49316909  1
  O2-  O428  1  0.83404035  0.66668970  0.81530314  1
  O2-  O429  1  0.88929091  0.87028069  0.17731257  1
  O2-  O430  1  0.87634058  0.95438172  0.46211811  1
  O2-  O431  1  0.83169206  0.92785325  0.81126801  1
  O2-  O432  1  0.13369496  0.07727535  0.18908731  1
  O2-  O433  1  0.15372152  0.07565490  0.51968400  1
  O2-  O434  1  0.17191644  0.08308604  0.85768899  1
  O2-  O435  1  0.15584157  0.33063222  0.18595627  1
  O2-  O436  1  0.12747578  0.30916594  0.51535569  1
  O2-  O437  1  0.21162055  0.37145712  0.83812258  1
  O2-  O438  1  0.15431465  0.57573279  0.18115885  1
  O2-  O439  1  0.13043258  0.56126767  0.53352750  1
  O2-  O440  1  0.15811727  0.58290104  0.85807600  1
  O2-  O441  1  0.17549871  0.85217630  0.19136747  1
  O2-  O442  1  0.16900901  0.83026433  0.52505104  1
  O2-  O443  1  0.15587465  0.82734862  0.87246898  1
  O2-  O444  1  0.43107603  0.08712898  0.18611660  1
  O2-  O445  1  0.41914970  0.08591036  0.52329125  1
  O2-  O446  1  0.44616129  0.14311832  0.87767440  1
  O2-  O447  1  0.42360101  0.34286716  0.18596972  1
  O2-  O448  1  0.38023654  0.31362467  0.52017946  1
  O2-  O449  1  0.39970969  0.33945351  0.85724834  1
  O2-  O450  1  0.38365571  0.57447236  0.19635133  1
  O2-  O451  1  0.39306746  0.59401967  0.51203239  1
  O2-  O452  1  0.40118017  0.57672877  0.85174433  1
  O2-  O453  1  0.40630925  0.83404058  0.18190452  1
  O2-  O454  1  0.41898565  0.83028905  0.51486901  1
  O2-  O455  1  0.43886789  0.86477472  0.87115157  1
  O2-  O456  1  0.67554056  0.08809402  0.18591227  1
  O2-  O457  1  0.68107901  0.08447868  0.52495590  1
  O2-  O458  1  0.68716700  0.09471752  0.86790207  1
  O2-  O459  1  0.67080898  0.31353096  0.17537587  1
  O2-  O460  1  0.64317486  0.32860756  0.51241237  1
  O2-  O461  1  0.59512635  0.29775171  0.88072729  1
  O2-  O462  1  0.71563908  0.66732511  0.22481721  1
  O2-  O463  1  0.71184944  0.54953685  0.55755452  1
  O2-  O464  1  0.65932008  0.57858732  0.80687133  1
  O2-  O465  1  0.74553205  0.87910862  0.13040004  1
  O2-  O466  1  0.67186495  0.83200875  0.52859435  1
  O2-  O467  1  0.66340797  0.84314979  0.84869266  1
  O2-  O468  1  0.92151726  0.10672962  0.16354170  1
  O2-  O469  1  1.02265565  0.10715502  0.46848317  1
  O2-  O470  1  0.90810948  0.08751924  0.86298715  1
  O2-  O471  1  0.89250608  0.35278953  0.16940441  1
  O2-  O472  1  0.90182387  0.32445772  0.52525217  1
  O2-  O473  1  0.91090556  0.33760922  0.84908210  1
  O2-  O474  1  0.91405246  0.56623144  0.19208512  1
  O2-  O475  1  0.93416805  0.60732346  0.53059802  1
  O2-  O476  1  0.90374735  0.57850039  0.86044433  1
  O2-  O477  1  0.93418146  0.82263966  0.19644884  1
  O2-  O478  1  0.91735442  0.83861183  0.52631795  1
  O2-  O479  1  0.85518896  0.80955474  0.87863184  1
  O2-  O480  1  0.13288876  0.07655128  0.31716363  1
  O2-  O481  1  0.16850221  0.10704221  0.64525980  1
  O2-  O482  1  0.16732743  0.08607142  0.98400681  1
  O2-  O483  1  0.13763040  0.31710869  0.30964541  1
  O2-  O484  1  0.15272609  0.34373830  0.63310584  1
  O2-  O485  1  0.17493010  0.33880271  0.96928695  1
  O2-  O486  1  0.14365132  0.57325058  0.30544432  1
  O2-  O487  1  0.11789136  0.53539414  0.65535827  1
  O2-  O488  1  0.15570359  0.58145807  0.98265709  1
  O2-  O489  1  0.16773896  0.83403982  0.31859771  1
  O2-  O490  1  0.16185519  0.81536175  0.65210482  1
  O2-  O491  1  0.16406637  0.84868737  0.99007152  1
  O2-  O492  1  0.41778741  0.07904323  0.31093178  1
  O2-  O493  1  0.41518203  0.08731407  0.64832288  1
  O2-  O494  1  0.41598394  0.08754320  0.99483713  1
  O2-  O495  1  0.39593829  0.32489891  0.30986937  1
  O2-  O496  1  0.40051043  0.33468235  0.64193924  1
  O2-  O497  1  0.41595196  0.34587442  0.98447174  1
  O2-  O498  1  0.38443277  0.54405100  0.32542544  1
  O2-  O499  1  0.38396839  0.57034042  0.62724312  1
  O2-  O500  1  0.39891914  0.59062543  0.97445191  1
  O2-  O501  1  0.42543815  0.83897258  0.30285160  1
  O2-  O502  1  0.39899624  0.81322150  0.63917008  1
  O2-  O503  1  0.41269078  0.84575910  0.99717105  1
  O2-  O504  1  0.66464917  0.09306959  0.30329301  1
  O2-  O505  1  0.68230438  0.08914594  0.65040391  1
  O2-  O506  1  0.67584587  0.08849567  0.99561592  1
  O2-  O507  1  0.65916455  0.33754640  0.31475139  1
  O2-  O508  1  0.65633914  0.34332101  0.63542259  1
  O2-  O509  1  0.69618217  0.41149147  0.96353690  1
  O2-  O510  1  0.65523317  0.59072052  0.33304252  1
  O2-  O511  1  0.67688809  0.58780627  0.67421508  1
  O2-  O512  1  0.66606395  0.61334186  1.03348808  1
  O2-  O513  1  0.66794401  0.83565132  0.29876080  1
  O2-  O514  1  0.68191537  0.86545212  0.65480613  1
  O2-  O515  1  0.66241283  0.84917528  0.97336819  1
  O2-  O516  1  0.90781679  0.07430874  0.27579094  1
  O2-  O517  1  0.93475648  0.10073652  0.64084373  1
  O2-  O518  1  0.91522977  0.08074794  0.99072117  1
  O2-  O519  1  0.89707934  0.32839860  0.29046005  1
  O2-  O520  1  0.92061377  0.34509202  0.64650978  1
  O2-  O521  1  0.83640992  0.32321344  0.96098253  1
  O2-  O522  1  0.91509633  0.58238996  0.31380788  1
  O2-  O523  1  0.92303497  0.59731566  0.64399205  1
  O2-  O524  1  0.88957871  0.56476712  0.98461037  1
  O2-  O525  1  0.91915282  0.82509028  0.31395462  1
  O2-  O526  1  0.91611339  0.83685065  0.64807054  1
  O2-  O527  1  0.91427324  0.83457460  0.99139877  1
  O2-  O528  1  0.08611406  0.17338991  0.01606688  1
  O2-  O529  1  0.04569094  0.15528787  0.35276923  1
  O2-  O530  1  0.09227031  0.18538937  0.68523929  1
  O2-  O531  1  0.08727177  0.40796196  0.01070843  1
  O2-  O532  1  0.05592351  0.40455795  0.34326350  1
  O2-  O533  1  0.08544382  0.44699086  0.67900753  1
  O2-  O534  1  0.04924118  0.63120623  0.02812540  1
  O2-  O535  1  0.08231351  0.66846627  0.35558867  1
  O2-  O536  1  0.07364556  0.65812664  0.69901748  1
  O2-  O537  1  0.08744282  0.92301879  0.02593253  1
  O2-  O538  1  0.08114914  0.91486960  0.35881811  1
  O2-  O539  1  0.06974994  0.89384285  0.69102373  1
  O2-  O540  1  0.33730424  0.17683462  0.02394944  1
  O2-  O541  1  0.29745317  0.11368561  0.36373457  1
  O2-  O542  1  0.33720958  0.17204328  0.68911861  1
  O2-  O543  1  0.33218608  0.43034413  0.02199560  1
  O2-  O544  1  0.29875285  0.38226183  0.35821434  1
  O2-  O545  1  0.30990069  0.42096060  0.67959671  1
  O2-  O546  1  0.32191971  0.67182294  0.02853424  1
  O2-  O547  1  0.32626699  0.64805371  0.32323409  1
  O2-  O548  1  0.29443599  0.64245680  0.67515339  1
  O2-  O549  1  0.32298874  0.92393786  0.02782553  1
  O2-  O550  1  0.33821096  0.91853271  0.35740150  1
  O2-  O551  1  0.32567184  0.91176424  0.68908261  1
  O2-  O552  1  0.58404556  0.16238217  0.03447649  1
  O2-  O553  1  0.57563336  0.16510556  0.35638827  1
  O2-  O554  1  0.63407317  0.19873230  0.69976315  1
  O2-  O555  1  0.58201578  0.43730606  0.02768963  1
  O2-  O556  1  0.56435473  0.41971960  0.35104458  1
  O2-  O557  1  0.56456411  0.41024441  0.68570986  1
  O2-  O558  1  0.56419994  0.68636493  0.01217556  1
  O2-  O559  1  0.56015298  0.65903621  0.36123664  1
  O2-  O560  1  0.62134984  0.69693743  0.70009449  1
  O2-  O561  1  0.57975536  0.92412851  0.03015801  1
  O2-  O562  1  0.59291826  0.92551481  0.33591405  1
  O2-  O563  1  0.59753920  0.93440170  0.69450960  1
  O2-  O564  1  0.81231514  0.10715899  0.05915043  1
  O2-  O565  1  0.79931742  0.21022100  0.36695459  1
  O2-  O566  1  0.84522386  0.17700303  0.68551313  1
  O2-  O567  1  0.75459233  0.40035593  0.00468321  1
  O2-  O568  1  0.82687537  0.40736113  0.34094936  1
  O2-  O569  1  0.82820626  0.42276877  0.67659043  1
  O2-  O570  1  0.83818104  0.67359849  0.03203298  1
  O2-  O571  1  0.82927998  0.66018178  0.36504443  1
  O2-  O572  1  0.84616669  0.67650595  0.69357410  1
  O2-  O573  1  0.82218985  0.91345310  0.02062071  1
  O2-  O574  1  0.83409405  0.91169278  0.33372419  1
  O2-  O575  1  0.84426308  0.93664234  0.68664919  1
