# generated using pymatgen
data_H2O
_symmetry_space_group_name_H-M   'P 1'
_cell_length_a   17.98978595
_cell_length_b   17.98223820
_cell_length_c   21.99791001
_cell_angle_alpha   90.03704193
_cell_angle_beta   89.98744348
_cell_angle_gamma   119.99433506
_symmetry_Int_Tables_number   1
_chemical_formula_structural   H2O
_chemical_formula_sum   'H384 O192'
_cell_volume   6163.20324042
_cell_formula_units_Z   192
loop_
 _symmetry_equiv_pos_site_id
 _symmetry_equiv_pos_as_xyz
  1  'x, y, z'
loop_
 _atom_type_symbol
 _atom_type_oxidation_number
  H+  1.0
  O2-  -2.0
loop_
 _atom_site_type_symbol
 _atom_site_label
 _atom_site_symmetry_multiplicity
 _atom_site_fract_x
 _atom_site_fract_y
 _atom_site_fract_z
 _atom_site_occupancy
  H+  H0  1  0.60844016  0.22088646  1.00163282  1
  H+  H1  1  0.77208434  0.39425157  0.67175624  1
  H+  H2  1  0.38330347  0.51537134  0.33154755  1
  H+  H3  1  0.78420542  0.86383587  0.51554536  1
  H+  H4  1  0.60267564  0.14322502  0.52545119  1
  H+  H5  1  0.98616111  0.86686313  0.83914055  1
  H+  H6  1  0.60778979  0.13112129  1.00319854  1
  H+  H7  1  0.10548436  -0.04492159  0.50122508  1
  H+  H8  1  0.87924731  0.72516561  0.83329704  1
  H+  H9  1  0.64434266  0.01205409  0.33375952  1
  H+  H10  1  0.38547849  0.11747858  0.16495756  1
  H+  H11  1  0.16965400  0.82408378  0.57678002  1
  H+  H12  1  -0.03838290  0.63344949  0.66534481  1
  H+  H13  1  0.63709425  0.60482953  -0.01069671  1
  H+  H14  1  0.71929239  0.11450253  -0.00396287  1
  H+  H15  1  0.52784462  0.38519830  0.15572604  1
  H+  H16  1  0.73811623  0.89230747  0.67559118  1
  H+  H17  1  0.97658083  0.36951296  0.98185504  1
  H+  H18  1  0.24475707  0.63719623  0.21701457  1
  H+  H19  1  0.48378063  0.11500640  0.83531638  1
  H+  H20  1  0.60543865  0.70722708  0.01145993  1
  H+  H21  1  0.27989513  0.38536719  0.49335684  1
  H+  H22  1  0.88153086  0.53031413  0.32565417  1
  H+  H23  1  1.02549259  0.12601796  0.50218588  1
  H+  H24  1  0.38577357  0.60048523  0.98434927  1
  H+  H25  1  0.63582200  0.85690478  0.33631764  1
  H+  H26  1  0.74013001  0.36194884  0.83841387  1
  H+  H27  1  0.63046281  0.29310467  0.66877661  1
  H+  H28  1  0.11626615  0.37469087  0.34836582  1
  H+  H29  1  0.74823952  0.92544636  0.78939053  1
  H+  H30  1  0.88610434  0.89731385  0.82525556  1
  H+  H31  1  0.52286843  0.64474565  0.17632347  1
  H+  H32  1  0.86119061  0.62774244  0.15871334  1
  H+  H33  1  0.16493741  0.58335283  0.87476174  1
  H+  H34  1  0.13956593  0.26342845  0.99727069  1
  H+  H35  1  0.63873060  0.35971941  0.99118287  1
  H+  H36  1  0.39138724  0.35573392  0.98398648  1
  H+  H37  1  0.22103012  0.85276746  0.66284602  1
  H+  H38  1  0.86876936  0.49665296  0.48542934  1
  H+  H39  1  0.92300404  0.83402171  0.89717978  1
  H+  H40  1  0.64139873  0.29001022  0.52725232  1
  H+  H41  1  0.37935019  0.78749773  0.83745677  1
  H+  H42  1  0.85038604  0.95260591  0.02319885  1
  H+  H43  1  0.15267044  0.36629835  0.84599147  1
  H+  H44  1  0.52112063  0.61707082  1.00774739  1
  H+  H45  1  0.04984779  0.41946204  0.48862920  1
  H+  H46  1  0.31617725  0.64300487  0.40335078  1
  H+  H47  1  0.88662961  0.51669533  0.99649442  1
  H+  H48  1  0.24883190  0.90293170  0.14675156  1
  H+  H49  1  -0.02270290  0.11000798  0.17441077  1
  H+  H50  1  0.38346901  0.85938146  0.99762470  1
  H+  H51  1  0.38801073  0.86680533  0.66597296  1
  H+  H52  1  0.52584660  0.28812895  0.38847885  1
  H+  H53  1  0.36625535  0.89507579  0.83037744  1
  H+  H54  1  0.51384569  0.62790828  0.49741869  1
  H+  H55  1  0.38022080  0.13636921  1.00225488  1
  H+  H56  1  0.86697075  0.14000663  0.81508035  1
  H+  H57  1  0.99166379  0.36429920  0.82682670  1
  H+  H58  1  -0.01142946  0.80966244  0.51517736  1
  H+  H59  1  0.55223611  0.56434458  0.65659606  1
  H+  H60  1  0.27540133  0.38121308  0.34566728  1
  H+  H61  1  0.47140668  0.10915188  0.15995051  1
  H+  H62  1  0.86198392  0.22480140  0.81921275  1
  H+  H63  1  0.15347848  0.64588877  0.48412411  1
  H+  H64  1  0.13309319  0.86026464  0.32509117  1
  H+  H65  1  0.24340450  0.11684900  0.83249712  1
  H+  H66  1  0.34680940  1.00228878  0.14320001  1
  H+  H67  1  0.87994875  0.08302318  0.50592927  1
  H+  H68  1  0.73338489  0.63918008  0.47772777  1
  H+  H69  1  0.36769436  0.25289024  0.49794491  1
  H+  H70  1  0.37288714  0.39175161  0.49713442  1
  H+  H71  1  0.37111901  0.47934828  0.16010761  1
  H+  H72  1  0.24664567  0.59465187  0.32671806  1
  H+  H73  1  0.23698378  0.11879397  0.15699866  1
  H+  H74  1  0.62206376  0.40073211  0.50315784  1
  H+  H75  1  0.85513934  0.72298972  0.48169000  1
  H+  H76  1  0.85626541  0.92926173  0.73281598  1
  H+  H77  1  0.25405315  0.11550836  0.99712549  1
  H+  H78  1  0.14382026  0.27181156  0.50777693  1
  H+  H79  1  0.62231642  0.90500446  0.68271579  1
  H+  H80  1  0.11543588  -0.02290132  0.83061777  1
  H+  H81  1  0.62026698  0.13391951  0.82829830  1
  H+  H82  1  0.38636128  0.51652901  0.51210207  1
  H+  H83  1  0.11086047  0.23076717  0.16598142  1
  H+  H84  1  0.10544781  0.37571650  0.19874621  1
  H+  H85  1  0.14774755  0.36197159  0.50075110  1
  H+  H86  1  0.10339039  0.96814988  0.14369254  1
  H+  H87  1  0.59617705  -0.03000000  0.50450033  1
  H+  H88  1  0.86747206  0.23480251  0.62592781  1
  H+  H89  1  0.37815423  0.22778543  0.81526744  1
  H+  H90  1  0.11538681  -0.02756655  0.34700508  1
  H+  H91  1  0.85056909  0.88586566  0.66685873  1
  H+  H92  1  0.60806537  0.42064669  0.67082665  1
  H+  H93  1  0.60987962  0.64191591  0.17130192  1
  H+  H94  1  0.61888993  0.13037232  0.31645882  1
  H+  H95  1  0.26084056  0.66065421  0.80689202  1
  H+  H96  1  0.82876063  0.16131741  0.53262967  1
  H+  H97  1  0.83897846  0.42099383  0.72582334  1
  H+  H98  1  0.23496458  0.11903254  0.33839930  1
  H+  H99  1  0.36058993  0.97077029  0.67989210  1
  H+  H100  1  0.38944165  0.11774610  0.67129118  1
  H+  H101  1  0.13032675  0.47505673  0.80983663  1
  H+  H102  1  0.73078730  0.37915262  0.51457618  1
  H+  H103  1  0.62711914  0.61350831  0.49468000  1
  H+  H104  1  0.76885754  0.39085772  0.33601263  1
  H+  H105  1  0.38180823  0.22799835  0.00027747  1
  H+  H106  1  0.17271690  0.12613181  0.99090834  1
  H+  H107  1  0.13183695  0.77087282  0.32129827  1
  H+  H108  1  0.40488319  0.88748390  0.13868279  1
  H+  H109  1  0.86104747  0.38576750  1.00110603  1
  H+  H110  1  0.91710918  0.31600310  0.49311494  1
  H+  H111  1  0.63368076  0.52351674  0.17017418  1
  H+  H112  1  0.86846784  0.74409275  0.32027779  1
  H+  H113  1  0.91704236  0.57878415  0.22793894  1
  H+  H114  1  0.07702210  0.90241807  0.08943536  1
  H+  H115  1  0.87708774  0.06359678  0.96215930  1
  H+  H116  1  0.73247649  0.10487558  0.33451319  1
  H+  H117  1  0.82019855  0.62388880  0.66575341  1
  H+  H118  1  0.63853809  0.77489530  0.18241469  1
  H+  H119  1  0.37206009  0.11005823  0.51356991  1
  H+  H120  1  0.38682676  0.76989862  0.34472822  1
  H+  H121  1  0.12907334  0.47063420  0.33724039  1
  H+  H122  1  0.36794030  0.23149960  0.15703815  1
  H+  H123  1  0.35097232  0.87041401  0.35401191  1
  H+  H124  1  0.34977139  0.38317229  0.67801275  1
  H+  H125  1  0.62598780  0.38619822  0.83142591  1
  H+  H126  1  0.71877869  0.94316261  0.78459712  1
  H+  H127  1  0.05309243  0.08739514  0.02261953  1
  H+  H128  1  0.48661118  0.37531404  0.51668247  1
  H+  H129  1  -0.00079165  0.40055541  0.19526353  1
  H+  H130  1  0.12946954  0.17496956  0.66584904  1
  H+  H131  1  0.34958369  0.17457476  0.62413558  1
  H+  H132  1  0.71294972  0.84734631  0.99775033  1
  H+  H133  1  0.40131193  0.36695354  0.17283490  1
  H+  H134  1  0.22847066  0.84259225  0.84248364  1
  H+  H135  1  0.73518016  0.77788796  0.57972084  1
  H+  H136  1  0.51680051  0.89306322  0.83230325  1
  H+  H137  1  0.36255739  0.46708176  0.99868758  1
  H+  H138  1  0.64969669  0.61145347  0.82885788  1
  H+  H139  1  0.13666696  0.76618962  0.99571683  1
  H+  H140  1  0.21746621  0.09571811  0.51701111  1
  H+  H141  1  0.37236182  0.87181743  0.16386494  1
  H+  H142  1  0.73148824  0.11024108  0.84208425  1
  H+  H143  1  0.62674875  0.88522534  0.16531733  1
  H+  H144  1  0.92983499  0.34143576  0.88469991  1
  H+  H145  1  0.36204714  0.22559596  0.33640564  1
  H+  H146  1  0.02339807  0.88836804  0.33885159  1
  H+  H147  1  0.87090363  0.35446409  0.18042844  1
  H+  H148  1  0.34594893  0.17499154  0.09460793  1
  H+  H149  1  0.47108972  0.60684133  0.33001135  1
  H+  H150  1  0.87629936  0.39200547  0.81577772  1
  H+  H151  1  0.17030476  0.09021031  0.61611367  1
  H+  H152  1  0.61911332  0.47546612  0.99937852  1
  H+  H153  1  0.33889993  0.41273229  0.40310842  1
  H+  H154  1  0.89120817  0.00043273  0.50933339  1
  H+  H155  1  0.87716875  0.37083148  0.33722069  1
  H+  H156  1  0.47466014  0.86220890  1.00093558  1
  H+  H157  1  0.49423676  0.35878693  0.83753347  1
  H+  H158  1  0.53297476  0.13738816  0.31047431  1
  H+  H159  1  1.00550912  0.62382705  0.48409043  1
  H+  H160  1  0.36233427  -0.01903663  0.82481862  1
  H+  H161  1  0.61539756  0.15160976  0.67362514  1
  H+  H162  1  0.49895409  0.59101104  0.84126125  1
  H+  H163  1  0.27888242  0.61866598  0.62856958  1
  H+  H164  1  0.71684372  0.84070057  0.33603380  1
  H+  H165  1  0.14243093  0.74881258  0.83928282  1
  H+  H166  1  0.86680022  0.13898648  0.16097502  1
  H+  H167  1  0.40606727  0.78703937  0.65375295  1
  H+  H168  1  0.02322222  0.62815420  0.81919389  1
  H+  H169  1  0.13162667  0.23036303  0.82886349  1
  H+  H170  1  0.70041477  0.08913213  0.51182542  1
  H+  H171  1  0.13673493  0.26883526  0.33853128  1
  H+  H172  1  0.12502808  -0.02857549  1.00230987  1
  H+  H173  1  0.12637979  0.85552197  0.16980275  1
  H+  H174  1  0.11118442  0.53920058  0.24255444  1
  H+  H175  1  0.72020038  0.59607739  0.66143378  1
  H+  H176  1  0.54103523  0.74563752  0.87810941  1
  H+  H177  1  0.36635915  0.59865527  0.18457464  1
  H+  H178  1  0.12253582  0.76564695  0.66474075  1
  H+  H179  1  0.83177053  0.40604101  0.09937706  1
  H+  H180  1  0.73722048  0.10283195  0.17768520  1
  H+  H181  1  0.39412356  0.11500351  0.31834303  1
  H+  H182  1  0.71660313  0.62450650  0.32111116  1
  H+  H183  1  0.60789947  0.88213507  0.01323934  1
  H+  H184  1  0.86029508  0.16191798  1.00489633  1
  H+  H185  1  0.13997743  0.52415369  0.97300175  1
  H+  H186  1  0.64690953  0.26996826  0.31240102  1
  H+  H187  1  0.47068394  0.34571427  0.33097156  1
  H+  H188  1  0.87229788  0.47816091  0.82438854  1
  H+  H189  1  0.60447108  0.71428902  0.80445640  1
  H+  H190  1  0.95182338  0.91934706  0.28808828  1
  H+  H191  1  0.11043479  0.63571139  0.32595882  1
  H+  H192  1  0.46349371  0.86873403  0.50874549  1
  H+  H193  1  0.02991282  0.14218909  0.34575227  1
  H+  H194  1  0.86204510  0.86157691  0.34318297  1
  H+  H195  1  0.26340447  0.87750055  0.50435584  1
  H+  H196  1  0.86359306  0.88002023  0.16946294  1
  H+  H197  1  0.72637720  0.12021807  0.64385402  1
  H+  H198  1  0.77519488  0.88364813  0.17245488  1
  H+  H199  1  0.88959253  0.85333545  1.00009029  1
  H+  H200  1  0.86593767  0.71936729  0.00669559  1
  H+  H201  1  0.12195973  0.14679756  0.16376432  1
  H+  H202  1  0.87098109  0.41054004  0.49041182  1
  H+  H203  1  0.11730227  0.38016645  -0.00392457  1
  H+  H204  1  0.52984134  0.38608525  -0.00059213  1
  H+  H205  1  0.84150368  0.92883305  0.37615133  1
  H+  H206  1  0.40399458  0.69137994  0.59545556  1
  H+  H207  1  0.61070189  0.97322076  0.01143872  1
  H+  H208  1  0.60129002  0.34841486  0.34556451  1
  H+  H209  1  0.36491055  0.72620100  -0.00308819  1
  H+  H210  1  0.12772401  0.60757824  0.81616433  1
  H+  H211  1  0.46703483  0.37848376  0.66153242  1
  H+  H212  1  0.11836852  0.87859409  0.99847426  1
  H+  H213  1  0.87204406  0.15510186  0.35278383  1
  H+  H214  1  0.85727562  0.23434371  0.35585991  1
  H+  H215  1  0.51937585  0.15084418  0.53101081  1
  H+  H216  1  0.59263841  0.16908608  0.76940642  1
  H+  H217  1  0.98259826  0.38714637  0.64212345  1
  H+  H218  1  0.65305220  0.74403476  0.53457538  1
  H+  H219  1  -0.02947320  0.85263371  0.16805320  1
  H+  H220  1  0.08528041  0.64588842  0.66788748  1
  H+  H221  1  0.52430567  0.14457912  0.68107102  1
  H+  H222  1  0.57213113  0.16388673  0.09636142  1
  H+  H223  1  0.13056157  0.09743265  0.51531932  1
  H+  H224  1  0.11813574  0.13947651  0.35134647  1
  H+  H225  1  0.86776071  0.14530227  0.62994472  1
  H+  H226  1  0.72816739  0.60798221  0.98920973  1
  H+  H227  1  0.89665008  0.61008816  0.84535624  1
  H+  H228  1  -0.03472808  0.36742113  0.33666102  1
  H+  H229  1  0.96845863  0.13028487  0.98985611  1
  H+  H230  1  0.64048210  0.02071371  0.84399311  1
  H+  H231  1  0.86261159  0.46846844  0.15765119  1
  H+  H232  1  0.59110367  0.87821869  0.50876529  1
  H+  H233  1  0.00094087  0.12985612  0.82616942  1
  H+  H234  1  0.40193510  0.35506072  0.83553432  1
  H+  H235  1  0.36501723  0.88188145  0.50515168  1
  H+  H236  1  0.59773586  0.22043630  0.15703744  1
  H+  H237  1  0.89307817  0.99063493  0.82142950  1
  H+  H238  1  0.60133853  0.63115160  0.33918877  1
  H+  H239  1  0.93495617  0.62940745  0.44665326  1
  H+  H240  1  0.98125656  0.85904215  0.99381453  1
  H+  H241  1  0.64326667  0.99961785  0.17544994  1
  H+  H242  1  1.02405429  0.62949624  1.00818347  1
  H+  H243  1  0.39548896  0.75181487  0.19991353  1
  H+  H244  1  0.72189258  0.35817169  0.16889622  1
  H+  H245  1  0.52392164  0.88195614  0.35124909  1
  H+  H246  1  0.97902349  0.60475361  0.16995754  1
  H+  H247  1  0.63677367  0.36519446  0.16757940  1
  H+  H248  1  0.62281653  0.47334625  0.82802730  1
  H+  H249  1  0.23084729  0.35241355  -0.00087861  1
  H+  H250  1  0.11325807  0.63138987  1.00110093  1
  H+  H251  1  0.64528452  0.06891774  0.57279799  1
  H+  H252  1  0.28603727  0.37869390  0.83353626  1
  H+  H253  1  0.22648264  0.61351994  0.97409598  1
  H+  H254  1  0.36171659  0.62495500  0.34546035  1
  H+  H255  1  0.80497075  0.73156343  0.64403899  1
  H+  H256  1  0.85925144  0.22410097  0.16920149  1
  H+  H257  1  0.38924159  0.36137095  0.32762049  1
  H+  H258  1  0.64070561  0.03471041  0.66830847  1
  H+  H259  1  0.29591049  0.38238749  0.14886648  1
  H+  H260  1  0.86524944  0.65384329  0.32535848  1
  H+  H261  1  0.13006187  0.29763770  0.68896371  1
  H+  H262  1  0.65434212  0.58668612  0.26542115  1
  H+  H263  1  0.37078715  0.58181496  0.76245379  1
  H+  H264  1  0.88477777  0.28468655  0.98563951  1
  H+  H265  1  0.65063653  0.27216433  0.84030163  1
  H+  H266  1  0.08172572  0.90167288  0.43903713  1
  H+  H267  1  0.37220966  0.47967069  0.68311288  1
  H+  H268  1  0.39549820  0.11730360  0.82982520  1
  H+  H269  1  0.26539959  0.87748200  -0.00243483  1
  H+  H270  1  0.13183985  0.99116391  0.68517975  1
  H+  H271  1  0.97319417  0.61552899  0.32443932  1
  H+  H272  1  0.53126301  0.90291582  0.67898540  1
  H+  H273  1  0.19799340  0.39445154  0.19050958  1
  H+  H274  1  0.67952881  0.06447769  0.24257337  1
  H+  H275  1  0.64333532  0.52994757  0.49239548  1
  H+  H276  1  0.41202140  0.62397883  0.76500663  1
  H+  H277  1  0.89100660  0.04583602  0.32574497  1
  H+  H278  1  0.38621599  0.27863736  0.66069823  1
  H+  H279  1  0.79158214  0.63560401  0.83071086  1
  H+  H280  1  1.11421542  0.71507059  0.16132438  1
  H+  H281  1  0.59199938  0.91691959  0.10641962  1
  H+  H282  1  0.89909204  1.03703254  0.66279667  1
  H+  H283  1  0.12050348  0.41213676  0.67314979  1
  H+  H284  1  0.76920925  0.37981030  0.00672982  1
  H+  H285  1  0.72280109  0.61048034  0.17277158  1
  H+  H286  1  0.57003221  0.64625486  0.74932504  1
  H+  H287  1  0.17689421  0.54005056  0.62964316  1
  H+  H288  1  0.42597331  0.57130253  0.57373402  1
  H+  H289  1  0.21977563  0.59610986  0.55263471  1
  H+  H290  1  0.41152627  0.85034679  0.57259498  1
  H+  H291  1  0.82463495  0.42486478  0.39832033  1
  H+  H292  1  0.57036643  0.65985776  0.43562568  1
  H+  H293  1  0.67517201  0.84107625  0.62184047  1
  H+  H294  1  0.17488046  0.10702915  0.28246246  1
  H+  H295  1  0.08993514  0.42113914  0.04823710  1
  H+  H296  1  0.59306087  0.83839003  0.84880765  1
  H+  H297  1  0.14027879  0.84994381  0.51298470  1
  H+  H298  1  0.67251214  0.58406343  0.89278793  1
  H+  H299  1  0.08596742  0.16029329  0.44443069  1
  H+  H300  1  0.30819933  0.93100824  0.07872174  1
  H+  H301  1  0.41382519  0.08215161  0.25679533  1
  H+  H302  1  0.93858413  0.11670062  0.88136751  1
  H+  H303  1  0.15797882  0.33049675  0.27922413  1
  H+  H304  1  0.33908980  0.17472702  0.39925250  1
  H+  H305  1  0.92540276  0.09819432  0.26562310  1
  H+  H306  1  0.86110799  0.71680598  0.16234579  1
  H+  H307  1  0.27682630  0.21125893  0.46894964  1
  H+  H308  1  0.83159439  0.87379655  0.45335670  1
  H+  H309  1  0.40331689  0.57074861  0.23980626  1
  H+  H310  1  0.88784628  0.60617802  0.99611256  1
  H+  H311  1  0.03757466  0.16574740  0.65826050  1
  H+  H312  1  0.33097077  0.90946243  0.73725977  1
  H+  H313  1  0.07229221  0.47275321  0.15402593  1
  H+  H314  1  0.55506501  0.19553840  0.42243461  1
  H+  H315  1  0.09889460  0.66455748  0.39270824  1
  H+  H316  1  0.93556313  0.36625445  0.55636059  1
  H+  H317  1  0.92740203  0.08086635  0.59861765  1
  H+  H318  1  0.42829655  0.56740045  0.93358027  1
  H+  H319  1  0.58592746  0.41759017  0.09498971  1
  H+  H320  1  0.16796729  0.83696660  0.22871221  1
  H+  H321  1  0.64434440  0.81748628  0.94223288  1
  H+  H322  1  0.24208108  0.13409123  0.66713696  1
  H+  H323  1  0.52624150  0.14772534  0.42181295  1
  H+  H324  1  0.41522471  0.83530106  0.90320447  1
  H+  H325  1  0.31851708  0.90240049  0.43725821  1
  H+  H326  1  0.26104578  0.87043385  0.34875843  1
  H+  H327  1  0.42581471  0.32679359  0.92556801  1
  H+  H328  1  0.67298929  0.33002071  0.93328310  1
  H+  H329  1  0.12861179  0.14054170  0.82804759  1
  H+  H330  1  0.17713034  0.33165756  0.90557255  1
  H+  H331  1  0.41372101  0.07810214  0.61621972  1
  H+  H332  1  0.34016843  0.41040091  0.77148561  1
  H+  H333  1  0.48805153  0.83571768  0.19030295  1
  H+  H334  1  0.12105538  0.39561765  0.76720360  1
  H+  H335  1  0.88197648  0.53998330  0.65937624  1
  H+  H336  1  0.34297346  0.68594399  0.76645874  1
  H+  H337  1  0.26333678  0.66670066  0.14979067  1
  H+  H338  1  0.08740471  0.65627571  0.10307036  1
  H+  H339  1  0.81799123  0.69147961  0.41171240  1
  H+  H340  1  0.88852259  0.37825060  0.64646723  1
  H+  H341  1  0.15227697  0.49676705  0.48120147  1
  H+  H342  1  0.82561430  0.15972228  0.45682882  1
  H+  H343  1  0.82983573  0.18357870  0.06714717  1
  H+  H344  1  0.94521001  0.71244940  0.53748517  1
  H+  H345  1  0.09854434  0.42479413  0.41143471  1
  H+  H346  1  0.17896736  0.05301005  0.20718382  1
  H+  H347  1  0.47653356  0.10350471  0.98647721  1
  H+  H348  1  0.40993258  0.50248691  0.84713726  1
  H+  H349  1  0.34471973  0.17177532  0.75431829  1
  H+  H350  1  0.07433605  0.66764308  0.75291207  1
  H+  H351  1  0.09144094  0.47726005  0.69732754  1
  H+  H352  1  0.58448152  0.91211007  0.40898077  1
  H+  H353  1  0.19496532  0.08932595  0.89663937  1
  H+  H354  1  0.66378567  0.35396394  0.61077990  1
  H+  H355  1  0.42759975  0.82406995  0.28613579  1
  H+  H356  1  0.59751607  0.71822637  0.34191378  1
  H+  H357  1  0.41984634  0.34388421  0.57478968  1
  H+  H358  1  0.66444089  0.07725870  0.93510447  1
  H+  H359  1  0.41393132  0.64016593  0.64919194  1
  H+  H360  1  0.66979696  0.34119170  0.26249088  1
  H+  H361  1  0.08746110  0.91844287  0.77231539  1
  H+  H362  1  0.35709989  0.96904409  -0.00449675  1
  H+  H363  1  0.82349032  0.89537619  0.08111269  1
  H+  H364  1  0.32843764  0.65668383  0.04902013  1
  H+  H365  1  0.87094380  0.79485087  0.59542894  1
  H+  H366  1  0.58010344  0.92000431  0.77414012  1
  H+  H367  1  0.92127879  0.83053571  0.23263066  1
  H+  H368  1  0.06797526  0.15553502  0.07334653  1
  H+  H369  1  0.33371423  0.60547443  0.50164839  1
  H+  H370  1  0.89410503  0.32622357  0.24526620  1
  H+  H371  1  0.42320937  0.33098161  0.23293366  1
  H+  H372  1  0.92645852  0.57598338  0.90234547  1
  H+  H373  1  0.83118706  0.66009892  0.06615489  1
  H+  H374  1  0.12589601  0.89974367  0.67732852  1
  H+  H375  1  0.14015761  0.72674540  0.49392500  1
  H+  H376  1  0.16832130  0.81450781  0.93120946  1
  H+  H377  1  0.41793482  0.07897895  0.92602023  1
  H+  H378  1  0.88798980  0.02004370  0.17757027  1
  H+  H379  1  0.34708509  0.41347158  0.05905191  1
  H+  H380  1  0.37333644  0.02258693  0.51142492  1
  H+  H381  1  0.21924530  0.38478363  0.70011115  1
  H+  H382  1  0.58131084  0.40713525  0.44055418  1
  H+  H383  1  0.66942510  0.83731405  0.24000331  1
  O2-  O384  1  0.08609222  0.17163272  0.15016229  1
  O2-  O385  1  0.08751863  0.15805500  0.48949416  1
  O2-  O386  1  0.09916865  0.17108020  0.81279901  1
  O2-  O387  1  0.06356604  0.44450028  0.19337400  1
  O2-  O388  1  0.10685138  0.43510124  0.46969088  1
  O2-  O389  1  0.10243369  0.41096017  0.80566946  1
  O2-  O390  1  0.08584094  0.65435777  0.14843890  1
  O2-  O391  1  0.11694364  0.67028415  0.47211106  1
  O2-  O392  1  0.08121941  0.65671929  0.79990953  1
  O2-  O393  1  0.07390203  0.90606903  0.13520463  1
  O2-  O394  1  0.08287799  0.89634382  0.48414188  1
  O2-  O395  1  0.08197132  0.91653131  0.81784571  1
  O2-  O396  1  0.33570401  0.17154357  0.13984524  1
  O2-  O397  1  0.32220460  0.19767619  0.47687179  1
  O2-  O398  1  0.34486788  0.16736506  0.79895149  1
  O2-  O399  1  0.35587831  0.42251128  0.13979521  1
  O2-  O400  1  0.34135225  0.41876022  0.47819064  1
  O2-  O401  1  0.34532555  0.40436521  0.81668628  1
  O2-  O402  1  0.28876796  0.65432266  0.18458934  1
  O2-  O403  1  0.30577987  0.63425087  0.47978850  1
  O2-  O404  1  0.31620869  0.71027005  0.79174534  1
  O2-  O405  1  0.29386855  0.95065106  0.11966839  1
  O2-  O406  1  0.32485725  0.91174019  0.48554033  1
  O2-  O407  1  0.33246308  0.91947358  0.81179899  1
  O2-  O408  1  0.56504016  0.16073837  0.14133360  1
  O2-  O409  1  0.58225853  0.18358470  0.53516899  1
  O2-  O410  1  0.59079339  0.16584238  0.81498929  1
  O2-  O411  1  0.58787468  0.41887453  0.14061253  1
  O2-  O412  1  0.58947097  0.42691986  0.48350474  1
  O2-  O413  1  0.59060942  0.41105034  0.81762799  1
  O2-  O414  1  0.58374497  0.67884415  0.16536242  1
  O2-  O415  1  0.57382009  0.65710868  0.48105074  1
  O2-  O416  1  0.58819889  0.65536693  0.79252800  1
  O2-  O417  1  0.59698672  0.91849709  0.15211911  1
  O2-  O418  1  0.56616436  0.90819074  0.48755616  1
  O2-  O419  1  0.57820059  0.91593963  0.81980775  1
  O2-  O420  1  0.83206217  0.16605668  0.14944456  1
  O2-  O421  1  0.80817845  0.12598857  0.49488901  1
  O2-  O422  1  0.82721870  0.16285353  0.80973088  1
  O2-  O423  1  0.83102791  0.40655619  0.14514915  1
  O2-  O424  1  0.83340990  0.43353656  0.47778331  1
  O2-  O425  1  0.84169228  0.41936931  0.80494865  1
  O2-  O426  1  0.82945926  0.65730935  0.14547967  1
  O2-  O427  1  0.80324463  0.69930892  0.45427091  1
  O2-  O428  1  0.85427035  0.66294745  0.82436248  1
  O2-  O429  1  0.83565077  0.91380689  0.15558590  1
  O2-  O430  1  0.84035109  0.89851777  0.49434231  1
  O2-  O431  1  0.86202675  0.93104110  0.80592086  1
  O2-  O432  1  0.17482233  0.08410091  0.17221098  1
  O2-  O433  1  0.15752370  0.06363089  0.53051193  1
  O2-  O434  1  0.18591306  0.09022957  0.85255322  1
  O2-  O435  1  0.14142863  0.34742740  0.20184221  1
  O2-  O436  1  0.18009677  0.33455813  0.51457776  1
  O2-  O437  1  0.18264535  0.33566351  0.86073391  1
  O2-  O438  1  0.15331687  0.58859686  0.26817291  1
  O2-  O439  1  0.21548036  0.59217517  0.50136673  1
  O2-  O440  1  0.16425424  0.58047428  0.82976875  1
  O2-  O441  1  0.16655578  0.83551181  0.18296277  1
  O2-  O442  1  0.17412984  0.82382250  0.52884881  1
  O2-  O443  1  0.18005422  0.79833729  0.86638271  1
  O2-  O444  1  0.40741711  0.07736317  0.17408185  1
  O2-  O445  1  0.40016168  0.08031004  0.53058804  1
  O2-  O446  1  0.42246987  0.08612489  0.84934204  1
  O2-  O447  1  0.42424325  0.32995185  0.18736023  1
  O2-  O448  1  0.42468444  0.34366329  0.52826840  1
  O2-  O449  1  0.43103186  0.32362545  0.85081801  1
  O2-  O450  1  0.40019331  0.57092483  0.19393669  1
  O2-  O451  1  0.41218535  0.57603096  0.52952564  1
  O2-  O452  1  0.44613272  0.56028918  0.86604150  1
  O2-  O453  1  0.44864410  0.79433091  0.22034041  1
  O2-  O454  1  0.40482770  0.84729521  0.52650764  1
  O2-  O455  1  0.41774753  0.84398545  0.85848802  1
  O2-  O456  1  0.67800334  0.06395622  0.19564459  1
  O2-  O457  1  0.64019481  0.06402044  0.52676445  1
  O2-  O458  1  0.67123471  0.08115128  0.85952224  1
  O2-  O459  1  0.66225933  0.33137661  0.18500089  1
  O2-  O460  1  0.67206683  0.35425515  0.53192097  1
  O2-  O461  1  0.68148059  0.33180051  0.85705786  1
  O2-  O462  1  0.66201007  0.58310733  0.18674902  1
  O2-  O463  1  0.67094560  0.59356633  0.50169857  1
  O2-  O464  1  0.67790476  0.58205399  0.84773968  1
  O2-  O465  1  0.67352348  0.83869360  0.19450526  1
  O2-  O466  1  0.69705561  0.79436131  0.55709445  1
  O2-  O467  1  0.59925634  0.79095062  0.86865055  1
  O2-  O468  1  0.91736770  0.08247378  0.18981349  1
  O2-  O469  1  0.92016740  0.06387504  0.51958433  1
  O2-  O470  1  0.93756168  0.10289903  0.83823376  1
  O2-  O471  1  0.90190446  0.32649738  0.20020585  1
  O2-  O472  1  0.94542020  0.37399172  0.50989090  1
  O2-  O473  1  0.93070853  0.33895315  0.83962536  1
  O2-  O474  1  0.91700107  0.57445289  0.18275434  1
  O2-  O475  1  0.94382964  0.60786645  0.48503736  1
  O2-  O476  1  0.92496438  0.57490970  0.85720339  1
  O2-  O477  1  0.91233566  0.82334878  0.18678879  1
  O2-  O478  1  0.93437014  0.76018307  0.53066363  1
  O2-  O479  1  0.92300087  0.83440766  0.85235807  1
  O2-  O480  1  0.17215345  0.09137642  0.32514254  1
  O2-  O481  1  0.17758424  0.10368248  0.65990201  1
  O2-  O482  1  0.19173944  0.08488901  0.98333850  1
  O2-  O483  1  0.16461578  0.33056956  0.32415211  1
  O2-  O484  1  0.15581535  0.36017463  0.70343101  1
  O2-  O485  1  0.16881022  0.32409741  0.98526012  1
  O2-  O486  1  0.19207827  0.54543310  0.30214000  1
  O2-  O487  1  0.21935835  0.59766593  0.61257665  1
  O2-  O488  1  0.16595798  0.58463197  0.95976046  1
  O2-  O489  1  0.16364709  0.83160270  0.30708452  1
  O2-  O490  1  0.16334692  0.82829557  0.64426346  1
  O2-  O491  1  0.16689198  0.82511689  0.97766079  1
  O2-  O492  1  0.42533042  0.08810188  0.30097877  1
  O2-  O493  1  0.41649915  0.08058836  0.66102226  1
  O2-  O494  1  0.41524122  0.07335464  0.97169560  1
  O2-  O495  1  0.41457180  0.32728332  0.31021506  1
  O2-  O496  1  0.40717867  0.34085629  0.64599337  1
  O2-  O497  1  0.42410106  0.32699658  0.97173405  1
  O2-  O498  1  0.40899015  0.57535351  0.31551460  1
  O2-  O499  1  0.44104074  0.57046621  0.64925614  1
  O2-  O500  1  0.41465252  0.56651991  0.97892297  1
  O2-  O501  1  0.41812367  0.83027068  0.33068950  1
  O2-  O502  1  0.42638832  0.84816533  0.64473805  1
  O2-  O503  1  0.41529153  0.83022521  0.98339119  1
  O2-  O504  1  0.67726455  0.06911001  0.31258868  1
  O2-  O505  1  0.66263331  0.09036517  0.64545721  1
  O2-  O506  1  0.65986448  0.07629158  0.98103566  1
  O2-  O507  1  0.67172605  0.33498393  0.30778822  1
  O2-  O508  1  0.66095160  0.35442571  0.65605600  1
  O2-  O509  1  0.66772814  0.32673712  0.97896013  1
  O2-  O510  1  0.65511428  0.59113495  0.31067356  1
  O2-  O511  1  0.60354566  0.52138023  0.64161501  1
  O2-  O512  1  0.66895719  0.57633700  0.97208169  1
  O2-  O513  1  0.65981853  0.82300132  0.31712395  1
  O2-  O514  1  0.67655823  0.86471658  0.66270647  1
  O2-  O515  1  0.65175580  0.82354343  0.98731481  1
  O2-  O516  1  0.92866567  0.10415849  0.31138061  1
  O2-  O517  1  0.92543130  0.09469157  0.64224801  1
  O2-  O518  1  0.91830808  0.12460320  0.96669200  1
  O2-  O519  1  0.90467657  0.33566321  0.32416247  1
  O2-  O520  1  0.92302102  0.35445559  0.62606724  1
  O2-  O521  1  0.91706898  0.34255014  0.96631683  1
  O2-  O522  1  0.91360860  0.58974536  0.30860300  1
  O2-  O523  1  0.90178787  0.60000149  0.64809313  1
  O2-  O524  1  0.92092779  0.57781976  0.98300081  1
  O2-  O525  1  0.93469168  0.86260127  0.30452434  1
  O2-  O526  1  0.82362131  0.78821982  0.62136504  1
  O2-  O527  1  0.91978385  0.82586448  0.98137671  1
  O2-  O528  1  0.06084164  0.14473780  0.02834155  1
  O2-  O529  1  0.08808667  0.17105346  0.36454967  1
  O2-  O530  1  0.09987414  0.20816520  0.65894262  1
  O2-  O531  1  0.08827288  0.41459207  0.00424776  1
  O2-  O532  1  0.09015929  0.41267658  0.36036595  1
  O2-  O533  1  0.09582312  0.45097807  0.65966338  1
  O2-  O534  1  0.08532554  0.65970785  0.02265444  1
  O2-  O535  1  0.08374556  0.66353514  0.34887666  1
  O2-  O536  1  0.06759932  0.68232474  0.68870429  1
  O2-  O537  1  0.08969140  0.91064151  0.01511537  1
  O2-  O538  1  0.08314458  0.91111277  0.35809679  1
  O2-  O539  1  0.09892182  0.92987648  0.69696319  1
  O2-  O540  1  0.35281089  0.16897270  0.01939626  1
  O2-  O541  1  0.33436956  0.16614665  0.35449925  1
  O2-  O542  1  0.34827913  0.17998604  0.66822751  1
  O2-  O543  1  0.33452747  0.40586738  0.01486949  1
  O2-  O544  1  0.33702330  0.41080510  0.35707067  1
  O2-  O545  1  0.32936698  0.41986781  0.69808079  1
  O2-  O546  1  0.33195238  0.66210745  0.00494148  1
  O2-  O547  1  0.32455084  0.65010224  0.35813484  1
  O2-  O548  1  0.38663433  0.67780142  0.63790453  1
  O2-  O549  1  0.32574145  0.91133187  0.01607961  1
  O2-  O550  1  0.31458715  0.89140294  0.37299057  1
  O2-  O551  1  0.33275971  0.90881802  0.69135516  1
  O2-  O552  1  0.57533611  0.16005924  0.01654337  1
  O2-  O553  1  0.59686291  0.17055579  0.31538762  1
  O2-  O554  1  0.58614232  0.18007996  0.69298321  1
  O2-  O555  1  0.58907898  0.41540857  0.01672610  1
  O2-  O556  1  0.55329193  0.34621242  0.37172733  1
  O2-  O557  1  0.57074649  0.44557073  0.68030820  1
  O2-  O558  1  0.58256156  0.64567131  0.01939509  1
  O2-  O559  1  0.56745757  0.65777261  0.35722561  1
  O2-  O560  1  0.53090869  0.60701001  0.66999831  1
  O2-  O561  1  0.57970628  0.91419172  0.02967167  1
  O2-  O562  1  0.58612400  0.91193050  0.36370676  1
  O2-  O563  1  0.58910377  0.93415764  0.69790176  1
  O2-  O564  1  0.82603458  0.18639418  0.02224876  1
  O2-  O565  1  0.83424481  0.17425168  0.37095535  1
  O2-  O566  1  0.83537440  0.17358949  0.61386481  1
  O2-  O567  1  0.82991884  0.41111348  0.02254748  1
  O2-  O568  1  0.82934236  0.42433662  0.35301453  1
  O2-  O569  1  0.83456706  0.41896003  0.68039274  1
  O2-  O570  1  0.83301815  0.65849667  0.02075388  1
  O2-  O571  1  0.83532297  0.68564664  0.33718778  1
  O2-  O572  1  0.77753006  0.64282534  0.67359284  1
  O2-  O573  1  0.82137951  0.89250429  0.03504725  1
  O2-  O574  1  0.81556192  0.86787213  0.36760645  1
  O2-  O575  1  0.84738271  0.93324679  0.68749817  1
