# generated using pymatgen
data_H2O
_symmetry_space_group_name_H-M   'P 1'
_cell_length_a   17.99761431
_cell_length_b   17.99511324
_cell_length_c   22.00110082
_cell_angle_alpha   89.97398749
_cell_angle_beta   90.00876544
_cell_angle_gamma   119.97474470
_symmetry_Int_Tables_number   1
_chemical_formula_structural   H2O
_chemical_formula_sum   'H384 O192'
_cell_volume   6172.41315580
_cell_formula_units_Z   192
loop_
 _symmetry_equiv_pos_site_id
 _symmetry_equiv_pos_as_xyz
  1  'x, y, z'
loop_
 _atom_type_symbol
 _atom_type_oxidation_number
  H+  1.0
  O2-  -2.0
loop_
 _atom_site_type_symbol
 _atom_site_label
 _atom_site_symmetry_multiplicity
 _atom_site_fract_x
 _atom_site_fract_y
 _atom_site_fract_z
 _atom_site_occupancy
  H+  H0  1  0.60489330  0.62718832  0.82459789  1
  H+  H1  1  0.72736153  0.11089548  0.99217786  1
  H+  H2  1  0.10746488  0.21699519  0.33696240  1
  H+  H3  1  0.61842727  0.22310559  -0.00938701  1
  H+  H4  1  0.64128865  1.01464130  0.16876707  1
  H+  H5  1  -0.02024518  0.11942625  0.49169088  1
  H+  H6  1  0.14762263  0.78134347  0.99637274  1
  H+  H7  1  0.65914393  0.32747645  0.26337874  1
  H+  H8  1  0.76501122  0.13830799  0.82637168  1
  H+  H9  1  0.17485671  0.83294131  0.60445548  1
  H+  H10  1  0.64158432  0.76460904  0.83745462  1
  H+  H11  1  0.63480652  0.35136385  0.98861247  1
  H+  H12  1  0.62887360  0.52350289  0.66271202  1
  H+  H13  1  0.35824080  0.62393075  0.16906532  1
  H+  H14  1  1.06207887  0.63801840  0.52831542  1
  H+  H15  1  0.14714505  0.51930105  0.99783664  1
  H+  H16  1  0.14910589  0.03255976  0.32243786  1
  H+  H17  1  0.74162095  0.38373635  0.34098780  1
  H+  H18  1  0.04319760  0.64819573  -0.01241597  1
  H+  H19  1  0.29827429  0.52844596  0.46327394  1
  H+  H20  1  0.13893306  0.76713991  0.49900959  1
  H+  H21  1  0.39117971  0.86174404  0.99448329  1
  H+  H22  1  0.59796615  0.38079059  0.66491006  1
  H+  H23  1  0.48606849  0.36669770  0.16561931  1
  H+  H24  1  0.40609554  0.38080304  0.16415047  1
  H+  H25  1  0.12400518  0.91416470  0.83038500  1
  H+  H26  1  0.64122726  0.26443707  0.82669436  1
  H+  H27  1  0.08919655  0.42041838  0.10592015  1
  H+  H28  1  0.14087266  0.87779655  0.31995498  1
  H+  H29  1  0.86881110  -0.02633831  0.99808831  1
  H+  H30  1  0.13989544  0.50471758  0.84692854  1
  H+  H31  1  0.14727794  0.14716437  0.83818120  1
  H+  H32  1  0.27493691  0.40157031  0.50400654  1
  H+  H33  1  0.92190286  0.78445758  0.83989037  1
  H+  H34  1  0.62130429  0.47092642  0.15424478  1
  H+  H35  1  -0.10626338  0.11569024  0.16392817  1
  H+  H36  1  0.36959631  0.48510767  0.84205772  1
  H+  H37  1  0.61708176  0.12673660  0.99296412  1
  H+  H38  1  0.94687768  0.62879406  0.32214591  1
  H+  H39  1  0.24725983  0.14139542  0.50120867  1
  H+  H40  1  0.62776541  0.99315651  0.48557126  1
  H+  H41  1  0.14084783  0.52354194  0.17536566  1
  H+  H42  1  0.37024834  0.63371346  1.00069455  1
  H+  H43  1  0.63121612  0.77164554  0.32397867  1
  H+  H44  1  0.93602775  0.08495999  0.82929693  1
  H+  H45  1  0.36838511  0.62163462  0.33285027  1
  H+  H46  1  0.49414665  0.36682393  0.82629507  1
  H+  H47  1  0.39133629  0.37342054  0.48808210  1
  H+  H48  1  0.36324584  0.93353224  0.85887701  1
  H+  H49  1  0.04972273  0.69068228  0.39886896  1
  H+  H50  1  0.78694697  0.88378579  1.00501930  1
  H+  H51  1  0.85923940  0.53759343  0.32291639  1
  H+  H52  1  0.62115895  0.89452558  0.66434636  1
  H+  H53  1  0.60404421  0.49530038  0.83198096  1
  H+  H54  1  0.17793503  0.07167705  0.89845410  1
  H+  H55  1  0.25415346  0.58153147  0.48616741  1
  H+  H56  1  0.61465555  0.62883084  0.15703307  1
  H+  H57  1  0.13173062  0.64991429  -0.01424737  1
  H+  H58  1  0.14207757  0.85943575  0.51037288  1
  H+  H59  1  0.67183149  0.84305547  0.56225718  1
  H+  H60  1  0.01750241  0.60850780  0.82603051  1
  H+  H61  1  0.71908666  0.10245627  0.32601012  1
  H+  H62  1  0.28190259  0.12313525  0.00302770  1
  H+  H63  1  0.83606188  0.47678892  0.51015703  1
  H+  H64  1  0.86615729  0.60009556  0.21777373  1
  H+  H65  1  0.02458398  0.15210513  0.17266833  1
  H+  H66  1  0.14832286  0.94077393  -0.00826991  1
  H+  H67  1  0.46846512  0.36321293  0.66300693  1
  H+  H68  1  0.07530043  0.63498245  0.76590139  1
  H+  H69  1  0.15170250  0.77664876  0.81294609  1
  H+  H70  1  0.86757425  0.40301713  0.16319933  1
  H+  H71  1  0.28652660  0.89345715  0.00864080  1
  H+  H72  1  0.14543610  0.88409561  0.16211189  1
  H+  H73  1  0.77311679  0.64898535  0.01146421  1
  H+  H74  1  1.02616725  0.65242744  0.68280586  1
  H+  H75  1  0.12083565  0.37833002  0.83867680  1
  H+  H76  1  0.90313220  0.34167041  0.33212485  1
  H+  H77  1  0.52016656  0.62834865  0.33054237  1
  H+  H78  1  0.76556617  0.86019303  0.83818741  1
  H+  H79  1  0.36998036  0.24437132  0.14613584  1
  H+  H80  1  0.62540979  0.13412204  0.15831576  1
  H+  H81  1  0.83753621  0.34038231  0.49165015  1
  H+  H82  1  0.49249962  0.12150584  0.48955868  1
  H+  H83  1  0.39704452  0.51066278  0.31551849  1
  H+  H84  1  0.14312031  0.50917739  0.32680943  1
  H+  H85  1  0.48315513  0.62239293  0.84400611  1
  H+  H86  1  0.70104148  0.35322116  0.63109123  1
  H+  H87  1  0.37148410  0.14468373  0.82641736  1
  H+  H88  1  0.15559314  0.06068536  0.48561749  1
  H+  H89  1  0.18013993  0.87316705  0.90476431  1
  H+  H90  1  0.61392794  0.75537766  0.48927448  1
  H+  H91  1  0.76696170  0.88152250  0.33005018  1
  H+  H92  1  0.36021250  0.46700145  0.01081214  1
  H+  H93  1  0.62867420  1.01625879  0.32356204  1
  H+  H94  1  0.88875361  0.51923272  0.85669975  1
  H+  H95  1  0.50267945  0.39515055  0.33655779  1
  H+  H96  1  0.64573792  0.03255642  0.64779488  1
  H+  H97  1  0.73504267  0.59039947  0.17473547  1
  H+  H98  1  0.72950115  0.12440918  0.65352773  1
  H+  H99  1  0.13133815  0.58715449  0.84012741  1
  H+  H100  1  0.11458715  0.39561631  0.17030428  1
  H+  H101  1  1.00406709  0.89884390  0.16412531  1
  H+  H102  1  0.91077658  0.80188497  0.14769781  1
  H+  H103  1  0.12179675  0.57236978  0.53746577  1
  H+  H104  1  0.13222210  0.08405578  0.98867463  1
  H+  H105  1  1.02552678  0.89779047  0.33439449  1
  H+  H106  1  0.38295789  1.02065685  0.66718911  1
  H+  H107  1  0.38987718  0.61500090  0.84385585  1
  H+  H108  1  0.84434036  0.98431522  0.65650898  1
  H+  H109  1  -0.02608099  0.11503418  -0.02381223  1
  H+  H110  1  0.85126684  0.11854845  0.34543299  1
  H+  H111  1  0.23093349  0.35143037  1.00691052  1
  H+  H112  1  0.38901130  0.03763034  0.83704659  1
  H+  H113  1  0.87366302  0.62692015  0.51663418  1
  H+  H114  1  0.10595168  0.95602578  0.09133101  1
  H+  H115  1  0.73159118  0.87431565  0.50086859  1
  H+  H116  1  0.13189112  0.00643564  0.15479813  1
  H+  H117  1  0.14340171  0.37289738  0.67521965  1
  H+  H118  1  0.36509691  0.89921532  0.50032645  1
  H+  H119  1  0.23125954  0.59812494  0.32561037  1
  H+  H120  1  0.48359004  0.12791826  0.83585941  1
  H+  H121  1  0.28037805  0.15557150  0.14908394  1
  H+  H122  1  0.36877089  0.72876864  0.67888723  1
  H+  H123  1  0.63023740  0.86077598  0.32786146  1
  H+  H124  1  0.07453912  0.74221393  0.33640116  1
  H+  H125  1  0.87655832  0.76802148  0.49417604  1
  H+  H126  1  0.77603282  0.12945498  0.15569462  1
  H+  H127  1  0.60985915  0.22093740  0.33978132  1
  H+  H128  1  0.51540499  0.36155770  0.00668278  1
  H+  H129  1  0.26877285  0.88237181  0.49982940  1
  H+  H130  1  0.83810957  0.41107528  0.32987160  1
  H+  H131  1  1.03158589  0.39048108  0.68525873  1
  H+  H132  1  0.83037781  0.15656692  0.06179333  1
  H+  H133  1  0.89356200  0.53955739  0.68184071  1
  H+  H134  1  0.86334086  0.22168321  0.00589145  1
  H+  H135  1  0.86444927  0.12475937  0.64410089  1
  H+  H136  1  0.24613435  0.61409234  0.17904345  1
  H+  H137  1  0.16181964  0.28593782  0.85354021  1
  H+  H138  1  0.33715490  0.92671146  0.74697101  1
  H+  H139  1  0.61724834  0.54347076  0.50768224  1
  H+  H140  1  0.37741937  0.98063832  0.00099274  1
  H+  H141  1  0.13774676  0.60434286  0.47287474  1
  H+  H142  1  0.14388877  0.13013754  0.17674934  1
  H+  H143  1  0.22852440  0.38274371  0.18178818  1
  H+  H144  1  0.29695643  0.78493828  0.86581799  1
  H+  H145  1  0.47990837  0.37482371  0.48610743  1
  H+  H146  1  -0.05149954  0.12307836  0.62779987  1
  H+  H147  1  0.60745134  0.36538274  0.48041538  1
  H+  H148  1  0.36352758  0.30497688  0.35403220  1
  H+  H149  1  0.93767581  0.75396700  0.53910587  1
  H+  H150  1  0.85884067  0.90485944  0.66405049  1
  H+  H151  1  0.14423077  0.86726959  0.66105079  1
  H+  H152  1  0.90541401  0.61332763  1.00861333  1
  H+  H153  1  0.37292003  0.26682441  0.84177817  1
  H+  H154  1  0.61691277  0.62965715  0.51080459  1
  H+  H155  1  0.87462145  1.01435399  0.31847459  1
  H+  H156  1  0.88989645  0.87236954  0.31104373  1
  H+  H157  1  0.09768267  0.46377749  0.48878727  1
  H+  H158  1  0.88898225  0.24888709  0.33053416  1
  H+  H159  1  0.37903389  0.50709955  0.16931788  1
  H+  H160  1  0.60852022  0.87746922  0.15656328  1
  H+  H161  1  0.38812080  0.59996018  0.52261566  1
  H+  H162  1  0.37063647  0.37563984  0.67102411  1
  H+  H163  1  0.13883948  0.23123193  0.44355390  1
  H+  H164  1  0.97592730  0.34994555  0.51626294  1
  H+  H165  1  0.40600869  0.32399214  0.90354008  1
  H+  H166  1  0.40415197  1.02019589  0.17589973  1
  H+  H167  1  1.03271417  0.36582910  0.34177510  1
  H+  H168  1  0.14854625  0.28535510  0.67334293  1
  H+  H169  1  0.97861047  0.88197317  0.65665568  1
  H+  H170  1  0.88469154  0.38276691  0.84367708  1
  H+  H171  1  0.56081978  0.15016543  0.43318555  1
  H+  H172  1  0.77880066  0.38215622  0.00436715  1
  H+  H173  1  0.36170335  0.14542112  0.49544189  1
  H+  H174  1  0.57966719  0.36095450  0.82807301  1
  H+  H175  1  0.61560376  0.13391975  0.82056030  1
  H+  H176  1  0.30149052  0.34734468  0.14777709  1
  H+  H177  1  0.04723924  0.14535100  0.69640951  1
  H+  H178  1  0.69151369  0.31597593  0.50017356  1
  H+  H179  1  0.12103118  0.48007782  0.68619086  1
  H+  H180  1  0.10940733  0.38302425  0.50326515  1
  H+  H181  1  0.89121920  0.26623823  0.84429073  1
  H+  H182  1  0.09780826  0.95108140  0.51884555  1
  H+  H183  1  0.28032229  0.16742310  0.33776403  1
  H+  H184  1  0.85236845  0.64341460  0.69617849  1
  H+  H185  1  0.31730765  0.88806442  0.39965816  1
  H+  H186  1  0.14003976  0.60866395  0.67149615  1
  H+  H187  1  0.26471841  0.61380454  0.82759107  1
  H+  H188  1  0.40649661  0.79998488  0.51571365  1
  H+  H189  1  0.24095324  0.11459762  0.83973700  1
  H+  H190  1  0.38313666  0.84973489  0.17087194  1
  H+  H191  1  0.90842566  0.75559732  0.07130589  1
  H+  H192  1  0.61351888  0.13349250  0.33892599  1
  H+  H193  1  0.90192120  0.09082936  0.53695296  1
  H+  H194  1  0.51983404  0.50307950  0.96034082  1
  H+  H195  1  0.89500868  0.36016671  0.99909940  1
  H+  H196  1  0.59471452  0.23577667  0.49791899  1
  H+  H197  1  0.85018026  0.97707955  0.11390279  1
  H+  H198  1  0.37882914  0.27205619  0.66717121  1
  H+  H199  1  0.79250898  0.40653343  0.70507860  1
  H+  H200  1  0.27059173  0.62938527  -0.00055287  1
  H+  H201  1  0.36089974  0.39204185  0.83855997  1
  H+  H202  1  0.37565050  0.84138508  0.32871438  1
  H+  H203  1  0.60335989  0.21854098  0.66286634  1
  H+  H204  1  0.88352322  0.11377121  0.98631434  1
  H+  H205  1  0.59340814  0.62974372  0.00266833  1
  H+  H206  1  0.34351625  0.91379400  0.09895900  1
  H+  H207  1  0.97491038  0.36490461  0.17094777  1
  H+  H208  1  0.38176417  0.26364232  0.99354915  1
  H+  H209  1  0.63717439  0.78033593  0.65526102  1
  H+  H210  1  0.25799171  0.85655666  0.34058513  1
  H+  H211  1  0.12011155  0.38072581  1.01522217  1
  H+  H212  1  0.16610454  0.84486339  0.26054597  1
  H+  H213  1  0.13285014  0.78988441  0.16354580  1
  H+  H214  1  0.62438074  0.22135084  0.16101531  1
  H+  H215  1  0.68721704  0.36389795  0.80750127  1
  H+  H216  1  0.06675254  0.16037404  0.84306887  1
  H+  H217  1  0.76065059  0.63571044  0.69309838  1
  H+  H218  1  0.74992795  0.67624745  0.47233036  1
  H+  H219  1  0.14229667  0.29369058  0.19297905  1
  H+  H220  1  0.85867696  0.88839354  0.48199788  1
  H+  H221  1  0.27868892  0.88822218  0.68647188  1
  H+  H222  1  0.37207415  0.47876766  0.67909612  1
  H+  H223  1  -0.00578391  0.87950393  0.84096032  1
  H+  H224  1  0.58519179  0.67062411  0.76703407  1
  H+  H225  1  0.62631577  0.51661161  0.31724472  1
  H+  H226  1  0.53264518  0.88605351  0.00488881  1
  H+  H227  1  0.12065386  -0.01989984  0.66776487  1
  H+  H228  1  0.37015693  0.84909289  0.82538841  1
  H+  H229  1  0.16684403  0.76043527  0.83901456  1
  H+  H230  1  0.38303006  0.35435346  -0.00020367  1
  H+  H231  1  0.39177033  0.76303034  0.32389309  1
  H+  H232  1  0.03284946  0.38407654  0.01194513  1
  H+  H233  1  0.84519028  0.54288258  0.16006095  1
  H+  H234  1  0.47225412  0.10709116  0.65913343  1
  H+  H235  1  0.72714392  0.87104225  0.65327717  1
  H+  H236  1  0.58920511  0.40630415  0.09694650  1
  H+  H237  1  0.35944158  0.71579329  0.17017966  1
  H+  H238  1  0.89823987  0.63567115  0.48720023  1
  H+  H239  1  0.61231640  0.35085709  0.31600803  1
  H+  H240  1  0.75903994  0.66690357  0.98591255  1
  H+  H241  1  0.65404036  0.86052067  0.83198687  1
  H+  H242  1  0.85596801  0.95719417  0.83850775  1
  H+  H243  1  0.27745017  0.13734924  0.67000406  1
  H+  H244  1  0.47555758  0.62226151  1.00047054  1
  H+  H245  1  0.36426733  0.72704410  1.00077359  1
  H+  H246  1  0.37251973  0.24241650  0.49156111  1
  H+  H247  1  0.84443556  0.12424972  0.82433841  1
  H+  H248  1  0.16164628  0.71485481  0.43920397  1
  H+  H249  1  0.52485936  0.64343532  0.68150834  1
  H+  H250  1  0.41537429  0.82463621  0.23137156  1
  H+  H251  1  0.47066699  0.59570042  0.16872327  1
  H+  H252  1  0.81019604  0.68744113  0.85218914  1
  H+  H253  1  0.54845184  0.88451049  0.81362444  1
  H+  H254  1  0.86036174  0.22288321  0.15318921  1
  H+  H255  1  0.87298225  0.49071504  0.48842393  1
  H+  H256  1  0.87032238  0.86985340  0.84137933  1
  H+  H257  1  0.27869544  0.88647443  0.15508794  1
  H+  H258  1  1.00486175  0.86768766  1.00523255  1
  H+  H259  1  0.87575062  0.60103748  0.85348786  1
  H+  H260  1  0.27712304  0.39010625  0.67649735  1
  H+  H261  1  0.61386447  0.64397464  0.67773598  1
  H+  H262  1  0.90021212  0.37907335  0.67326265  1
  H+  H263  1  0.96270223  0.10419752  0.31860430  1
  H+  H264  1  0.64096724  0.35795672  0.17186658  1
  H+  H265  1  0.25164338  0.92994387  0.85504935  1
  H+  H266  1  0.64116509  1.02135753  0.83661785  1
  H+  H267  1  0.39808130  0.11646179  0.99217185  1
  H+  H268  1  0.06156784  0.14179241  0.38656192  1
  H+  H269  1  0.02039051  0.86913547  0.49271869  1
  H+  H270  1  0.24196686  0.38042615  0.85643458  1
  H+  H271  1  0.76133346  0.64779775  0.32379179  1
  H+  H272  1  0.51532566  0.88034507  0.33788022  1
  H+  H273  1  0.14708477  0.35234014  0.34359536  1
  H+  H274  1  0.62720792  0.60630886  0.31577905  1
  H+  H275  1  0.14875783  0.11972629  0.65797146  1
  H+  H276  1  0.36451165  0.01839292  0.50740965  1
  H+  H277  1  0.11224611  0.99109678  0.81868702  1
  H+  H278  1  0.61294994  0.13477138  0.66152306  1
  H+  H279  1  0.11910527  0.21355656  0.00027779  1
  H+  H280  1  0.59535364  0.45187029  0.00057553  1
  H+  H281  1  0.64512966  0.86378485  0.99606584  1
  H+  H282  1  0.39422753  0.86994697  0.67473744  1
  H+  H283  1  0.46777407  0.10346290  0.33195663  1
  H+  H284  1  0.86194026  0.23955558  0.67812057  1
  H+  H285  1  0.34585862  0.70697695  0.82741602  1
  H+  H286  1  0.61358648  0.72830923  0.00719890  1
  H+  H287  1  0.86785478  0.47114279  1.00826107  1
  H+  H288  1  0.22865351  0.61005681  0.66815597  1
  H+  H289  1  0.06779154  0.13173526  0.04371417  1
  H+  H290  1  0.73305233  0.36605481  0.17515340  1
  H+  H291  1  0.83012517  0.91312115  0.38713548  1
  H+  H292  1  0.33404441  0.16705513  0.76603947  1
  H+  H293  1  0.79745588  0.35415496  0.43029139  1
  H+  H294  1  0.91841869  0.84398558  0.59945452  1
  H+  H295  1  0.76772226  0.20915591  0.47218262  1
  H+  H296  1  0.33370030  0.63964773  0.39401234  1
  H+  H297  1  0.17490761  0.33252928  0.28100158  1
  H+  H298  1  0.13899842  0.11443401  0.31840977  1
  H+  H299  1  0.41005822  0.82591135  0.93416863  1
  H+  H300  1  0.17425671  0.57186535  0.93427434  1
  H+  H301  1  0.41971466  0.57317343  0.25928518  1
  H+  H302  1  0.81456989  0.14594793  0.40430965  1
  H+  H303  1  0.09615946  0.20945852  0.12283244  1
  H+  H304  1  0.58852606  0.91552811  0.06586532  1
  H+  H305  1  0.49072778  0.10880686  0.17454043  1
  H+  H306  1  0.84980056  0.65062992  0.32869914  1
  H+  H307  1  0.49311854  0.88811807  0.51369496  1
  H+  H308  1  0.62373377  0.76490335  0.17412676  1
  H+  H309  1  0.38885304  0.61222186  0.67553364  1
  H+  H310  1  0.08182936  0.92414526  0.39537128  1
  H+  H311  1  0.60491135  0.54513263  0.92203477  1
  H+  H312  1  0.93529631  0.85456809  0.22233698  1
  H+  H313  1  0.58327175  0.66226648  0.38870219  1
  H+  H314  1  0.58862712  0.16387260  0.75862070  1
  H+  H315  1  0.88867958  0.26157383  0.52842396  1
  H+  H316  1  0.58020980  0.65965549  0.10147336  1
  H+  H317  1  0.42366045  0.58464871  0.61842530  1
  H+  H318  1  0.91553908  0.32358420  0.22819275  1
  H+  H319  1  0.52138251  0.88076756  0.15499887  1
  H+  H320  1  0.37012886  0.47998787  0.50840205  1
  H+  H321  1  0.53430519  0.89818802  0.67433640  1
  H+  H322  1  0.85874805  0.43137202  0.75814241  1
  H+  H323  1  0.13543643  0.16299481  0.49124398  1
  H+  H324  1  0.08825001  0.92279477  0.72794102  1
  H+  H325  1  0.63002563  0.31067865  0.58168325  1
  H+  H326  1  0.57003761  0.40471199  0.72855422  1
  H+  H327  1  0.80757229  0.70628667  0.41144725  1
  H+  H328  1  0.92644999  0.32929579  0.94119847  1
  H+  H329  1  0.17397142  0.09345123  0.59471318  1
  H+  H330  1  0.79301333  0.37733176  0.84420059  1
  H+  H331  1  0.57682603  0.91683073  0.39687653  1
  H+  H332  1  0.48624616  0.62550292  0.52563128  1
  H+  H333  1  0.63836463  0.01993171  0.99430423  1
  H+  H334  1  0.17213220  0.34789675  0.58225739  1
  H+  H335  1  0.51942129  0.12929445  -0.01016936  1
  H+  H336  1  0.60742279  0.92423000  0.75589177  1
  H+  H337  1  0.80893572  0.64936678  0.78385375  1
  H+  H338  1  0.65414197  0.46202809  0.46008429  1
  H+  H339  1  0.62107573  0.90202613  0.49227225  1
  H+  H340  1  0.39835678  0.07729402  0.56763117  1
  H+  H341  1  0.86857655  0.98245928  0.47916861  1
  H+  H342  1  0.88752211  0.78384543  0.30923502  1
  H+  H343  1  0.66684644  0.57379923  0.22565081  1
  H+  H344  1  0.67039789  0.07349416  0.22867836  1
  H+  H345  1  1.07263127  0.63495102  0.59965962  1
  H+  H346  1  0.91929643  0.58333293  0.94319627  1
  H+  H347  1  0.92336033  0.80640835  0.96911531  1
  H+  H348  1  0.57196895  0.40697127  0.38467297  1
  H+  H349  1  0.92309579  0.59300453  0.62102536  1
  H+  H350  1  0.69663209  0.57886733  0.84320241  1
  H+  H351  1  0.08166370  0.39957552  0.40507273  1
  H+  H352  1  0.42549910  0.84696859  0.61313693  1
  H+  H353  1  0.16135998  0.84302132  1.05112998  1
  H+  H354  1  0.12102275  0.73596420  0.67663634  1
  H+  H355  1  0.28975446  0.36983474  0.33087950  1
  H+  H356  1  0.98588807  0.35162777  0.84636031  1
  H+  H357  1  0.33354584  0.66334397  0.73564749  1
  H+  H358  1  0.08963486  0.40733984  0.77756180  1
  H+  H359  1  0.66325864  0.59151778  0.60817975  1
  H+  H360  1  0.42027348  0.59154457  0.93819706  1
  H+  H361  1  0.33981130  0.16921414  0.06256107  1
  H+  H362  1  0.17374693  0.32953190  0.94718710  1
  H+  H363  1  0.36636231  0.13786940  0.67337118  1
  H+  H364  1  0.41624623  0.07686827  0.27206642  1
  H+  H365  1  0.82660244  0.16963137  0.73180294  1
  H+  H366  1  0.92414602  0.34276246  0.61343882  1
  H+  H367  1  0.66251401  0.07733562  0.89817334  1
  H+  H368  1  0.69761494  0.10518758  0.55417528  1
  H+  H369  1  0.42563565  0.09265237  0.92781836  1
  H+  H370  1  0.17889368  0.09520418  0.23007484  1
  H+  H371  1  0.67054402  0.33043896  0.92824884  1
  H+  H372  1  0.11795493  0.18057791  0.74628981  1
  H+  H373  1  0.14345076  0.28748202  0.52332390  1
  H+  H374  1  0.66986734  0.82999510  0.93662454  1
  H+  H375  1  0.17265042  0.57512313  0.24157956  1
  H+  H376  1  0.91395865  0.08422140  0.22618713  1
  H+  H377  1  0.65346765  0.82841864  0.23051803  1
  H+  H378  1  0.32738023  0.41011119  0.07558707  1
  H+  H379  1  0.89632744  0.07022509  0.89777645  1
  H+  H380  1  0.83444779  0.42029916  0.10157835  1
  H+  H381  1  0.87656757  0.68589332  0.12894009  1
  H+  H382  1  0.33399308  0.19236323  0.39968024  1
  H+  H383  1  0.52738950  0.70209438  0.45244320  1
  O2-  O384  1  0.09062425  0.18983778  0.16471742  1
  O2-  O385  1  0.10407270  0.19345141  0.47653525  1
  O2-  O386  1  0.12168487  0.18392506  0.82236496  1
  O2-  O387  1  0.08432257  0.42387523  0.15102808  1
  O2-  O388  1  0.07073684  0.40002313  0.48215453  1
  O2-  O389  1  0.08582854  0.40407696  0.82309234  1
  O2-  O390  1  0.07244068  0.68321912  0.12295493  1
  O2-  O391  1  0.10843378  0.69451202  0.46212109  1
  O2-  O392  1  0.06017572  0.60038172  0.80350843  1
  O2-  O393  1  0.10158643  0.94653479  0.13571728  1
  O2-  O394  1  0.08094934  0.91526039  0.48249391  1
  O2-  O395  1  0.08429243  0.92923510  0.80724422  1
  O2-  O396  1  0.33517165  0.18633486  0.12685509  1
  O2-  O397  1  0.33578089  0.17986593  0.47954835  1
  O2-  O398  1  0.33388734  0.16846517  0.81161112  1
  O2-  O399  1  0.31316662  0.40542397  0.13886028  1
  O2-  O400  1  0.32872516  0.43575825  0.48043539  1
  O2-  O401  1  0.33194689  0.42506558  0.82847427  1
  O2-  O402  1  0.32489094  0.65304391  0.15875648  1
  O2-  O403  1  0.30918195  0.58720407  0.47126091  1
  O2-  O404  1  0.32600168  0.64832019  0.81198406  1
  O2-  O405  1  0.33921607  0.90674535  0.14366477  1
  O2-  O406  1  0.32836049  0.92023356  0.48302919  1
  O2-  O407  1  0.34012028  0.94864130  0.82394386  1
  O2-  O408  1  0.59460923  0.16322931  0.14309044  1
  O2-  O409  1  0.55442269  0.15103819  0.47837402  1
  O2-  O410  1  0.59141582  0.16932022  0.80415968  1
  O2-  O411  1  0.59095931  0.40895872  0.14208434  1
  O2-  O412  1  0.59679463  0.41205467  0.46270120  1
  O2-  O413  1  0.55466369  0.39238758  0.80827739  1
  O2-  O414  1  0.57791988  0.65357927  0.14657943  1
  O2-  O415  1  0.57184391  0.69484353  0.47246927  1
  O2-  O416  1  0.58448753  0.66774017  0.81305455  1
  O2-  O417  1  0.58123550  0.91099959  0.13928001  1
  O2-  O418  1  0.58889395  0.93069919  0.47801155  1
  O2-  O419  1  0.60868583  0.91918586  0.80228282  1
  O2-  O420  1  0.83545069  0.16323861  0.13784600  1
  O2-  O421  1  0.77877446  0.16183821  0.48394160  1
  O2-  O422  1  0.82555263  0.16485705  0.81087770  1
  O2-  O423  1  0.83455101  0.42894556  0.14630314  1
  O2-  O424  1  0.78431119  0.31831275  0.46743676  1
  O2-  O425  1  0.85311318  0.41452274  0.83151994  1
  O2-  O426  1  0.84491022  0.59436667  0.17545475  1
  O2-  O427  1  0.79818204  0.72556484  0.45224308  1
  O2-  O428  1  0.80478747  0.63751338  0.83079987  1
  O2-  O429  1  0.81172075  0.98462777  0.08573624  1
  O2-  O430  1  0.83083037  0.91970313  0.46767315  1
  O2-  O431  1  0.83227933  0.89447437  0.82692478  1
  O2-  O432  1  0.17452806  0.09789342  0.18456896  1
  O2-  O433  1  0.18150218  0.10952746  0.51340761  1
  O2-  O434  1  0.17928779  0.08723662  0.85496805  1
  O2-  O435  1  0.17208686  0.35514595  0.20572896  1
  O2-  O436  1  0.17136608  0.34817336  0.53656705  1
  O2-  O437  1  0.17949909  0.34300303  0.87133995  1
  O2-  O438  1  0.17705038  0.58215974  0.19450651  1
  O2-  O439  1  0.15113254  0.56825455  0.50002974  1
  O2-  O440  1  0.16997578  0.56724891  0.85885704  1
  O2-  O441  1  0.17044220  0.84926259  0.17763464  1
  O2-  O442  1  0.16850935  0.82681897  0.52603392  1
  O2-  O443  1  0.19721269  0.92055236  0.87655553  1
  O2-  O444  1  0.43122572  0.07929308  0.19122258  1
  O2-  O445  1  0.39370244  0.07956714  0.52267520  1
  O2-  O446  1  0.42540740  0.10295182  0.85361498  1
  O2-  O447  1  0.42466717  0.34063683  0.17756963  1
  O2-  O448  1  0.42229075  0.34504088  0.50388013  1
  O2-  O449  1  0.40446450  0.32713648  0.85792089  1
  O2-  O450  1  0.41070292  0.56750647  0.18510235  1
  O2-  O451  1  0.42963807  0.58747388  0.54422541  1
  O2-  O452  1  0.42520717  0.59269864  0.86348287  1
  O2-  O453  1  0.41355121  0.81934456  0.18602386  1
  O2-  O454  1  0.43408234  0.85772258  0.53259865  1
  O2-  O455  1  0.35676039  0.80359626  0.85564333  1
  O2-  O456  1  0.67625492  0.07505425  0.18355444  1
  O2-  O457  1  0.69390731  0.09870500  0.50865569  1
  O2-  O458  1  0.66328603  0.08049622  0.85256997  1
  O2-  O459  1  0.67281985  0.33118059  0.19033176  1
  O2-  O460  1  0.63262472  0.30211370  0.51238358  1
  O2-  O461  1  0.66991267  0.32642245  0.84300047  1
  O2-  O462  1  0.67430187  0.57435356  0.18034940  1
  O2-  O463  1  0.65014868  0.60219502  0.52305405  1
  O2-  O464  1  0.63368456  0.55460877  0.84981828  1
  O2-  O465  1  0.65033153  0.82600671  0.18557971  1
  O2-  O466  1  0.67104804  0.84557117  0.51623260  1
  O2-  O467  1  0.67735327  0.82642198  0.85187481  1
  O2-  O468  1  0.92994920  0.09377932  0.18245196  1
  O2-  O469  1  0.91712961  0.08436322  0.49486410  1
  O2-  O470  1  0.88221558  0.05481220  0.85151612  1
  O2-  O471  1  0.91355364  0.33261991  0.18409927  1
  O2-  O472  1  0.91831467  0.32321914  0.53739060  1
  O2-  O473  1  0.92503595  0.32493640  0.86206125  1
  O2-  O474  1  1.01813188  0.61429734  0.14709133  1
  O2-  O475  1  1.04215484  0.59891801  0.56462102  1
  O2-  O476  1  0.91452302  0.58061311  0.86859138  1
  O2-  O477  1  0.94160471  0.86373150  0.17649967  1
  O2-  O478  1  0.92847970  0.79925486  0.52302424  1
  O2-  O479  1  0.93436043  0.83883974  0.85827570  1
  O2-  O480  1  0.17745222  0.09225510  0.30601792  1
  O2-  O481  1  0.17437171  0.08732239  0.63961890  1
  O2-  O482  1  0.16632824  0.05541216  0.97802748  1
  O2-  O483  1  0.17428608  0.32000622  0.32570255  1
  O2-  O484  1  0.17630227  0.34516077  0.65794665  1
  O2-  O485  1  0.16917750  0.31943153  0.99238243  1
  O2-  O486  1  0.17121791  0.56813367  0.31012622  1
  O2-  O487  1  0.16655437  0.57466574  0.65856148  1
  O2-  O488  1  0.17928766  0.57859180  0.97996015  1
  O2-  O489  1  0.16255967  0.84001904  0.30540318  1
  O2-  O490  1  0.17575250  0.83643153  0.65013584  1
  O2-  O491  1  0.17654800  0.84503951  1.00836795  1
  O2-  O492  1  0.40849301  0.07367314  0.31694258  1
  O2-  O493  1  0.41022245  0.07907510  0.64823194  1
  O2-  O494  1  0.42908758  0.08771946  0.97364203  1
  O2-  O495  1  0.39575844  0.37236305  0.35813680  1
  O2-  O496  1  0.40561521  0.33352390  0.65339060  1
  O2-  O497  1  0.41301173  0.32552167  0.98048854  1
  O2-  O498  1  0.42243141  0.57297947  0.30536540  1
  O2-  O499  1  0.42073241  0.58145906  0.66402169  1
  O2-  O500  1  0.41485357  0.59002367  0.98398404  1
  O2-  O501  1  0.41647232  0.82347387  0.31049120  1
  O2-  O502  1  0.42547608  0.84120052  0.65817990  1
  O2-  O503  1  0.41642651  0.82610387  0.97865463  1
  O2-  O504  1  0.66085637  0.07647906  0.30794857  1
  O2-  O505  1  0.67304145  0.09255375  0.63195835  1
  O2-  O506  1  0.66608755  0.08001637  0.97675018  1
  O2-  O507  1  0.65104381  0.32720822  0.30908583  1
  O2-  O508  1  0.63871154  0.32098889  0.62824586  1
  O2-  O509  1  0.66817655  0.32386430  0.97278344  1
  O2-  O510  1  0.65861503  0.57681182  0.30138648  1
  O2-  O511  1  0.66108503  0.58611547  0.65296204  1
  O2-  O512  1  0.58205700  0.53532056  0.96496797  1
  O2-  O513  1  0.66290710  0.83314978  0.31201718  1
  O2-  O514  1  0.66519252  0.83877969  0.63696983  1
  O2-  O515  1  0.67062802  0.82862945  0.98145029  1
  O2-  O516  1  0.90127934  0.07657737  0.30673275  1
  O2-  O517  1  0.88725426  0.09308320  0.61951765  1
  O2-  O518  1  0.91284770  0.08632457  0.96392103  1
  O2-  O519  1  0.92595005  0.30839719  0.31316653  1
  O2-  O520  1  0.92527669  0.34411596  0.65906947  1
  O2-  O521  1  0.92648219  0.32993028  0.98654456  1
  O2-  O522  1  0.88901500  0.59228022  0.30081789  1
  O2-  O523  1  0.91616502  0.59831240  0.66470775  1
  O2-  O524  1  0.92644825  0.57916407  0.98848098  1
  O2-  O525  1  0.92368060  0.84538228  0.29609932  1
  O2-  O526  1  0.91984222  0.86247081  0.64164546  1
  O2-  O527  1  0.95876046  0.80747712  1.00310556  1
  O2-  O528  1  0.08379488  0.14816165  0.00145340  1
  O2-  O529  1  0.07029803  0.15247160  0.34284568  1
  O2-  O530  1  0.10935975  0.17840395  0.70090640  1
  O2-  O531  1  0.09355547  0.41598942  0.02688142  1
  O2-  O532  1  0.09072253  0.40037418  0.36005156  1
  O2-  O533  1  0.09152229  0.41782182  0.70089365  1
  O2-  O534  1  0.10462554  0.68484239  -0.02264604  1
  O2-  O535  1  0.02525552  0.69717509  0.35941003  1
  O2-  O536  1  0.08845338  0.67321643  0.68798092  1
  O2-  O537  1  0.11592396  0.96915338  0.00530977  1
  O2-  O538  1  0.08523882  0.92928741  0.35080084  1
  O2-  O539  1  0.08901428  0.91984584  0.68258747  1
  O2-  O540  1  0.34208278  0.16026394  0.01539478  1
  O2-  O541  1  0.33293293  0.21238916  0.35786382  1
  O2-  O542  1  0.33608803  0.16877012  0.68820047  1
  O2-  O543  1  0.33440549  0.40791037  0.02624773  1
  O2-  O544  1  0.35061520  0.40025549  0.31668924  1
  O2-  O545  1  0.33956313  0.41490157  0.68792922  1
  O2-  O546  1  0.33465551  0.66423336  0.01356733  1
  O2-  O547  1  0.33890299  0.65177104  0.34990370  1
  O2-  O548  1  0.33800952  0.66679243  0.69021717  1
  O2-  O549  1  0.34962010  0.92051506  0.01644613  1
  O2-  O550  1  0.30393236  0.85265288  0.36276763  1
  O2-  O551  1  0.33895916  0.91950552  0.70177683  1
  O2-  O552  1  0.58497828  0.15990417  0.00228622  1
  O2-  O553  1  0.58619715  0.16355854  0.35880873  1
  O2-  O554  1  0.58058940  0.16057600  0.68107404  1
  O2-  O555  1  0.57832901  0.39399164  0.01688876  1
  O2-  O556  1  0.56418809  0.41142013  0.34034226  1
  O2-  O557  1  0.57330316  0.41418200  0.68371449  1
  O2-  O558  1  0.57582282  0.66785320  0.02275978  1
  O2-  O559  1  0.58248586  0.66238020  0.34403423  1
  O2-  O560  1  0.58740577  0.67804033  0.69254197  1
  O2-  O561  1  0.59242432  0.91870914  0.01950989  1
  O2-  O562  1  0.57706955  0.91230442  0.35189143  1
  O2-  O563  1  0.59742121  0.92950830  0.68339652  1
  O2-  O564  1  0.82969490  0.15914596  0.01585759  1
  O2-  O565  1  0.82367744  0.15228964  0.35991294  1
  O2-  O566  1  0.82755279  0.17635513  0.68663738  1
  O2-  O567  1  0.83750099  0.40984938  0.02156575  1
  O2-  O568  1  0.80164845  0.41680701  0.35996806  1
  O2-  O569  1  0.85410118  0.43708894  0.71254830  1
  O2-  O570  1  0.87885282  0.73825185  0.11164718  1
  O2-  O571  1  0.82108547  0.68498532  0.33930149  1
  O2-  O572  1  0.81511898  0.66164165  0.71655666  1
  O2-  O573  1  0.84988496  0.91449107  0.01178513  1
  O2-  O574  1  0.82947857  0.91233207  0.34188523  1
  O2-  O575  1  0.82081475  0.92802935  0.67657115  1
