# generated using pymatgen
data_H2O
_symmetry_space_group_name_H-M   'P 1'
_cell_length_a   17.99073244
_cell_length_b   17.99365584
_cell_length_c   22.00205865
_cell_angle_alpha   89.99490018
_cell_angle_beta   89.99673811
_cell_angle_gamma   119.98260741
_symmetry_Int_Tables_number   1
_chemical_formula_structural   H2O
_chemical_formula_sum   'H384 O192'
_cell_volume   6169.33405190
_cell_formula_units_Z   192
loop_
 _symmetry_equiv_pos_site_id
 _symmetry_equiv_pos_as_xyz
  1  'x, y, z'
loop_
 _atom_type_symbol
 _atom_type_oxidation_number
  H+  1.0
  O2-  -2.0
loop_
 _atom_site_type_symbol
 _atom_site_label
 _atom_site_symmetry_multiplicity
 _atom_site_fract_x
 _atom_site_fract_y
 _atom_site_fract_z
 _atom_site_occupancy
  H+  H0  1  0.61775141  0.23931779  0.67150476  1
  H+  H1  1  0.87238550  0.47726740  0.81195540  1
  H+  H2  1  1.04917725  0.66136860  0.48954613  1
  H+  H3  1  0.23549344  0.11499605  0.98917002  1
  H+  H4  1  0.51346731  0.39517485  0.34746865  1
  H+  H5  1  0.87690424  0.26401604  0.50709940  1
  H+  H6  1  0.20732076  0.60426428  0.17169654  1
  H+  H7  1  0.53813575  0.92863692  0.70637447  1
  H+  H8  1  0.92074319  0.79394037  0.99683816  1
  H+  H9  1  0.20806131  0.80647938  0.48658583  1
  H+  H10  1  0.87887500  0.52183595  0.64835612  1
  H+  H11  1  0.76548964  0.65391397  0.97563107  1
  H+  H12  1  0.88953045  0.72349404  0.82869424  1
  H+  H13  1  0.02519841  0.38211546  0.66577782  1
  H+  H14  1  0.14413080  0.78215458  0.32777342  1
  H+  H15  1  0.85076509  0.96214832  0.14854899  1
  H+  H16  1  0.25725893  0.37669974  0.02301440  1
  H+  H17  1  0.56708461  0.31078293  0.14848854  1
  H+  H18  1  0.39311888  0.26573908  0.98457705  1
  H+  H19  1  0.39136155  1.02345741  0.01002146  1
  H+  H20  1  0.96732790  0.48732375  0.39689265  1
  H+  H21  1  0.76863536  0.13185805  0.34515518  1
  H+  H22  1  0.39277727  0.51425157  0.65955609  1
  H+  H23  1  0.36547484  0.62395912  0.67116015  1
  H+  H24  1  0.64544224  0.01570388  0.99940626  1
  H+  H25  1  0.90964073  0.36062442  0.35161175  1
  H+  H26  1  0.42433351  0.10640458  0.55904081  1
  H+  H27  1  0.17200463  0.58310009  0.55859322  1
  H+  H28  1  0.61125397  0.89013337  0.33684223  1
  H+  H29  1  0.37490001  0.36846063  0.33313889  1
  H+  H30  1  0.39756865  0.03320998  0.85237772  1
  H+  H31  1  0.23823307  0.11307200  0.17283051  1
  H+  H32  1  0.08729502  0.23565770  0.18261527  1
  H+  H33  1  0.13668979  0.86069549  0.17444488  1
  H+  H34  1  0.47408796  0.61433598  0.33026732  1
  H+  H35  1  0.63751969  0.61762960  0.17996938  1
  H+  H36  1  0.14511020  0.87174738  0.32982434  1
  H+  H37  1  0.69551928  0.90068969  0.83864697  1
  H+  H38  1  0.90273584  0.11845500  0.82071090  1
  H+  H39  1  0.34407074  0.08807026  0.35706772  1
  H+  H40  1  0.86535572  0.85416836  0.65353542  1
  H+  H41  1  0.48110226  0.35803986  0.65132322  1
  H+  H42  1  0.86321430  0.38840700  0.65727463  1
  H+  H43  1  0.63200959  -0.01740585  0.16101858  1
  H+  H44  1  0.10254310  0.62964201  0.16618634  1
  H+  H45  1  0.14629474  0.49185564  0.98074951  1
  H+  H46  1  1.03291779  0.64528509  0.33209665  1
  H+  H47  1  0.16776501  0.83638324  0.23604245  1
  H+  H48  1  0.16419533  0.13411618  0.60113784  1
  H+  H49  1  0.33756296  0.89732198  0.39549842  1
  H+  H50  1  0.96087813  0.70650803  0.04167413  1
  H+  H51  1  0.12720216  0.91669620  0.79729538  1
  H+  H52  1  0.63827609  0.52715397  0.51254618  1
  H+  H53  1  0.35136217  0.63930798  0.82247891  1
  H+  H54  1  0.10206960  0.37682324  0.01162846  1
  H+  H55  1  0.75928001  0.33127603  0.32386266  1
  H+  H56  1  0.87818992  0.52760925  0.16826668  1
  H+  H57  1  0.12453354  0.51300580  0.32511293  1
  H+  H58  1  0.35794146  0.13004375  0.01391690  1
  H+  H59  1  0.97551662  0.11867245  0.51662728  1
  H+  H60  1  0.26086726  0.03842496  0.39764336  1
  H+  H61  1  0.63760381  0.12196719  0.66379102  1
  H+  H62  1  0.57434796  0.70050878  0.77360097  1
  H+  H63  1  0.48474279  0.84662447  0.63915890  1
  H+  H64  1  0.23223877  0.85244137  -0.01106605  1
  H+  H65  1  0.34785614  0.12572038  0.17019064  1
  H+  H66  1  0.02156264  0.63359834  0.82514025  1
  H+  H67  1  0.62099160  0.64540226  0.49445645  1
  H+  H68  1  0.74929365  0.87761253  0.67091815  1
  H+  H69  1  0.62236009  0.97918684  0.49589186  1
  H+  H70  1  0.63478915  0.77989998  0.32885008  1
  H+  H71  1  0.14344648  0.02110087  0.98751761  1
  H+  H72  1  0.89852041  0.52758511  0.50565351  1
  H+  H73  1  0.75369558  0.68590682  -0.01272560  1
  H+  H74  1  0.86484862  0.22752961  0.00691460  1
  H+  H75  1  0.72608531  0.36832071  0.64852351  1
  H+  H76  1  0.64508010  0.53155077  0.82946957  1
  H+  H77  1  0.88704801  0.20533026  0.17317465  1
  H+  H78  1  0.88626816  0.77077336  0.50500110  1
  H+  H79  1  0.12747022  0.27343223  1.00855534  1
  H+  H80  1  0.85883282  0.38081407  0.50092229  1
  H+  H81  1  1.00224267  0.35021042  0.37595062  1
  H+  H82  1  0.45070032  0.33074158  0.17221396  1
  H+  H83  1  0.61816378  0.39738080  0.80835127  1
  H+  H84  1  0.49801474  0.37675357  0.49204468  1
  H+  H85  1  0.83687414  0.96700300  0.66851315  1
  H+  H86  1  0.12895865  0.02047226  0.32670103  1
  H+  H87  1  0.61112895  0.22324940  0.49028484  1
  H+  H88  1  0.36621114  0.37635555  0.66817837  1
  H+  H89  1  0.11297807  0.63768680  0.82846733  1
  H+  H90  1  0.64513801  0.53323292  0.18026385  1
  H+  H91  1  0.86569956  0.64161035  0.16680210  1
  H+  H92  1  0.88566628  0.27949132  0.65594392  1
  H+  H93  1  0.42744493  0.84846409  0.83547302  1
  H+  H94  1  0.39095508  0.61472574  0.18125050  1
  H+  H95  1  0.63953010  0.61999771  0.66409173  1
  H+  H96  1  0.02830402  0.14642441  1.02916258  1
  H+  H97  1  0.34420839  0.21618252  0.16771848  1
  H+  H98  1  0.77924071  0.64625364  0.16282314  1
  H+  H99  1  0.46040470  0.36368305  -0.00891596  1
  H+  H100  1  0.16333395  0.82746966  0.93540639  1
  H+  H101  1  0.26625156  0.61993870  0.48796378  1
  H+  H102  1  0.00503451  0.39072727  0.15601323  1
  H+  H103  1  0.12927844  0.13063262  0.50701716  1
  H+  H104  1  0.39314846  0.07613673  0.24222342  1
  H+  H105  1  0.58392686  0.42052143  0.72095263  1
  H+  H106  1  0.37874067  0.28199996  0.33825776  1
  H+  H107  1  0.77806978  0.62996913  0.49998934  1
  H+  H108  1  0.14027543  0.82429498  0.65705441  1
  H+  H109  1  0.72503856  0.86795323  0.32779679  1
  H+  H110  1  0.76841266  0.86990864  0.15803141  1
  H+  H111  1  0.35894238  0.48053094  0.33945457  1
  H+  H112  1  0.72838651  0.61798801  0.66282838  1
  H+  H113  1  0.42348423  0.57963587  0.60271573  1
  H+  H114  1  0.90451739  0.82875292  0.59684927  1
  H+  H115  1  0.38065580  0.60929981  0.32753593  1
  H+  H116  1  0.46705868  0.10045348  0.33175572  1
  H+  H117  1  0.52973145  0.40005581  0.81367198  1
  H+  H118  1  0.58740814  0.92036584  0.43646524  1
  H+  H119  1  0.59393738  0.56515891  0.98812219  1
  H+  H120  1  0.88885249  0.60795795  0.83063244  1
  H+  H121  1  0.90733750  1.03019897  0.81761870  1
  H+  H122  1  0.52475846  0.63197111  0.67831613  1
  H+  H123  1  0.65357322  0.24923169  0.17506761  1
  H+  H124  1  0.89243751  0.78545743  0.32459910  1
  H+  H125  1  0.13178870  0.27522719  0.84412239  1
  H+  H126  1  0.33952530  0.84652281  0.62338601  1
  H+  H127  1  0.35919445  0.16634582  0.51474487  1
  H+  H128  1  0.87875029  0.38514311  0.15614873  1
  H+  H129  1  0.66595135  0.83046948  0.23257222  1
  H+  H130  1  0.88524711  0.61084809  0.98444262  1
  H+  H131  1  0.76603486  0.37479295  0.99164202  1
  H+  H132  1  0.89523503  0.78009807  0.17407077  1
  H+  H133  1  0.36584018  0.74473576  0.49038321  1
  H+  H134  1  0.47083712  0.00923771  0.55878155  1
  H+  H135  1  0.77679514  0.89134095  0.49433979  1
  H+  H136  1  0.64907449  0.28983570  0.84068041  1
  H+  H137  1  0.76444743  0.39090355  0.15091885  1
  H+  H138  1  0.38795325  0.28180911  0.49335785  1
  H+  H139  1  0.14579805  0.03912635  0.83528367  1
  H+  H140  1  0.34156624  0.69806848  0.00475902  1
  H+  H141  1  0.72984125  0.11156896  1.00405818  1
  H+  H142  1  0.60468701  0.72554281  0.67609870  1
  H+  H143  1  0.59677001  0.15756996  0.10748213  1
  H+  H144  1  0.36758366  0.89435693  0.16972098  1
  H+  H145  1  0.31805909  1.04250024  0.69910849  1
  H+  H146  1  1.02347892  0.89693915  0.49209351  1
  H+  H147  1  0.63457740  0.13008613  0.16428796  1
  H+  H148  1  0.00234158  0.86436724  0.83675855  1
  H+  H149  1  0.88377549  0.01941939  0.32259084  1
  H+  H150  1  0.53564519  0.12345678  0.49030739  1
  H+  H151  1  0.76630047  0.14761763  0.67388665  1
  H+  H152  1  0.32659993  0.65025306  0.39313079  1
  H+  H153  1  0.30661753  0.40081898  0.08646336  1
  H+  H154  1  0.27076884  0.88136162  0.16520748  1
  H+  H155  1  1.01700478  0.38579690  1.00460746  1
  H+  H156  1  0.88231517  0.85872491  0.50313009  1
  H+  H157  1  0.40891273  0.79766375  0.18506675  1
  H+  H158  1  0.61391043  0.20803752  0.01397761  1
  H+  H159  1  0.85591817  0.12794648  0.34269085  1
  H+  H160  1  0.39867755  0.52933652  0.50693549  1
  H+  H161  1  0.13072683  0.27405749  0.33746354  1
  H+  H162  1  1.02245736  0.13636603  0.33415234  1
  H+  H163  1  0.79138413  0.35241873  0.29855605  1
  H+  H164  1  0.39984201  0.29971190  0.82802126  1
  H+  H165  1  0.10435577  0.36267433  0.37786379  1
  H+  H166  1  0.59057213  0.34375332  0.31389381  1
  H+  H167  1  0.39509969  0.37891874  0.49473154  1
  H+  H168  1  0.60665461  0.48069717  0.34451521  1
  H+  H169  1  0.14854234  0.27375862  0.64850717  1
  H+  H170  1  0.58155330  0.21455399  0.32937198  1
  H+  H171  1  0.10638481  0.16292627  0.76102045  1
  H+  H172  1  0.32856301  0.88152354  0.62612805  1
  H+  H173  1  0.03419656  0.13946273  0.81239036  1
  H+  H174  1  0.22066349  0.50117293  0.93777625  1
  H+  H175  1  0.45943509  0.88767059  0.33872378  1
  H+  H176  1  0.63822757  0.89303434  0.00300179  1
  H+  H177  1  0.61918141  0.88795545  0.16161335  1
  H+  H178  1  0.90623464  0.07156832  0.10052530  1
  H+  H179  1  0.83197891  0.17649620  0.76799118  1
  H+  H180  1  0.38828487  0.55137254  0.83529432  1
  H+  H181  1  0.08376521  0.92667287  0.40074899  1
  H+  H182  1  0.96916637  0.60263058  0.65835753  1
  H+  H183  1  0.66031889  0.33432670  0.56044913  1
  H+  H184  1  0.27965226  0.62991579  0.66323520  1
  H+  H185  1  0.14303124  0.12638542  0.84084677  1
  H+  H186  1  0.64435821  0.11594361  0.50858153  1
  H+  H187  1  1.11170166  0.23826823  0.48927799  1
  H+  H188  1  0.02721757  0.89044278  0.15831520  1
  H+  H189  1  0.10042811  0.92050406  0.66268927  1
  H+  H190  1  0.86718713  0.97809721  0.49688973  1
  H+  H191  1  0.89099779  0.86657912  0.17105493  1
  H+  H192  1  0.62894234  0.33442614  0.98017903  1
  H+  H193  1  0.38621773  0.59268529  1.01586546  1
  H+  H194  1  0.86654144  0.89240525  0.33765060  1
  H+  H195  1  0.61225454  0.11880650  0.01385972  1
  H+  H196  1  0.28655181  0.16516230  0.82762368  1
  H+  H197  1  0.36044152  0.62597851  0.48993749  1
  H+  H198  1  0.86336279  0.63831584  0.66981187  1
  H+  H199  1  0.09751748  0.73591229  0.01771807  1
  H+  H200  1  0.15068715  0.62307159  0.50100167  1
  H+  H201  1  0.03822275  0.89953449  0.00251399  1
  H+  H202  1  0.40110548  -0.01713538  0.50714733  1
  H+  H203  1  0.27339027  0.60098677  0.00703084  1
  H+  H204  1  0.34226512  0.37801958  0.17895648  1
  H+  H205  1  0.13935553  0.59634327  0.65910437  1
  H+  H206  1  0.26790248  0.61997533  0.33400637  1
  H+  H207  1  0.24938992  0.90080748  0.83638233  1
  H+  H208  1  0.36382760  0.19994837  0.66735196  1
  H+  H209  1  0.89028193  0.36411079  0.83072605  1
  H+  H210  1  0.07372729  0.81578953  0.86650769  1
  H+  H211  1  0.71824838  0.61710945  0.33613683  1
  H+  H212  1  0.12382449  0.35874045  0.84449674  1
  H+  H213  1  0.46551468  0.20258409  0.58181009  1
  H+  H214  1  0.95195381  0.09698952  0.67729850  1
  H+  H215  1  0.28053160  0.38266055  0.66820658  1
  H+  H216  1  0.14498600  0.51258765  0.65300795  1
  H+  H217  1  0.21932557  0.13372843  0.51184706  1
  H+  H218  1  0.85304923  0.14428601  0.67671566  1
  H+  H219  1  0.38647558  0.00410400  0.33071256  1
  H+  H220  1  0.13888313  0.36311885  0.49531426  1
  H+  H221  1  0.43459930  0.93822455  0.04251987  1
  H+  H222  1  0.62084611  0.73458094  0.49379073  1
  H+  H223  1  0.08541026  0.04579278  0.67302898  1
  H+  H224  1  0.28371703  0.39750958  0.49438963  1
  H+  H225  1  0.63483373  0.16160902  0.86683420  1
  H+  H226  1  0.26562545  0.14486155  0.67701095  1
  H+  H227  1  0.11224690  0.13799591  0.33664035  1
  H+  H228  1  0.71994757  0.36303086  0.50159525  1
  H+  H229  1  0.87005272  0.29239549  0.15861245  1
  H+  H230  1  0.88469858  0.11288129  0.51906681  1
  H+  H231  1  0.67032009  0.58930498  0.57056752  1
  H+  H232  1  0.37605051  0.49777218  0.02084319  1
  H+  H233  1  0.63780837  0.37190703  0.65058645  1
  H+  H234  1  0.21877782  0.61190792  0.82746090  1
  H+  H235  1  0.61555685  0.76645505  0.82827281  1
  H+  H236  1  0.47757077  0.11180455  1.00939289  1
  H+  H237  1  0.52355779  0.62957902  0.17088890  1
  H+  H238  1  0.34545629  0.75586053  0.82515467  1
  H+  H239  1  0.32655336  0.88464309  0.82550373  1
  H+  H240  1  0.61103183  0.45683835  0.99857873  1
  H+  H241  1  0.36781187  1.02077388  0.18105255  1
  H+  H242  1  0.90416060  0.87390667  0.98661693  1
  H+  H243  1  0.12702773  0.89699691  0.00608084  1
  H+  H244  1  0.59263862  0.68998164  0.01987755  1
  H+  H245  1  0.61621948  0.87151126  0.66533758  1
  H+  H246  1  0.41077818  0.74803382  0.64098805  1
  H+  H247  1  0.35310366  0.84888196  0.49103519  1
  H+  H248  1  0.10565141  -0.01014892  0.49371130  1
  H+  H249  1  0.13753599  0.35674038  0.65819573  1
  H+  H250  1  0.02147042  0.53893224  0.71289644  1
  H+  H251  1  0.11803537  0.63884004  0.33209793  1
  H+  H252  1  0.02086264  0.38817970  0.81984563  1
  H+  H253  1  0.70693353  0.86194340  0.90273028  1
  H+  H254  1  0.66136060  0.04607991  0.84559497  1
  H+  H255  1  0.35299838  0.82984636  0.99052294  1
  H+  H256  1  0.76840971  0.12723163  0.50338724  1
  H+  H257  1  0.97247108  0.61270737  0.17468683  1
  H+  H258  1  0.52206457  0.47582379  0.12176332  1
  H+  H259  1  0.78601775  0.14798179  0.83348802  1
  H+  H260  1  0.55289580  0.35256655  0.09036949  1
  H+  H261  1  0.91597339  0.58134104  0.26192097  1
  H+  H262  1  0.11835123  0.37322104  0.18854087  1
  H+  H263  1  0.64395887  0.87006990  0.50170554  1
  H+  H264  1  0.10867946  0.72283534  0.17054400  1
  H+  H265  1  1.00543234  0.14544415  0.16423297  1
  H+  H266  1  0.63791137  0.03079391  0.66701541  1
  H+  H267  1  0.55898968  0.48556012  0.10106406  1
  H+  H268  1  0.35073563  0.47083161  0.17874863  1
  H+  H269  1  0.63230318  0.02826628  0.32585322  1
  H+  H270  1  0.87005071  0.63236806  0.49344209  1
  H+  H271  1  0.60932451  0.64193041  0.34057988  1
  H+  H272  1  0.58498604  0.90411207  0.82489611  1
  H+  H273  1  0.21998918  0.10075446  0.33105730  1
  H+  H274  1  0.63601308  0.11854297  0.32423253  1
  H+  H275  1  0.61327991  0.48148514  0.66285265  1
  H+  H276  1  0.75105935  0.12495717  0.17455527  1
  H+  H277  1  0.11782545  0.51218640  0.17038291  1
  H+  H278  1  0.67058398  0.79314067  0.97255653  1
  H+  H279  1  0.88346994  0.36270933  0.98739048  1
  H+  H280  1  0.15052359  0.32692907  0.94467827  1
  H+  H281  1  0.80892527  0.89664072  0.82638441  1
  H+  H282  1  0.21959088  0.91885542  0.66767267  1
  H+  H283  1  0.78831205  0.73079270  0.38387145  1
  H+  H284  1  0.38756939  0.42215855  0.82472861  1
  H+  H285  1  0.63339637  0.76598756  0.17573121  1
  H+  H286  1  0.66486872  0.83798926  0.56326858  1
  H+  H287  1  0.28887997  0.87701060  0.33299908  1
  H+  H288  1  0.84369154  0.67039206  0.76751671  1
  H+  H289  1  0.56014533  0.79540938  0.62434859  1
  H+  H290  1  0.41537062  0.80816763  0.54690517  1
  H+  H291  1  0.60769140  0.38108279  0.49212216  1
  H+  H292  1  0.33922548  0.42645306  0.43318142  1
  H+  H293  1  0.78063409  0.88451645  -0.00664018  1
  H+  H294  1  0.13803296  0.01420939  0.17487175  1
  H+  H295  1  0.40739811  0.32402795  0.23774294  1
  H+  H296  1  0.10070587  0.68181695  0.42792877  1
  H+  H297  1  0.60220688  0.91615305  1.06296601  1
  H+  H298  1  0.17663569  0.34881380  0.55924691  1
  H+  H299  1  0.06847852  0.63194062  0.73985096  1
  H+  H300  1  0.29309449  0.72591917  0.13459560  1
  H+  H301  1  0.91057939  0.08420836  0.61137096  1
  H+  H302  1  0.35238823  0.91701120  0.08090625  1
  H+  H303  1  0.42325636  0.08163657  0.91575663  1
  H+  H304  1  0.31943736  0.16050675  0.06746919  1
  H+  H305  1  0.68561359  0.08676198  0.23366858  1
  H+  H306  1  0.15135579  0.56667977  0.26289127  1
  H+  H307  1  0.14834275  0.34536610  0.28729873  1
  H+  H308  1  0.85030547  0.46992260  -0.00726817  1
  H+  H309  1  0.86109341  0.72651949  0.67150908  1
  H+  H310  1  0.83782378  0.89862468  0.05599165  1
  H+  H311  1  0.91950971  0.33404371  0.59375792  1
  H+  H312  1  0.91540094  0.57454633  0.88978819  1
  H+  H313  1  0.58423308  0.67454097  0.40047988  1
  H+  H314  1  0.57907443  0.64968229  0.10954127  1
  H+  H315  1  0.46282115  0.64968500  0.84088014  1
  H+  H316  1  0.41768498  0.58472956  0.24207164  1
  H+  H317  1  0.88878152  0.25980802  0.35128096  1
  H+  H318  1  0.58047402  0.41787038  0.43135560  1
  H+  H319  1  0.72665630  0.30835421  0.22350869  1
  H+  H320  1  0.68324589  0.09061015  0.91145054  1
  H+  H321  1  0.50105039  0.60043742  0.02566754  1
  H+  H322  1  0.35391767  0.79309556  0.92477171  1
  H+  H323  1  0.17301893  0.08618157  0.92154195  1
  H+  H324  1  0.31350786  0.66408612  0.09722997  1
  H+  H325  1  0.32662907  0.15869296  0.44455594  1
  H+  H326  1  0.61729893  0.30839414  0.25575146  1
  H+  H327  1  0.07677877  0.17577247  0.43144531  1
  H+  H328  1  0.42007082  0.32772364  0.59376885  1
  H+  H329  1  0.83714895  0.92188081  0.39823080  1
  H+  H330  1  0.67347390  0.44528619  0.04430321  1
  H+  H331  1  0.07206269  0.41461144  0.10044287  1
  H+  H332  1  0.96868106  0.34424907  0.49485127  1
  H+  H333  1  0.92931257  0.59178012  0.56093406  1
  H+  H334  1  0.07849339  0.94434160  0.75011284  1
  H+  H335  1  0.83463914  0.41752117  0.71713761  1
  H+  H336  1  0.00199643  0.90022217  0.66555771  1
  H+  H337  1  0.87495695  0.69159941  0.07418399  1
  H+  H338  1  0.10932687  0.47769715  0.81737209  1
  H+  H339  1  0.96665061  0.60542736  0.98908237  1
  H+  H340  1  0.84461828  0.42356310  0.44381335  1
  H+  H341  1  0.89221524  0.27590554  0.83603609  1
  H+  H342  1  0.83975556  0.18060233  0.07243086  1
  H+  H343  1  0.90880801  0.49729614  0.34895213  1
  H+  H344  1  0.88978410  0.61026994  0.32320648  1
  H+  H345  1  0.82596043  0.67756721  0.41222624  1
  H+  H346  1  0.90914295  0.07782018  0.26326172  1
  H+  H347  1  0.78243273  0.39118596  0.80839683  1
  H+  H348  1  0.09108855  0.92306488  0.10013956  1
  H+  H349  1  0.91726419  0.33567536  0.92876728  1
  H+  H350  1  0.26604287  0.39273543  0.34596376  1
  H+  H351  1  0.84689362  0.91415621  0.76077520  1
  H+  H352  1  0.16835955  0.57073128  0.88924424  1
  H+  H353  1  0.63207152  0.26371645  0.93255233  1
  H+  H354  1  0.66623193  0.58593865  0.27325498  1
  H+  H355  1  0.16855934  0.07652296  0.23741323  1
  H+  H356  1  0.53553727  0.15685460  0.69678257  1
  H+  H357  1  0.92378176  0.84206342  0.26308848  1
  H+  H358  1  0.06244436  0.67586955  0.07773672  1
  H+  H359  1  0.32146832  0.66325473  0.75751804  1
  H+  H360  1  0.66541347  0.08550897  0.57269675  1
  H+  H361  1  0.43852857  0.35068079  0.88853242  1
  H+  H362  1  0.95917529  0.82932051  0.90244450  1
  H+  H363  1  1.02796611  0.89273090  0.33889108  1
  H+  H364  1  0.08254569  0.41056338  0.72686053  1
  H+  H365  1  0.31199544  0.96874483  0.74280429  1
  H+  H366  1  0.35183474  0.44058015  0.76524568  1
  H+  H367  1  0.62986988  0.54809042  0.92540778  1
  H+  H368  1  0.49330189  0.88514419  0.17145322  1
  H+  H369  1  0.11863714  0.76523664  0.84197494  1
  H+  H370  1  0.62494520  0.94947777  0.76087220  1
  H+  H371  1  0.58192609  0.16759086  0.39279826  1
  H+  H372  1  0.88761918  0.01661677  1.01395634  1
  H+  H373  1  0.54105127  0.15325810  0.86697943  1
  H+  H374  1  0.88215005  0.10574716  0.01747059  1
  H+  H375  1  0.33713295  0.18228707  0.76594880  1
  H+  H376  1  0.08763317  0.18770305  0.08577797  1
  H+  H377  1  0.20547130  0.36974801  0.19595348  1
  H+  H378  1  0.81713673  0.42566817  0.08710479  1
  H+  H379  1  0.48470787  0.62075184  0.50752823  1
  H+  H380  1  0.73375452  0.61365089  0.84503641  1
  H+  H381  1  0.69167696  0.37395392  0.87827127  1
  H+  H382  1  0.82723850  0.15285080  0.44332022  1
  H+  H383  1  0.86031748  0.09980784  0.14775392  1
  O2-  O384  1  0.06889131  0.17879035  0.16457387  1
  O2-  O385  1  0.07672137  0.17701559  0.47679257  1
  O2-  O386  1  0.09982366  0.17066743  0.80447428  1
  O2-  O387  1  0.06844588  0.41668021  0.14592024  1
  O2-  O388  1  0.05417370  0.35359554  0.46283488  1
  O2-  O389  1  0.08042100  0.41715301  0.80232896  1
  O2-  O390  1  0.07411707  0.66329038  0.15374330  1
  O2-  O391  1  0.10800375  0.68825251  0.47278346  1
  O2-  O392  1  0.08299993  0.66758214  0.81080448  1
  O2-  O393  1  0.08927755  0.91973300  0.14549892  1
  O2-  O394  1  0.08080777  0.93344661  0.47361338  1
  O2-  O395  1  0.09276227  0.94478550  0.79493607  1
  O2-  O396  1  0.31562192  0.15578615  0.15115116  1
  O2-  O397  1  0.32989103  0.18626663  0.48479289  1
  O2-  O398  1  0.34376430  0.19905387  0.80935033  1
  O2-  O399  1  0.31094264  0.40914572  0.16979415  1
  O2-  O400  1  0.34490426  0.42497741  0.47859688  1
  O2-  O401  1  0.35853463  0.45289903  0.80909662  1
  O2-  O402  1  0.30639248  0.68011672  0.14060598  1
  O2-  O403  1  0.32696657  0.64964514  0.47013075  1
  O2-  O404  1  0.31404702  0.66446227  0.80241922  1
  O2-  O405  1  0.33146380  0.91721631  0.15116218  1
  O2-  O406  1  0.33014414  0.89288412  0.47318097  1
  O2-  O407  1  0.30807394  0.92804649  0.82006744  1
  O2-  O408  1  0.60499529  0.16301685  0.15238143  1
  O2-  O409  1  0.59208049  0.16545199  0.47264618  1
  O2-  O410  1  0.60459058  0.19534051  0.87144009  1
  O2-  O411  1  0.52524656  0.32178096  0.12848984  1
  O2-  O412  1  0.57687422  0.41313958  0.47814045  1
  O2-  O413  1  0.58866477  0.42788569  0.79337564  1
  O2-  O414  1  0.58395162  0.65822261  0.15551639  1
  O2-  O415  1  0.58976489  0.67380479  0.47826920  1
  O2-  O416  1  0.56004279  0.72402736  0.80924916  1
  O2-  O417  1  0.59432990  0.92258980  0.14555665  1
  O2-  O418  1  0.59797960  0.91965959  0.48032961  1
  O2-  O419  1  0.63634872  0.95254929  0.80797709  1
  O2-  O420  1  0.83697139  0.18231816  0.14678642  1
  O2-  O421  1  0.82974367  0.15749873  0.48846756  1
  O2-  O422  1  0.84314832  0.17634792  0.81243860  1
  O2-  O423  1  0.81983390  0.43500924  0.13207637  1
  O2-  O424  1  0.83060729  0.41456893  0.48775250  1
  O2-  O425  1  0.84332037  0.41792776  0.79418981  1
  O2-  O426  1  0.84039867  0.67599652  0.14992794  1
  O2-  O427  1  0.83660887  0.66143946  0.48136127  1
  O2-  O428  1  0.84688449  0.66575386  0.81256003  1
  O2-  O429  1  0.82876996  0.89920928  0.14258252  1
  O2-  O430  1  0.83709469  0.92007648  0.47788824  1
  O2-  O431  1  0.86479656  0.92509819  0.80358491  1
  O2-  O432  1  0.17063713  0.07528523  0.19130092  1
  O2-  O433  1  0.16016837  0.10466766  0.52858420  1
  O2-  O434  1  0.17260419  0.09471549  0.85801972  1
  O2-  O435  1  0.14614763  0.34626951  0.21234483  1
  O2-  O436  1  0.18219332  0.34904642  0.51421253  1
  O2-  O437  1  0.14465111  0.32629189  0.86842728  1
  O2-  O438  1  0.14817997  0.57227152  0.18909533  1
  O2-  O439  1  0.17313643  0.58501156  0.51359538  1
  O2-  O440  1  0.15893276  0.58105446  0.84617507  1
  O2-  O441  1  0.16509753  0.82930490  0.19052346  1
  O2-  O442  1  0.24537720  0.86667361  0.50005222  1
  O2-  O443  1  0.13158187  0.82037594  0.86267139  1
  O2-  O444  1  0.38627231  0.07892627  0.19749269  1
  O2-  O445  1  0.44895923  0.03403640  0.52929880  1
  O2-  O446  1  0.43823436  0.08780751  0.87202587  1
  O2-  O447  1  0.39609797  0.31727133  0.19342719  1
  O2-  O448  1  0.42631673  0.34558364  0.50636664  1
  O2-  O449  1  0.43696254  0.36003656  0.84406970  1
  O2-  O450  1  0.41842657  0.58288744  0.19548708  1
  O2-  O451  1  0.42487369  0.58861647  0.52373359  1
  O2-  O452  1  0.40170537  0.60900159  0.85152667  1
  O2-  O453  1  0.43333801  0.85961471  0.18800425  1
  O2-  O454  1  0.39259479  0.80646675  0.50541656  1
  O2-  O455  1  0.36624317  0.81588416  0.84391007  1
  O2-  O456  1  0.68794443  0.08379479  0.18879389  1
  O2-  O457  1  0.66876453  0.08222827  0.52691191  1
  O2-  O458  1  0.68690420  0.10298977  0.86651457  1
  O2-  O459  1  0.68708400  0.31187330  0.19484171  1
  O2-  O460  1  0.65811126  0.33321386  0.51430738  1
  O2-  O461  1  0.68172296  0.35471936  0.83592870  1
  O2-  O462  1  0.67376448  0.59194638  0.19562691  1
  O2-  O463  1  0.67248390  0.58795513  0.52452213  1
  O2-  O464  1  0.67241392  0.58300139  0.85602207  1
  O2-  O465  1  0.66629239  0.82783696  0.18732225  1
  O2-  O466  1  0.67340404  0.83817447  0.51874196  1
  O2-  O467  1  0.70963125  0.85826426  0.85530833  1
  O2-  O468  1  0.89398876  0.06882397  0.14600960  1
  O2-  O469  1  0.91729324  0.08491792  0.53488127  1
  O2-  O470  1  0.93978518  0.09317890  0.82754553  1
  O2-  O471  1  0.90495658  0.35270781  0.17350992  1
  O2-  O472  1  0.91188011  0.32694497  0.51624027  1
  O2-  O473  1  0.92133317  0.33764778  0.85050788  1
  O2-  O474  1  0.91126653  0.58439705  0.18972713  1
  O2-  O475  1  0.93036039  0.59005843  0.51536617  1
  O2-  O476  1  0.91919686  0.57595845  0.84454962  1
  O2-  O477  1  0.92663599  0.84153640  0.18749337  1
  O2-  O478  1  0.91394742  0.83090540  0.52011487  1
  O2-  O479  1  0.97525211  0.81261891  0.86313870  1
  O2-  O480  1  0.16378425  0.08173798  0.31094070  1
  O2-  O481  1  0.17642107  0.15901869  0.64398819  1
  O2-  O482  1  0.17490488  0.08224620  0.97032915  1
  O2-  O483  1  0.15538196  0.33765369  0.33221268  1
  O2-  O484  1  0.17404994  0.33490579  0.63942976  1
  O2-  O485  1  0.15494799  0.33380501  0.99008531  1
  O2-  O486  1  0.15534506  0.57112757  0.30889592  1
  O2-  O487  1  0.17451554  0.57432068  0.64014347  1
  O2-  O488  1  0.19672832  0.53470842  0.95514447  1
  O2-  O489  1  0.17516270  0.84253059  0.31259193  1
  O2-  O490  1  0.16200303  0.88407139  0.64658708  1
  O2-  O491  1  0.17191304  0.83309988  0.98085090  1
  O2-  O492  1  0.40473251  0.06578343  0.32032410  1
  O2-  O493  1  0.41184759  0.15327168  0.56866321  1
  O2-  O494  1  0.41576974  0.08378071  0.99632386  1
  O2-  O495  1  0.40860154  0.33933957  0.32061283  1
  O2-  O496  1  0.41990666  0.32037537  0.63800809  1
  O2-  O497  1  0.43817065  0.31590341  0.96271631  1
  O2-  O498  1  0.41493382  0.57993213  0.31333509  1
  O2-  O499  1  0.42211104  0.57677868  0.64809300  1
  O2-  O500  1  0.41525439  0.55939673  1.00707779  1
  O2-  O501  1  0.49244596  0.85845535  0.33015379  1
  O2-  O502  1  0.45681137  0.79410538  0.61477980  1
  O2-  O503  1  0.33795112  0.77706166  0.96783708  1
  O2-  O504  1  0.66941586  0.08920205  0.31393784  1
  O2-  O505  1  0.66727632  0.09174523  0.64756054  1
  O2-  O506  1  0.67015826  0.07900838  0.98715280  1
  O2-  O507  1  0.57836318  0.29157553  0.29126529  1
  O2-  O508  1  0.66473526  0.33811085  0.63472069  1
  O2-  O509  1  0.66015946  0.30415461  0.96760774  1
  O2-  O510  1  0.65958599  0.58271010  0.31856698  1
  O2-  O511  1  0.66878379  0.59003714  0.64566388  1
  O2-  O512  1  0.59793124  0.52091339  0.96406584  1
  O2-  O513  1  0.66487176  0.83994509  0.31252984  1
  O2-  O514  1  0.61915232  0.82384322  0.64150752  1
  O2-  O515  1  0.69875390  0.85528742  0.97088586  1
  O2-  O516  1  0.91368118  0.08062919  0.30756637  1
  O2-  O517  1  0.89752301  0.07774654  0.65630880  1
  O2-  O518  1  0.91724512  0.07853437  1.02700933  1
  O2-  O519  1  0.93329591  0.32206089  0.34365863  1
  O2-  O520  1  0.91997422  0.33928789  0.63923004  1
  O2-  O521  1  0.91602004  0.33418998  0.97432538  1
  O2-  O522  1  0.92301257  0.58490470  0.30807352  1
  O2-  O523  1  0.91338752  0.58467905  0.63788686  1
  O2-  O524  1  0.90927807  0.57529952  0.96900992  1
  O2-  O525  1  0.92414682  0.84490268  0.30905462  1
  O2-  O526  1  0.90159269  0.82850671  0.64245431  1
  O2-  O527  1  0.94366924  0.85012496  0.97525136  1
  O2-  O528  1  0.08929345  0.18466820  0.04049969  1
  O2-  O529  1  0.08141736  0.16774149  0.35150745  1
  O2-  O530  1  0.09568847  0.10631497  0.67713819  1
  O2-  O531  1  0.07602077  0.41435036  0.02276918  1
  O2-  O532  1  0.06745176  0.38423293  0.39912007  1
  O2-  O533  1  0.08561333  0.40893113  0.68105285  1
  O2-  O534  1  0.04686127  0.68591385  0.03614200  1
  O2-  O535  1  0.09279612  0.67381957  0.34731731  1
  O2-  O536  1  0.05222828  0.59890740  0.70013279  1
  O2-  O537  1  0.09940630  0.93030259  0.01963852  1
  O2-  O538  1  0.08801036  0.92422497  0.35458696  1
  O2-  O539  1  0.06211156  0.94347402  0.67804606  1
  O2-  O540  1  0.32306667  0.15863063  0.02250464  1
  O2-  O541  1  0.29853526  0.09538501  0.38059946  1
  O2-  O542  1  0.32032020  0.14873091  0.68921370  1
  O2-  O543  1  0.31512540  0.40154438  0.04203188  1
  O2-  O544  1  0.32828530  0.42035850  0.35684814  1
  O2-  O545  1  0.34138640  0.41204715  0.68174345  1
  O2-  O546  1  0.32622940  0.64454655  0.02863864  1
  O2-  O547  1  0.32814968  0.64897629  0.34772673  1
  O2-  O548  1  0.33926772  0.66072334  0.68019260  1
  O2-  O549  1  0.37467166  0.92291847  0.03738539  1
  O2-  O550  1  0.34737874  0.90363881  0.35055879  1
  O2-  O551  1  0.31011344  0.98415896  0.69986049  1
  O2-  O552  1  0.58118450  0.14881203  0.03020708  1
  O2-  O553  1  0.57322051  0.15955872  0.34809574  1
  O2-  O554  1  0.59751588  0.18368622  0.69311958  1
  O2-  O555  1  0.61860664  0.41162804  0.02378920  1
  O2-  O556  1  0.57438869  0.42069961  0.36109568  1
  O2-  O557  1  0.58433784  0.41951241  0.67459350  1
  O2-  O558  1  0.56841022  0.63307177  0.03769836  1
  O2-  O559  1  0.58180779  0.67498985  0.35489883  1
  O2-  O560  1  0.58563664  0.66727101  0.69236021  1
  O2-  O561  1  0.60329146  0.91907308  0.01800388  1
  O2-  O562  1  0.57934787  0.91962420  0.35216483  1
  O2-  O563  1  0.59581236  0.94118210  0.69555816  1
  O2-  O564  1  0.83468729  0.17030236  0.02678068  1
  O2-  O565  1  0.82800177  0.15709596  0.36288289  1
  O2-  O566  1  0.82779785  0.18015769  0.68879962  1
  O2-  O567  1  0.82305808  0.41116244  0.01091975  1
  O2-  O568  1  0.91153443  0.45504798  0.37707392  1
  O2-  O569  1  0.83148784  0.41811654  0.67155310  1
  O2-  O570  1  0.90460298  0.70318976  0.03413399  1
  O2-  O571  1  0.81226294  0.69502552  0.37121110  1
  O2-  O572  1  0.83324596  0.66673087  0.68826547  1
  O2-  O573  1  0.84567956  0.90999274  0.01181032  1
  O2-  O574  1  0.83390462  0.92030821  0.35270142  1
  O2-  O575  1  0.81104171  0.90464048  0.67802653  1
