# generated using pymatgen
data_H2O
_symmetry_space_group_name_H-M   'P 1'
_cell_length_a   17.99254093
_cell_length_b   17.98759418
_cell_length_c   22.00189591
_cell_angle_alpha   89.99740261
_cell_angle_beta   90.01234531
_cell_angle_gamma   120.00576991
_symmetry_Int_Tables_number   1
_chemical_formula_structural   H2O
_chemical_formula_sum   'H384 O192'
_cell_volume   6166.39091091
_cell_formula_units_Z   192
loop_
 _symmetry_equiv_pos_site_id
 _symmetry_equiv_pos_as_xyz
  1  'x, y, z'
loop_
 _atom_type_symbol
 _atom_type_oxidation_number
  H+  1.0
  O2-  -2.0
loop_
 _atom_site_type_symbol
 _atom_site_label
 _atom_site_symmetry_multiplicity
 _atom_site_fract_x
 _atom_site_fract_y
 _atom_site_fract_z
 _atom_site_occupancy
  H+  H0  1  0.88279536  0.36819821  0.32149127  1
  H+  H1  1  0.65586514  0.37966811  0.65605002  1
  H+  H2  1  0.38305475  0.58495139  0.51273333  1
  H+  H3  1  0.74381151  0.11877820  0.66090315  1
  H+  H4  1  0.65407372  1.00596367  0.16499592  1
  H+  H5  1  0.78218168  0.88880790  0.48930747  1
  H+  H6  1  0.49454199  0.03922788  0.88870435  1
  H+  H7  1  0.75690299  0.89315686  0.34147876  1
  H+  H8  1  0.20654354  0.09350257  -0.00018066  1
  H+  H9  1  0.56750288  0.39975515  0.40096815  1
  H+  H10  1  0.60796396  0.63082047  0.15505217  1
  H+  H11  1  0.60839968  0.21796944  0.49537852  1
  H+  H12  1  0.11728702  0.64291413  0.48830298  1
  H+  H13  1  0.32362775  0.34798116  0.35115862  1
  H+  H14  1  0.35417092  0.89538847  0.48144945  1
  H+  H15  1  0.23403409  0.11094612  0.17289018  1
  H+  H16  1  0.35447944  0.11962752  1.00802021  1
  H+  H17  1  0.36160225  0.45408709  0.50086538  1
  H+  H18  1  0.13073070  0.27596509  0.24249998  1
  H+  H19  1  0.14174777  1.00725531  0.49771024  1
  H+  H20  1  0.79150723  0.88794056  0.14266581  1
  H+  H21  1  0.48609673  0.60581413  0.66032720  1
  H+  H22  1  0.32570897  0.15008654  0.71959923  1
  H+  H23  1  0.59982180  0.19176209  1.01385882  1
  H+  H24  1  0.66142376  0.12883361  0.83741333  1
  H+  H25  1  0.87634934  0.50061177  0.66565103  1
  H+  H26  1  0.64003697  0.75779217  0.15545437  1
  H+  H27  1  0.51916090  0.12664361  0.49578318  1
  H+  H28  1  0.70622900  0.11743281  0.32441379  1
  H+  H29  1  0.88646782  0.85059976  0.87249385  1
  H+  H30  1  0.03121660  0.15215630  -0.01272498  1
  H+  H31  1  0.89689806  0.61075383  0.50368351  1
  H+  H32  1  0.36861840  0.51692571  0.36440568  1
  H+  H33  1  0.13796451  0.59391061  0.32528887  1
  H+  H34  1  0.35043954  0.88819130  0.83306948  1
  H+  H35  1  0.47748164  0.60925264  0.99591138  1
  H+  H36  1  0.09914901  0.13104319  0.83087759  1
  H+  H37  1  0.88404161  0.35590810  0.17428877  1
  H+  H38  1  0.12034776  0.85952460  0.62908197  1
  H+  H39  1  0.66275601  0.03966333  0.83709834  1
  H+  H40  1  0.87128587  0.25116714  -0.00176369  1
  H+  H41  1  0.37301539  0.76389750  0.32818721  1
  H+  H42  1  0.44942807  0.07775733  0.68508492  1
  H+  H43  1  0.88315074  0.39817407  0.81609090  1
  H+  H44  1  0.27079978  0.63416389  0.15695148  1
  H+  H45  1  0.47913484  0.38448427  1.04168245  1
  H+  H46  1  0.13397118  0.11367825  0.65528755  1
  H+  H47  1  0.23110712  0.85757524  0.32047756  1
  H+  H48  1  0.61251850  0.23162198  0.16093668  1
  H+  H49  1  0.63816166  0.08379631  0.99674935  1
  H+  H50  1  0.47327662  0.11253183  0.32026402  1
  H+  H51  1  0.52917222  0.39586535  0.17092213  1
  H+  H52  1  0.91018458  0.02704485  0.16346624  1
  H+  H53  1  1.00862890  0.62042748  0.32466118  1
  H+  H54  1  0.08174553  0.66646670  0.09604214  1
  H+  H55  1  0.55853687  0.91401366  0.84251605  1
  H+  H56  1  0.37191387  0.89285121  1.01033222  1
  H+  H57  1  0.15589951  0.56883208  0.22182473  1
  H+  H58  1  0.27418747  0.69785275  0.32596748  1
  H+  H59  1  0.38951778  0.69178580  0.46748918  1
  H+  H60  1  0.87073819  0.21672448  0.15635350  1
  H+  H61  1  0.10381710  0.46892044  0.14807667  1
  H+  H62  1  0.40169850  0.66237077  0.31097942  1
  H+  H63  1  0.93343591  0.82596717  0.92670654  1
  H+  H64  1  0.32242807  0.32400549  0.83022108  1
  H+  H65  1  0.59054412  0.89028556  0.08766519  1
  H+  H66  1  0.62615118  0.02337627  0.32485589  1
  H+  H67  1  0.98323270  0.62610962  0.99485069  1
  H+  H68  1  0.65499755  0.84214239  0.91310450  1
  H+  H69  1  0.63698112  0.89895129  0.83484933  1
  H+  H70  1  0.51801778  0.63226100  0.15485727  1
  H+  H71  1  0.11580260  -0.03071220  0.14887414  1
  H+  H72  1  0.11970656  0.48557580  0.82414304  1
  H+  H73  1  0.86625948  0.72514868  0.83421769  1
  H+  H74  1  0.14190246  0.16880923  0.18625424  1
  H+  H75  1  0.49189832  0.86920895  0.64904709  1
  H+  H76  1  0.07020802  0.40513548  0.06381270  1
  H+  H77  1  0.47707149  0.35013383  0.33097200  1
  H+  H78  1  0.76801777  0.63817667  0.16254150  1
  H+  H79  1  0.55865686  0.16257988  0.67102406  1
  H+  H80  1  0.98764599  0.36656169  0.65782007  1
  H+  H81  1  0.65728249  0.12362985  0.66149938  1
  H+  H82  1  0.03297050  0.39647449  0.81642414  1
  H+  H83  1  0.06572773  0.89423437  0.04949166  1
  H+  H84  1  0.99461676  0.89681730  0.69535715  1
  H+  H85  1  0.12175466  0.47408562  0.66402754  1
  H+  H86  1  0.89590169  0.11952494  0.97232950  1
  H+  H87  1  0.42055552  0.57336507  0.93652101  1
  H+  H88  1  0.31536208  0.37727074  0.44989013  1
  H+  H89  1  0.25830794  0.62378637  0.84701803  1
  H+  H90  1  0.70439155  0.63261054  0.32692125  1
  H+  H91  1  0.37781514  1.00965236  0.00572920  1
  H+  H92  1  0.11155931  0.22375637  0.67782781  1
  H+  H93  1  0.67749872  0.60036309  0.93576587  1
  H+  H94  1  0.08564306  0.14336792  0.53158585  1
  H+  H95  1  0.55092542  0.41140109  0.80555353  1
  H+  H96  1  0.22853426  0.28740220  0.37525346  1
  H+  H97  1  0.09236474  0.85672156  0.83105570  1
  H+  H98  1  0.76832324  0.54546604  0.46312433  1
  H+  H99  1  0.11759173  0.88186739  0.15215291  1
  H+  H100  1  0.99203776  0.84151158  0.84286187  1
  H+  H101  1  0.60732945  0.40442062  1.01667696  1
  H+  H102  1  0.79201172  0.15090251  0.83062506  1
  H+  H103  1  0.63167381  0.24262247  0.81999816  1
  H+  H104  1  0.14562567  0.09642993  0.48690014  1
  H+  H105  1  0.89162135  0.77309757  0.16807369  1
  H+  H106  1  0.50287820  0.43926497  0.88220624  1
  H+  H107  1  0.62139609  0.50063507  0.01353324  1
  H+  H108  1  0.63754397  0.61048984  0.53355139  1
  H+  H109  1  1.02319364  0.64044175  0.15595363  1
  H+  H110  1  0.80585341  0.61062015  0.33951771  1
  H+  H111  1  0.10419038  0.22312176  0.82522125  1
  H+  H112  1  0.41215045  0.77900282  0.63259132  1
  H+  H113  1  0.13385659  0.72227065  0.33541872  1
  H+  H114  1  0.88796375  0.52945102  0.17774475  1
  H+  H115  1  0.87936676  0.88854463  0.15005542  1
  H+  H116  1  0.62673190  0.98341271  0.67370553  1
  H+  H117  1  0.77907296  0.40217705  0.66938852  1
  H+  H118  1  0.21809173  0.60028484  0.99571961  1
  H+  H119  1  0.86937597  0.64061695  0.82427310  1
  H+  H120  1  0.22941269  0.61664686  0.49633130  1
  H+  H121  1  0.09550715  0.93443639  0.69679420  1
  H+  H122  1  0.73665953  0.12850459  0.50938571  1
  H+  H123  1  0.87996286  0.76612129  0.32225314  1
  H+  H124  1  0.33043763  0.94946263  0.67687002  1
  H+  H125  1  0.13754963  0.61749113  0.84722059  1
  H+  H126  1  0.35143288  0.38847797  1.03492256  1
  H+  H127  1  0.79649144  0.40102564  0.02071267  1
  H+  H128  1  0.61617421  0.72796088  0.66781544  1
  H+  H129  1  0.11572524  0.47562298  0.48725731  1
  H+  H130  1  0.89817629  0.53521704  -0.00471823  1
  H+  H131  1  0.26590614  0.13776749  0.66229365  1
  H+  H132  1  0.60905847  0.46937762  0.50865808  1
  H+  H133  1  0.51602558  0.10363344  0.01690738  1
  H+  H134  1  0.14824186  0.78452815  0.84380168  1
  H+  H135  1  0.37996294  0.01741845  0.48956939  1
  H+  H136  1  0.83116711  0.23591081  0.34475405  1
  H+  H137  1  0.75646700  0.60720403  0.50551540  1
  H+  H138  1  0.98218902  0.12372600  0.86914559  1
  H+  H139  1  0.37126649  0.37567363  0.66658021  1
  H+  H140  1  0.96481658  0.12025559  0.49990762  1
  H+  H141  1  0.10789488  0.63245996  0.00544089  1
  H+  H142  1  0.39725439  0.51223405  0.65937486  1
  H+  H143  1  0.66464213  0.29372287  0.66316397  1
  H+  H144  1  0.53009269  0.67792412  0.34426299  1
  H+  H145  1  0.25730892  0.13877690  0.33281969  1
  H+  H146  1  0.65088553  0.54125434  0.83677498  1
  H+  H147  1  0.47149706  0.40639168  0.86011229  1
  H+  H148  1  0.35932361  0.13182013  0.81886781  1
  H+  H149  1  0.98732115  0.09432460  0.64828147  1
  H+  H150  1  0.36993482  0.89545706  0.32806236  1
  H+  H151  1  0.32352074  0.07171774  0.63788428  1
  H+  H152  1  0.59282627  0.67623262  0.76838391  1
  H+  H153  1  0.60493786  0.13300804  0.33213670  1
  H+  H154  1  0.11599181  0.72714380  1.00620271  1
  H+  H155  1  0.72272419  0.86306306  0.65829533  1
  H+  H156  1  0.38494728  0.02381749  0.31803271  1
  H+  H157  1  0.72328770  0.36465230  0.32869861  1
  H+  H158  1  0.14565691  0.36178978  0.66511007  1
  H+  H159  1  0.65280828  0.77218957  0.50440690  1
  H+  H160  1  0.63701152  0.27150466  0.32807227  1
  H+  H161  1  0.61461571  0.47679683  0.64781028  1
  H+  H162  1  0.62649304  0.90093110  0.36721378  1
  H+  H163  1  0.09499219  0.44886039  0.33530319  1
  H+  H164  1  0.48461369  0.85572123  0.16200252  1
  H+  H165  1  0.63376912  0.94192253  -0.00945451  1
  H+  H166  1  0.03234294  0.88532374  0.49346696  1
  H+  H167  1  0.12536959  0.51318476  0.99464116  1
  H+  H168  1  0.35403149  0.47537530  0.01597116  1
  H+  H169  1  0.28215295  0.37827095  0.66752436  1
  H+  H170  1  0.90094487  0.37044506  0.65792709  1
  H+  H171  1  0.37505099  0.62604762  0.65745321  1
  H+  H172  1  0.13319639  0.26562553  0.99733811  1
  H+  H173  1  0.98384693  0.85932906  0.16740599  1
  H+  H174  1  0.77809885  0.12111394  0.00745201  1
  H+  H175  1  0.87000569  0.93379849  0.05444372  1
  H+  H176  1  0.22708066  0.88092182  0.84702648  1
  H+  H177  1  0.90117151  0.98349235  0.33375819  1
  H+  H178  1  0.60388742  0.73589712  0.00426344  1
  H+  H179  1  0.76869898  0.63472451  0.00859338  1
  H+  H180  1  0.41877964  0.07099816  0.94711631  1
  H+  H181  1  0.27714465  0.12796392  0.48557908  1
  H+  H182  1  0.53053756  0.38253751  0.65918635  1
  H+  H183  1  0.63908338  0.78537398  0.84990654  1
  H+  H184  1  0.14182184  0.77208642  0.16774567  1
  H+  H185  1  0.38759396  0.36051707  0.18054473  1
  H+  H186  1  0.63478127  0.11794075  0.51090325  1
  H+  H187  1  0.79553115  0.40227326  0.81215566  1
  H+  H188  1  0.73953842  0.62705978  0.84023989  1
  H+  H189  1  0.16435651  0.08439178  0.59514240  1
  H+  H190  1  0.12179805  0.71879306  0.66018493  1
  H+  H191  1  0.39393563  0.26305797  0.65886698  1
  H+  H192  1  0.85921710  0.23134145  0.49891989  1
  H+  H193  1  0.38559296  0.61277114  0.16633600  1
  H+  H194  1  0.87691189  0.88663394  0.33689721  1
  H+  H195  1  0.90522991  0.53715319  0.83886281  1
  H+  H196  1  0.87108137  0.22738230  0.67254721  1
  H+  H197  1  0.47508013  0.11404072  0.17130203  1
  H+  H198  1  0.61896327  0.86756095  0.14919775  1
  H+  H199  1  0.37254431  0.25805504  0.32480005  1
  H+  H200  1  0.96198412  0.35108339  0.32710561  1
  H+  H201  1  0.37088413  0.47617595  0.82078268  1
  H+  H202  1  0.26013729  0.88604765  0.47237987  1
  H+  H203  1  0.89930073  0.27861390  0.83348787  1
  H+  H204  1  0.23522884  0.60987787  0.64856771  1
  H+  H205  1  0.65336506  0.31777559  0.96691559  1
  H+  H206  1  0.24661306  0.87631756  0.70118589  1
  H+  H207  1  0.13890809  0.14479842  0.35702730  1
  H+  H208  1  0.36481474  0.75867117  0.83985505  1
  H+  H209  1  0.22655239  0.36715575  1.00639452  1
  H+  H210  1  0.05284783  0.16318362  0.17948291  1
  H+  H211  1  0.13822053  0.36392469  0.82419142  1
  H+  H212  1  0.58984245  0.66300409  0.44235426  1
  H+  H213  1  0.62363655  0.65030964  0.82838878  1
  H+  H214  1  0.48374246  0.61670928  0.84010441  1
  H+  H215  1  0.45242039  0.11655214  0.66918678  1
  H+  H216  1  0.22846730  0.85548692  0.00264750  1
  H+  H217  1  0.36502158  0.21860218  0.48663634  1
  H+  H218  1  0.35066094  0.61929865  0.00359979  1
  H+  H219  1  0.61959417  0.64128117  0.66256975  1
  H+  H220  1  0.64029543  0.53342504  0.18171655  1
  H+  H221  1  0.88078822  0.15366830  0.83978545  1
  H+  H222  1  0.89482581  0.87847970  0.50803466  1
  H+  H223  1  0.49122459  0.87816923  0.32135291  1
  H+  H224  1  0.13001757  0.36109528  -0.00074271  1
  H+  H225  1  0.65747726  0.38693500  0.80980554  1
  H+  H226  1  0.39951077  0.86436290  0.16809732  1
  H+  H227  1  0.39344590  0.27388826  0.17558443  1
  H+  H228  1  0.08109391  0.40600472  0.43270056  1
  H+  H229  1  0.13726532  0.36524997  0.50914699  1
  H+  H230  1  0.33681017  0.19184439  -0.01587756  1
  H+  H231  1  1.02190640  0.86896725  0.33804762  1
  H+  H232  1  0.64526621  0.37447423  0.17806177  1
  H+  H233  1  0.11932987  0.73734585  0.48303320  1
  H+  H234  1  0.62383649  0.75325288  0.35866585  1
  H+  H235  1  0.40067545  0.28973557  1.04936568  1
  H+  H236  1  0.11854692  0.87304940  0.48633560  1
  H+  H237  1  0.90069207  0.98613405  -0.00860879  1
  H+  H238  1  0.41378091  0.01837150  0.84905335  1
  H+  H239  1  0.28167448  0.88506243  0.16331595  1
  H+  H240  1  0.86944885  0.86240481  0.66613656  1
  H+  H241  1  0.64727514  0.63477477  0.99360434  1
  H+  H242  1  0.88895016  0.78825074  0.51399568  1
  H+  H243  1  0.13169994  0.60888686  0.16539147  1
  H+  H244  1  0.91166820  0.16646141  0.30413111  1
  H+  H245  1  0.11378070  0.14417884  0.00122589  1
  H+  H246  1  0.52920197  0.62554744  0.49949969  1
  H+  H247  1  0.01561048  0.37205936  0.00079836  1
  H+  H248  1  0.62010108  0.63745273  0.32447891  1
  H+  H249  1  0.37111524  0.13631016  0.16243086  1
  H+  H250  1  0.37927632  0.79819184  0.49856605  1
  H+  H251  1  0.67459063  0.06656700  0.22313012  1
  H+  H252  1  0.31373648  0.40990740  0.12230281  1
  H+  H253  1  0.89098783  0.62165240  0.65389087  1
  H+  H254  1  -0.00738734  0.62205419  0.50156908  1
  H+  H255  1  0.20563305  0.08868434  0.83676534  1
  H+  H256  1  0.20948404  0.56581033  0.31757116  1
  H+  H257  1  0.07229452  0.15837938  0.73402159  1
  H+  H258  1  0.24586285  0.23732479  0.85579343  1
  H+  H259  1  0.43843415  0.84176980  0.80998802  1
  H+  H260  1  0.11060105  0.23490938  0.50650391  1
  H+  H261  1  -0.02067171  0.36343840  0.50345064  1
  H+  H262  1  1.01596394  0.12128732  0.31652387  1
  H+  H263  1  0.85864158  0.72881057  0.66770402  1
  H+  H264  1  0.03564036  0.65108154  0.82577466  1
  H+  H265  1  0.77629677  0.87859712  0.84969249  1
  H+  H266  1  0.73507864  0.36489304  0.50062660  1
  H+  H267  1  0.11116506  0.01366749  0.99236711  1
  H+  H268  1  0.36208722  0.72264833  0.15665486  1
  H+  H269  1  0.87875913  0.12603655  0.31968662  1
  H+  H270  1  0.87186365  0.48823943  0.33739348  1
  H+  H271  1  0.39518221  0.50495174  0.34471372  1
  H+  H272  1  0.72636918  0.61294995  0.62954259  1
  H+  H273  1  0.84380476  0.15546845  0.06474466  1
  H+  H274  1  0.87044645  0.39001028  0.48987299  1
  H+  H275  1  0.91266252  0.84494274  0.60829005  1
  H+  H276  1  0.93661976  0.64469711  0.32859002  1
  H+  H277  1  0.39115283  0.60858063  0.84756939  1
  H+  H278  1  0.32009332  0.16557439  0.39166069  1
  H+  H279  1  0.86936980  -0.02257919  0.66272672  1
  H+  H280  1  0.59980507  0.36947506  0.34251748  1
  H+  H281  1  0.61877072  0.38658902  0.49841879  1
  H+  H282  1  0.09032775  0.35968845  0.33194451  1
  H+  H283  1  0.78892885  0.12132437  0.15687525  1
  H+  H284  1  0.11872797  1.00035718  0.32438785  1
  H+  H285  1  0.47730420  0.35200141  0.50744790  1
  H+  H286  1  0.87626162  0.48137516  0.49244271  1
  H+  H287  1  0.77833874  0.39371008  0.16844239  1
  H+  H288  1  0.13771900  0.84836415  0.32506447  1
  H+  H289  1  0.21093564  0.94423395  0.63733063  1
  H+  H290  1  0.22492591  0.36246694  0.82197427  1
  H+  H291  1  0.39263942  0.29133439  0.94020091  1
  H+  H292  1  0.93776594  0.88869795  1.00630386  1
  H+  H293  1  0.34578277  0.03264818  0.58010205  1
  H+  H294  1  0.38745691  0.52526263  0.17894644  1
  H+  H295  1  0.84467289  0.16931197  0.73163862  1
  H+  H296  1  0.16683301  0.07026361  0.22742796  1
  H+  H297  1  0.82814823  0.94250916  0.72898989  1
  H+  H298  1  0.10621710  0.17523549  0.41365435  1
  H+  H299  1  0.33783246  0.16586301  0.10445600  1
  H+  H300  1  0.36925540  0.97655457  0.16305278  1
  H+  H301  1  0.94140541  0.34613432  0.88824189  1
  H+  H302  1  0.69063387  0.37131153  0.87127794  1
  H+  H303  1  0.15713647  0.07859973  0.89988703  1
  H+  H304  1  0.91844701  0.82587136  0.26246838  1
  H+  H305  1  0.68514041  0.81240525  0.21340167  1
  H+  H306  1  0.59226668  0.43653137  0.11421360  1
  H+  H307  1  0.92423803  0.06768522  0.58934792  1
  H+  H308  1  0.09634916  0.67674058  0.76737849  1
  H+  H309  1  0.68717123  0.88232613  0.29309831  1
  H+  H310  1  0.66433169  0.60494934  0.23378614  1
  H+  H311  1  0.16810231  0.83417841  0.94478474  1
  H+  H312  1  0.55421899  0.27747244  0.96086196  1
  H+  H313  1  0.07792110  0.05422587  0.29706067  1
  H+  H314  1  0.01581835  0.37908856  0.15288124  1
  H+  H315  1  0.04313466  0.88880462  0.77069862  1
  H+  H316  1  0.32167893  0.19533357  0.81491142  1
  H+  H317  1  0.42344108  0.84754460  0.92798759  1
  H+  H318  1  0.38499169  0.34659865  0.51234876  1
  H+  H319  1  0.86345398  0.63113091  1.01059221  1
  H+  H320  1  0.82616352  0.65657913  0.07689252  1
  H+  H321  1  0.84039995  0.42777853  0.39609944  1
  H+  H322  1  0.17490927  0.82923872  0.54078926  1
  H+  H323  1  0.22393049  0.35768221  0.51419698  1
  H+  H324  1  0.15590770  0.57788336  0.90912974  1
  H+  H325  1  0.85766643  0.63480306  0.16223624  1
  H+  H326  1  0.80795536  0.65192818  0.40284346  1
  H+  H327  1  0.16926073  0.82827061  0.22835994  1
  H+  H328  1  0.84860243  0.92393138  0.43173526  1
  H+  H329  1  0.28223118  0.39580405  0.19313072  1
  H+  H330  1  0.36501255  0.68983593  0.70199309  1
  H+  H331  1  0.58342841  0.67081695  0.06108323  1
  H+  H332  1  0.92743919  0.59507899  0.89901560  1
  H+  H333  1  0.48731933  0.86393553  0.98213425  1
  H+  H334  1  0.68249763  0.33840405  0.56216378  1
  H+  H335  1  0.42334300  0.56655937  0.57078831  1
  H+  H336  1  0.02942733  0.63791593  0.66554368  1
  H+  H337  1  0.67790614  0.83522058  0.55966471  1
  H+  H338  1  0.43891603  0.84864691  0.25663156  1
  H+  H339  1  0.16835132  0.32885056  0.60538898  1
  H+  H340  1  0.32847238  0.69454816  0.41822258  1
  H+  H341  1  0.09272529  0.42321419  0.72708714  1
  H+  H342  1  0.91260506  0.32292661  0.23078593  1
  H+  H343  1  0.34430186  0.42104856  0.75787153  1
  H+  H344  1  0.42332660  0.31989058  0.59870189  1
  H+  H345  1  0.67067519  0.33708553  0.23472482  1
  H+  H346  1  0.67927028  0.07679045  0.93466946  1
  H+  H347  1  0.92500503  0.59068895  0.59525213  1
  H+  H348  1  0.67489237  0.09282205  0.57408485  1
  H+  H349  1  0.81982450  0.85615650  0.79702584  1
  H+  H350  1  0.58675681  0.15889073  0.11032742  1
  H+  H351  1  0.92777052  0.59733938  0.23186169  1
  H+  H352  1  0.43909507  0.63040306  0.25792729  1
  H+  H353  1  0.96813785  0.07735156  0.25383641  1
  H+  H354  1  0.10031074  0.66462939  0.39681425  1
  H+  H355  1  0.84726101  0.29766276  0.94770317  1
  H+  H356  1  0.32811042  0.92813019  0.77661575  1
  H+  H357  1  0.59680936  0.92447792  0.73302150  1
  H+  H358  1  0.85282221  0.43724779  0.72999801  1
  H+  H359  1  0.88029616  0.02753458  0.49707771  1
  H+  H360  1  0.41818578  0.32672009  0.26330663  1
  H+  H361  1  0.38808498  0.10912842  0.49410618  1
  H+  H362  1  0.84581739  0.42650915  0.11279461  1
  H+  H363  1  0.17271042  0.58291115  0.55667163  1
  H+  H364  1  0.08260525  0.90242123  0.39752274  1
  H+  H365  1  0.82894156  0.66463630  0.72314046  1
  H+  H366  1  0.61157860  0.18614304  0.73190188  1
  H+  H367  1  0.33120265  0.91780402  0.38758877  1
  H+  H368  1  0.41896535  0.85833623  0.55599772  1
  H+  H369  1  0.30876332  0.63648466  0.78668158  1
  H+  H370  1  0.54965031  0.14641962  0.82706276  1
  H+  H371  1  0.32295049  0.65265976  0.06105791  1
  H+  H372  1  0.60281770  0.43653447  0.74331504  1
  H+  H373  1  0.80123218  0.17730551  0.40516304  1
  H+  H374  1  0.63402109  0.86042889  0.65686261  1
  H+  H375  1  0.85279859  0.13770675  0.49453106  1
  H+  H376  1  0.42758417  0.28131574  0.93241866  1
  H+  H377  1  0.87668156  0.38962326  0.01646195  1
  H+  H378  1  0.41437326  0.08151264  0.23046228  1
  H+  H379  1  0.92241716  0.33770691  0.56404792  1
  H+  H380  1  0.90682234  0.11361144  0.16989501  1
  H+  H381  1  0.14524496  0.60847982  0.65337851  1
  H+  H382  1  0.58117522  0.16013549  0.39517004  1
  H+  H383  1  0.33780221  0.91287701  0.07333766  1
  O2-  O384  1  0.11404562  0.20409624  0.18828646  1
  O2-  O385  1  0.07905357  0.17091784  0.49539483  1
  O2-  O386  1  0.06571766  0.15947715  0.81850042  1
  O2-  O387  1  0.07210671  0.40965527  0.13150840  1
  O2-  O388  1  0.08420916  0.41270890  0.47791590  1
  O2-  O389  1  0.09360872  0.42914341  0.80257643  1
  O2-  O390  1  0.08368664  0.66681666  0.14178651  1
  O2-  O391  1  0.08525993  0.66958229  0.47076584  1
  O2-  O392  1  0.09688060  0.67896102  0.81229897  1
  O2-  O393  1  0.08444361  0.90827945  0.13525262  1
  O2-  O394  1  0.08967432  0.91098842  0.47443465  1
  O2-  O395  1  0.03773172  0.84857580  0.81133748  1
  O2-  O396  1  0.34272655  0.17093982  0.14898494  1
  O2-  O397  1  0.33534468  0.16073427  0.46681954  1
  O2-  O398  1  0.31588709  0.13976352  0.79839349  1
  O2-  O399  1  0.33256878  0.41487387  0.16505908  1
  O2-  O400  1  0.32550648  0.39105988  0.49509350  1
  O2-  O401  1  0.33601044  0.41792656  0.80278701  1
  O2-  O402  1  0.33125952  0.66209128  0.14194833  1
  O2-  O403  1  0.33332193  0.68679231  0.46314279  1
  O2-  O404  1  0.31952477  0.65190173  0.82953084  1
  O2-  O405  1  0.34249958  0.91510641  0.14873444  1
  O2-  O406  1  0.32262273  0.92163656  0.45964226  1
  O2-  O407  1  0.33423731  0.93214239  0.82288346  1
  O2-  O408  1  0.57636313  0.16960231  0.15237810  1
  O2-  O409  1  0.58175937  0.15678608  0.48342951  1
  O2-  O410  1  0.60689020  0.18182945  0.80717993  1
  O2-  O411  1  0.59106963  0.42982677  0.15915202  1
  O2-  O412  1  0.58509009  0.41469183  0.48616108  1
  O2-  O413  1  0.60937945  0.43874821  0.78920477  1
  O2-  O414  1  0.57807601  0.66033540  0.13738333  1
  O2-  O415  1  0.59051330  0.65433148  0.48731153  1
  O2-  O416  1  0.59056100  0.67757824  0.81342213  1
  O2-  O417  1  0.58773928  0.89555391  0.13234158  1
  O2-  O418  1  0.55737708  0.92168379  0.42474799  1
  O2-  O419  1  0.60963514  0.93351265  0.81740465  1
  O2-  O420  1  0.84927341  0.15779487  0.13986455  1
  O2-  O421  1  0.82158518  0.17020579  0.48540978  1
  O2-  O422  1  0.85351169  0.18122647  0.81663230  1
  O2-  O423  1  0.84145856  0.42492634  0.15759509  1
  O2-  O424  1  0.84135825  0.42219125  0.47561549  1
  O2-  O425  1  0.85706969  0.43220914  0.79945999  1
  O2-  O426  1  0.82749998  0.66376455  0.14359775  1
  O2-  O427  1  0.79678859  0.60601582  0.47470941  1
  O2-  O428  1  0.83820365  0.67052600  0.81061409  1
  O2-  O429  1  0.85331743  0.92159848  0.13248467  1
  O2-  O430  1  0.84513159  0.92467254  0.47695113  1
  O2-  O431  1  0.83363949  0.89224909  0.83296680  1
  O2-  O432  1  0.17155095  0.07868312  0.18277381  1
  O2-  O433  1  0.17199259  0.07037223  0.51115873  1
  O2-  O434  1  0.15247168  0.08127694  0.85513163  1
  O2-  O435  1  0.22878848  0.38722038  0.26096322  1
  O2-  O436  1  0.16220197  0.33139689  0.52742930  1
  O2-  O437  1  0.16434232  0.32875438  0.83533300  1
  O2-  O438  1  0.16177402  0.57687698  0.17726845  1
  O2-  O439  1  0.16956508  0.58291208  0.51133077  1
  O2-  O440  1  0.16144627  0.58165089  0.86272197  1
  O2-  O441  1  0.17251574  0.83258965  0.18304082  1
  O2-  O442  1  0.16150761  0.82561029  0.49774423  1
  O2-  O443  1  0.16647655  0.84274139  0.86044626  1
  O2-  O444  1  0.41270165  0.08057289  0.18378473  1
  O2-  O445  1  0.41171485  0.07414839  0.51200829  1
  O2-  O446  1  0.46510952  0.06732509  0.87095157  1
  O2-  O447  1  0.42154278  0.33299114  0.19407968  1
  O2-  O448  1  0.41756562  0.31629496  0.52299525  1
  O2-  O449  1  0.30719244  0.26648169  0.84703130  1
  O2-  O450  1  0.42086879  0.58904784  0.18412839  1
  O2-  O451  1  0.42068094  0.56304362  0.52462283  1
  O2-  O452  1  0.42413896  0.57914197  0.85578399  1
  O2-  O453  1  0.42715531  0.83087947  0.18208132  1
  O2-  O454  1  0.40637139  0.85817370  0.51176629  1
  O2-  O455  1  0.39755046  0.82308494  0.84350662  1
  O2-  O456  1  0.69246960  0.06412469  0.18092651  1
  O2-  O457  1  0.67321927  0.09486828  0.52740327  1
  O2-  O458  1  0.69062322  0.09913380  0.85468093  1
  O2-  O459  1  0.67548287  0.34269016  0.18939728  1
  O2-  O460  1  0.67532568  0.33477897  0.51756230  1
  O2-  O461  1  0.68769096  0.35709342  0.82823466  1
  O2-  O462  1  0.67059946  0.59707948  0.18857875  1
  O2-  O463  1  0.66599785  0.57782358  0.54964909  1
  O2-  O464  1  0.67889920  0.59821867  0.85631314  1
  O2-  O465  1  0.67935742  0.81924917  0.17011002  1
  O2-  O466  1  0.68552055  0.83365160  0.51516942  1
  O2-  O467  1  0.66996444  0.84480798  0.86611900  1
  O2-  O468  1  0.93970352  0.08482751  0.18283121  1
  O2-  O469  1  0.90387535  0.08771566  0.51297034  1
  O2-  O470  1  0.92338560  0.10452716  0.88757841  1
  O2-  O471  1  0.91280258  0.32279835  0.18523878  1
  O2-  O472  1  0.91866540  0.33600975  0.51862432  1
  O2-  O473  1  0.92859707  0.34272699  0.84474201  1
  O2-  O474  1  0.91706990  0.59263380  0.18729460  1
  O2-  O475  1  0.93249697  0.58827996  0.52082714  1
  O2-  O476  1  0.93061610  0.59703317  0.85358569  1
  O2-  O477  1  0.92400894  0.83243627  0.18458301  1
  O2-  O478  1  0.92288026  0.84745590  0.52778426  1
  O2-  O479  1  0.91503265  0.81643124  0.88263823  1
  O2-  O480  1  0.13413289  0.05824923  0.30702264  1
  O2-  O481  1  0.16859219  0.08857833  0.63981307  1
  O2-  O482  1  0.14964040  0.07546789  0.98184117  1
  O2-  O483  1  0.14471747  0.32613891  0.27095076  1
  O2-  O484  1  0.17415752  0.32950224  0.65060604  1
  O2-  O485  1  0.16629744  0.33416981  0.98714071  1
  O2-  O486  1  0.15188784  0.55199259  0.30504182  1
  O2-  O487  1  0.17374202  0.57824104  0.63591489  1
  O2-  O488  1  0.15589087  0.57414481  0.98084024  1
  O2-  O489  1  0.16876426  0.81999930  0.30805732  1
  O2-  O490  1  0.15940565  0.89825538  0.65980079  1
  O2-  O491  1  0.16772823  0.82389988  0.98885824  1
  O2-  O492  1  0.41558321  0.08310569  0.30140115  1
  O2-  O493  1  0.31191091  0.01657484  0.61852995  1
  O2-  O494  1  0.41079987  0.07261640  0.99144838  1
  O2-  O495  1  0.41471875  0.32280214  0.31037175  1
  O2-  O496  1  0.42796687  0.32460904  0.64438923  1
  O2-  O497  1  0.41736754  0.35011617  1.05224394  1
  O2-  O498  1  0.45376465  0.66363467  0.29658570  1
  O2-  O499  1  0.42586188  0.57327692  0.64390285  1
  O2-  O500  1  0.41681977  0.57330380  0.98166645  1
  O2-  O501  1  0.43388173  0.85305036  0.30199998  1
  O2-  O502  1  0.43490665  0.84102232  0.62922374  1
  O2-  O503  1  0.44207150  0.87543044  0.96776063  1
  O2-  O504  1  0.65058342  0.07812867  0.30240291  1
  O2-  O505  1  0.68185777  0.08925419  0.64482476  1
  O2-  O506  1  0.67508545  0.06281067  0.97870304  1
  O2-  O507  1  0.66333536  0.33272029  0.31358547  1
  O2-  O508  1  0.69450471  0.35475601  0.64756972  1
  O2-  O509  1  0.60117966  0.29985088  0.99037442  1
  O2-  O510  1  0.64961959  0.60875502  0.30520782  1
  O2-  O511  1  0.66446948  0.58256765  0.61681540  1
  O2-  O512  1  0.67792481  0.60233500  0.98127635  1
  O2-  O513  1  0.69293034  0.86728719  0.33464910  1
  O2-  O514  1  0.66298594  0.82869623  0.64221450  1
  O2-  O515  1  0.63774748  0.83500710  0.97924339  1
  O2-  O516  1  0.98612134  0.06620167  0.29481703  1
  O2-  O517  1  0.94003071  0.04579994  0.62552026  1
  O2-  O518  1  0.93157513  0.09667219  0.95361707  1
  O2-  O519  1  0.90450830  0.32965648  0.30806414  1
  O2-  O520  1  0.92644036  0.33705874  0.64254623  1
  O2-  O521  1  0.88988023  0.31100576  0.97955837  1
  O2-  O522  1  0.94721706  0.60080769  0.31154063  1
  O2-  O523  1  0.92153773  0.58969939  0.64142292  1
  O2-  O524  1  0.92044758  0.59465414  0.98027354  1
  O2-  O525  1  0.91744759  0.82574715  0.30819806  1
  O2-  O526  1  0.90371748  0.83517265  0.65300405  1
  O2-  O527  1  0.96318560  0.84840716  0.99922925  1
  O2-  O528  1  0.08639657  0.17961435  0.01009337  1
  O2-  O529  1  0.12655048  0.18955934  0.37137720  1
  O2-  O530  1  0.07857658  0.16170640  0.68898519  1
  O2-  O531  1  0.07443914  0.40436242  0.01632120  1
  O2-  O532  1  0.06598666  0.39049020  0.35400257  1
  O2-  O533  1  0.08965207  0.41511707  0.68170739  1
  O2-  O534  1  0.07853834  0.66420735  0.01943839  1
  O2-  O535  1  0.10615560  0.66114555  0.35113708  1
  O2-  O536  1  0.08983504  0.66325866  0.68040718  1
  O2-  O537  1  0.05647038  0.90379247  0.00616426  1
  O2-  O538  1  0.08287415  0.90039773  0.35175987  1
  O2-  O539  1  0.04703704  0.93069020  0.72104518  1
  O2-  O540  1  0.32336470  0.15200157  0.01815537  1
  O2-  O541  1  0.31634532  0.17513735  0.34709411  1
  O2-  O542  1  0.32794839  0.15922684  0.67484075  1
  O2-  O543  1  0.31666241  0.41788257  0.03541809  1
  O2-  O544  1  0.28490110  0.33824614  0.38502877  1
  O2-  O545  1  0.34418587  0.40992856  0.67989653  1
  O2-  O546  1  0.31520549  0.64454718  0.01637168  1
  O2-  O547  1  0.32695295  0.70371287  0.34282665  1
  O2-  O548  1  0.34511241  0.66054101  0.66317202  1
  O2-  O549  1  0.33496188  0.91459941  0.02753765  1
  O2-  O550  1  0.33079376  0.91625684  0.34133589  1
  O2-  O551  1  0.30876121  0.90262919  0.70728018  1
  O2-  O552  1  0.57886654  0.13190102  0.02544857  1
  O2-  O553  1  0.58113253  0.16798274  0.35076147  1
  O2-  O554  1  0.61797899  0.19238622  0.68630941  1
  O2-  O555  1  0.59126487  0.44415915  0.03517836  1
  O2-  O556  1  0.56080066  0.39093133  0.35659792  1
  O2-  O557  1  0.59394184  0.42123611  0.66959221  1
  O2-  O558  1  0.58616091  0.67427498  0.01562248  1
  O2-  O559  1  0.58434508  0.69176687  0.36702208  1
  O2-  O560  1  0.58941355  0.66703481  0.68362527  1
  O2-  O561  1  0.59503302  0.88133363  0.00299760  1
  O2-  O562  1  0.58563302  0.92367087  0.36606814  1
  O2-  O563  1  0.59460258  0.92269981  0.68806842  1
  O2-  O564  1  0.84022040  0.15783300  0.01865748  1
  O2-  O565  1  0.78252579  0.18596309  0.36505692  1
  O2-  O566  1  0.83789714  0.16729421  0.68699339  1
  O2-  O567  1  0.85733995  0.43011504  0.03080818  1
  O2-  O568  1  0.83634301  0.42793601  0.35081744  1
  O2-  O569  1  0.84588166  0.43747552  0.68312138  1
  O2-  O570  1  0.82771121  0.65567510  0.02890581  1
  O2-  O571  1  0.81465179  0.66355024  0.35822772  1
  O2-  O572  1  0.83140592  0.66590847  0.67804420  1
  O2-  O573  1  0.88364837  0.93072024  0.01088330  1
  O2-  O574  1  0.85860912  0.92739087  0.35253645  1
  O2-  O575  1  0.82475477  0.92370307  0.68699557  1
