# generated using pymatgen
data_H2O
_symmetry_space_group_name_H-M   'P 1'
_cell_length_a   17.99652242
_cell_length_b   17.99107187
_cell_length_c   21.99969086
_cell_angle_alpha   89.98423929
_cell_angle_beta   90.01225471
_cell_angle_gamma   119.98455855
_symmetry_Int_Tables_number   1
_chemical_formula_structural   H2O
_chemical_formula_sum   'H384 O192'
_cell_volume   6169.64785324
_cell_formula_units_Z   192
loop_
 _symmetry_equiv_pos_site_id
 _symmetry_equiv_pos_as_xyz
  1  'x, y, z'
loop_
 _atom_type_symbol
 _atom_type_oxidation_number
  H+  1.0
  O2-  -2.0
loop_
 _atom_site_type_symbol
 _atom_site_label
 _atom_site_symmetry_multiplicity
 _atom_site_fract_x
 _atom_site_fract_y
 _atom_site_fract_z
 _atom_site_occupancy
  H+  H0  1  0.32832040  0.62793313  0.35816160  1
  H+  H1  1  0.60343060  0.99974071  0.33542634  1
  H+  H2  1  0.33025814  0.92148186  0.77046429  1
  H+  H3  1  0.33378064  0.16303982  0.06232796  1
  H+  H4  1  0.82191150  0.41254493  0.10682165  1
  H+  H5  1  0.72371915  0.35894232  0.98812171  1
  H+  H6  1  0.16106349  0.23708972  0.80241622  1
  H+  H7  1  0.11537139  0.75857518  0.50441610  1
  H+  H8  1  0.53248041  0.61656108  0.15252532  1
  H+  H9  1  0.76924514  0.38006716  0.48987597  1
  H+  H10  1  0.15761368  0.12616819  0.81876265  1
  H+  H11  1  0.86887502  0.76611145  0.50611370  1
  H+  H12  1  0.24949960  0.63958028  0.34651014  1
  H+  H13  1  0.60919086  0.97258904  0.16262269  1
  H+  H14  1  0.85272483  0.47297367  0.49068448  1
  H+  H15  1  0.86153310  0.88265533  0.67951326  1
  H+  H16  1  0.81845749  0.09010653  0.83312596  1
  H+  H17  1  0.13798784  0.53479294  0.17045769  1
  H+  H18  1  0.62251540  1.02093656  -0.01428184  1
  H+  H19  1  0.74798547  0.60920011  0.66875177  1
  H+  H20  1  0.60561081  0.45146658  0.47937132  1
  H+  H21  1  0.36450746  0.87602032  0.17859516  1
  H+  H22  1  0.60296451  0.88123076  0.15584046  1
  H+  H23  1  0.60937907  0.22448555  -0.00261837  1
  H+  H24  1  0.54984824  0.65591454  0.67433602  1
  H+  H25  1  0.77764420  0.63749154  0.16685460  1
  H+  H26  1  0.90115107  0.86335298  0.17046397  1
  H+  H27  1  0.72660294  0.10643719  0.65772452  1
  H+  H28  1  0.61634135  0.38289820  0.67881724  1
  H+  H29  1  0.60545571  0.66046480  0.48502222  1
  H+  H30  1  0.85145611  0.38367693  0.16797047  1
  H+  H31  1  0.02654241  0.88557073  -0.00044049  1
  H+  H32  1  0.37805952  0.90102797  0.68500789  1
  H+  H33  1  0.38806912  0.54837852  0.98302452  1
  H+  H34  1  0.52549812  0.39424667  0.82934400  1
  H+  H35  1  0.47300182  0.33882626  0.67261099  1
  H+  H36  1  0.61408416  -0.01252703  0.49753505  1
  H+  H37  1  0.97925712  0.62280983  0.84162096  1
  H+  H38  1  0.27563941  0.12935913  0.15716394  1
  H+  H39  1  0.10531195  0.88547763  0.34122495  1
  H+  H40  1  0.38628142  0.76545415  0.16838664  1
  H+  H41  1  0.12058415  0.53078317  0.66512514  1
  H+  H42  1  0.07177340  0.91333436  0.39986705  1
  H+  H43  1  0.66870252  0.84080337  0.40153491  1
  H+  H44  1  0.14446407  0.10992863  0.16908681  1
  H+  H45  1  0.25807495  0.12825308  0.34503968  1
  H+  H46  1  0.58106028  0.11246814  0.34859539  1
  H+  H47  1  0.66493983  0.58838504  0.89460914  1
  H+  H48  1  0.77767261  0.14913150  0.99386948  1
  H+  H49  1  0.35507201  0.42926648  0.64923200  1
  H+  H50  1  0.08835227  0.39062832  0.68789270  1
  H+  H51  1  0.65182332  0.61407390  0.17248494  1
  H+  H52  1  0.18781169  0.37722086  0.49082103  1
  H+  H53  1  0.11320128  0.12420920  0.99954905  1
  H+  H54  1  0.40251356  0.27715872  0.83573968  1
  H+  H55  1  0.89592211  0.64468579  0.68460303  1
  H+  H56  1  0.91204904  0.27285768  0.33575288  1
  H+  H57  1  0.65592588  0.78964644  0.66275813  1
  H+  H58  1  0.06760975  0.66959890  0.76161222  1
  H+  H59  1  0.62561314  0.63062598  0.82957562  1
  H+  H60  1  -0.05154493  0.34218039  0.17781449  1
  H+  H61  1  0.80646986  0.90762882  0.17061324  1
  H+  H62  1  0.89583847  -0.00777867  0.16887437  1
  H+  H63  1  0.35753274  0.11452006  0.51117050  1
  H+  H64  1  0.11281459  0.39765543  0.82087362  1
  H+  H65  1  0.75249671  0.11869761  0.50260620  1
  H+  H66  1  0.85240310  0.93002695  0.40517049  1
  H+  H67  1  0.62051586  0.11466064  0.98541356  1
  H+  H68  1  0.10018420  0.87700608  0.66939698  1
  H+  H69  1  0.36370650  0.21826322  0.15944763  1
  H+  H70  1  0.75828407  0.63055421  0.47534610  1
  H+  H71  1  0.63482232  0.65244852  0.31109312  1
  H+  H72  1  0.62840627  0.86389160  -0.01083485  1
  H+  H73  1  0.11908208  0.97314789  0.15541203  1
  H+  H74  1  0.68097556  0.83236398  0.21679575  1
  H+  H75  1  0.63798781  0.61359590  -0.01596147  1
  H+  H76  1  0.92254235  0.36153649  0.91658507  1
  H+  H77  1  0.89258529  0.57657267  0.55870329  1
  H+  H78  1  0.37615962  0.76925013  0.33235919  1
  H+  H79  1  0.61814080  0.72962525  0.82958908  1
  H+  H80  1  0.39163878  0.35532070  -0.00750209  1
  H+  H81  1  0.89032766  0.53370219  0.83980944  1
  H+  H82  1  0.62600733  0.85308933  0.83514724  1
  H+  H83  1  -0.03262810  0.37343736  0.01170492  1
  H+  H84  1  0.97464203  0.38443897  0.51972581  1
  H+  H85  1  1.00535768  0.62346385  0.49120570  1
  H+  H86  1  0.69207799  0.32840324  0.33485506  1
  H+  H87  1  0.47714056  0.61525312  0.83104069  1
  H+  H88  1  0.97732518  0.86636847  0.32492690  1
  H+  H89  1  0.13524005  0.54354116  0.83432160  1
  H+  H90  1  0.77566237  0.11312185  0.17935761  1
  H+  H91  1  0.12118647  0.48242770  0.33396145  1
  H+  H92  1  0.12327371  0.76895042  0.66329585  1
  H+  H93  1  0.12617846  0.01460776  0.83045304  1
  H+  H94  1  0.38354375  0.77667105  0.83633713  1
  H+  H95  1  0.22514010  0.10764821  0.98388414  1
  H+  H96  1  0.64469227  0.88633660  0.48831688  1
  H+  H97  1  0.90045487  0.03479459  0.33503681  1
  H+  H98  1  0.86715266  0.64012549  0.83452826  1
  H+  H99  1  0.63427618  0.51225881  0.34060569  1
  H+  H100  1  0.38426856  0.62820332  0.51758740  1
  H+  H101  1  0.04237748  0.26308053  0.93474840  1
  H+  H102  1  0.65729459  0.53475151  0.19827064  1
  H+  H103  1  0.27940193  0.38534869  0.00821607  1
  H+  H104  1  0.11637318  0.14704666  0.48979070  1
  H+  H105  1  0.61984009  0.38091334  -0.01604289  1
  H+  H106  1  0.13776266  0.11294823  0.32040415  1
  H+  H107  1  0.91734900  0.58138541  -0.06328069  1
  H+  H108  1  0.51881720  0.13169463  0.15571947  1
  H+  H109  1  0.20218796  0.84913024  0.50651991  1
  H+  H110  1  0.12413130  0.76799360  0.32849663  1
  H+  H111  1  0.88452034  0.86378113  0.84028961  1
  H+  H112  1  0.12905650  0.06875575  0.56584167  1
  H+  H113  1  0.38274794  0.12255267  -0.01862266  1
  H+  H114  1  0.54086123  0.63492210  0.31001117  1
  H+  H115  1  0.06679840  0.41912077  0.21875232  1
  H+  H116  1  0.35981960  0.64272716  0.82016929  1
  H+  H117  1  0.36739518  0.38837969  0.81946706  1
  H+  H118  1  0.13125782  0.51744617  0.51215677  1
  H+  H119  1  0.00587817  0.62914095  1.00968171  1
  H+  H120  1  0.36015130  0.65677913  -0.00884334  1
  H+  H121  1  0.06025344  0.35106688  0.47831696  1
  H+  H122  1  0.82100492  0.16311753  0.34583973  1
  H+  H123  1  0.63079368  0.52504836  0.83461349  1
  H+  H124  1  0.10791020  0.88963277  0.82149064  1
  H+  H125  1  0.87055054  0.98524966  0.50563777  1
  H+  H126  1  0.13518146  0.86677604  0.97555743  1
  H+  H127  1  0.35600878  0.65005790  0.66852039  1
  H+  H128  1  0.88766187  0.30038226  0.86049686  1
  H+  H129  1  0.63872282  0.37043158  0.83743422  1
  H+  H130  1  0.41387390  0.56552803  0.66624921  1
  H+  H131  1  0.00294069  0.87357319  0.49120363  1
  H+  H132  1  0.64369400  0.26891610  0.51487476  1
  H+  H133  1  0.36267166  0.37056804  0.33834786  1
  H+  H134  1  0.88863318  0.86569668  0.32556758  1
  H+  H135  1  0.37424146  0.25397600  0.33539133  1
  H+  H136  1  0.77389899  0.39680969  0.82578625  1
  H+  H137  1  0.91112985  0.13101301  0.33548450  1
  H+  H138  1  0.26163432  0.64157635  0.66977042  1
  H+  H139  1  0.38554542  0.87830595  -0.01754210  1
  H+  H140  1  0.89030510  0.77781696  0.83994319  1
  H+  H141  1  0.77400229  0.63645024  1.00264557  1
  H+  H142  1  0.48305455  0.36071257  0.98367127  1
  H+  H143  1  0.52343183  0.36379729  0.49813368  1
  H+  H144  1  0.22583602  0.36313153  0.17102507  1
  H+  H145  1  1.03678242  0.38854052  0.33536627  1
  H+  H146  1  0.41681917  0.84349483  -0.07316703  1
  H+  H147  1  0.34056238  0.97429076  0.34824223  1
  H+  H148  1  0.06450072  0.66675985  1.07463738  1
  H+  H149  1  0.95352433  0.56071611  0.34642310  1
  H+  H150  1  0.06615550  0.65760041  0.40122376  1
  H+  H151  1  0.22597235  0.87349438  0.96750762  1
  H+  H152  1  0.41788200  0.33471001  0.89401464  1
  H+  H153  1  0.29713526  0.09385163  0.67462628  1
  H+  H154  1  0.12443088  0.22925126  0.33106405  1
  H+  H155  1  0.68623372  0.09156354  0.34077187  1
  H+  H156  1  0.55211975  0.11589159  0.51057822  1
  H+  H157  1  0.38411280  0.35508196  0.18200170  1
  H+  H158  1  0.47195972  0.86594634  0.83504782  1
  H+  H159  1  0.52362145  0.88782679  0.67278470  1
  H+  H160  1  0.61217450  0.70786547  0.15226448  1
  H+  H161  1  0.38664607  1.01980981  0.18729766  1
  H+  H162  1  0.09186904  0.87401945  0.49183935  1
  H+  H163  1  0.47923738  0.64071681  0.51152187  1
  H+  H164  1  0.23320361  0.37539935  0.82111971  1
  H+  H165  1  0.10146762  0.73016120  0.16349787  1
  H+  H166  1  0.10062819  0.39880630  0.04753163  1
  H+  H167  1  0.85567512  0.20952755  0.67460612  1
  H+  H168  1  0.39410539  0.49302898  0.32985102  1
  H+  H169  1  0.43621154  0.10003805  0.49895812  1
  H+  H170  1  0.34692738  0.87854844  0.83159138  1
  H+  H171  1  0.11953823  0.61948786  0.66174202  1
  H+  H172  1  0.14871253  0.36871037  0.32168460  1
  H+  H173  1  0.77811711  0.64048277  0.82679292  1
  H+  H174  1  -0.03150394  0.61365042  0.17153453  1
  H+  H175  1  0.86634529  0.60725480  0.49861131  1
  H+  H176  1  0.63976761  0.28159465  0.82981735  1
  H+  H177  1  0.38271057  0.78120741  0.66196662  1
  H+  H178  1  0.34642764  0.88807813  0.49829577  1
  H+  H179  1  0.78509683  0.89868388  0.35187471  1
  H+  H180  1  0.52882895  0.64314582  -0.00453330  1
  H+  H181  1  0.64044196  0.52476021  0.97893218  1
  H+  H182  1  0.63027184  0.56640280  0.42282864  1
  H+  H183  1  0.50530632  0.87352314  0.34417060  1
  H+  H184  1  0.66992111  0.12900664  0.50212476  1
  H+  H185  1  1.03095611  0.88315165  0.15549607  1
  H+  H186  1  0.86610031  0.40298863  0.83130161  1
  H+  H187  1  0.77989364  0.89426956  0.67788817  1
  H+  H188  1  0.85968173  0.18912769  0.81274869  1
  H+  H189  1  0.13739872  0.86377098  0.17266115  1
  H+  H190  1  0.87501416  0.73283459  0.33616559  1
  H+  H191  1  0.36783298  0.47652523  0.16711525  1
  H+  H192  1  0.61060425  0.34011221  0.32836341  1
  H+  H193  1  0.99185298  0.13537517  0.82659336  1
  H+  H194  1  0.45245257  0.09470397  0.34097610  1
  H+  H195  1  0.11034718  0.38025914  0.17656588  1
  H+  H196  1  0.88499521  0.76438003  0.66155701  1
  H+  H197  1  0.17191692  0.27927443  0.48719803  1
  H+  H198  1  0.26279787  0.35355458  0.65982446  1
  H+  H199  1  0.72552238  0.59898709  0.34124777  1
  H+  H200  1  0.14757520  0.35279537  0.62275007  1
  H+  H201  1  0.90315500  0.11138999  0.18439204  1
  H+  H202  1  0.13179193  0.02064905  0.32439515  1
  H+  H203  1  0.83984780  0.08204978  0.62006337  1
  H+  H204  1  0.37644297  0.78399610  0.51248512  1
  H+  H205  1  0.76602038  0.90328225  0.01406704  1
  H+  H206  1  0.86554489  0.89321855  0.50062677  1
  H+  H207  1  0.73602749  0.88551697  0.48670884  1
  H+  H208  1  0.11940476  0.34826271  0.95805134  1
  H+  H209  1  0.64357965  0.27117079  0.66212478  1
  H+  H210  1  0.61599623  0.47090947  0.67730383  1
  H+  H211  1  0.39769511  0.49844133  0.51131812  1
  H+  H212  1  0.88241243  0.60894661  -0.00492796  1
  H+  H213  1  0.87676811  1.03689152  0.00053845  1
  H+  H214  1  0.76122019  0.37724692  0.67653877  1
  H+  H215  1  0.85535320  0.20556729  0.17882216  1
  H+  H216  1  0.10727295  0.00589251  0.66112063  1
  H+  H217  1  0.53916421  0.14251730  0.66515727  1
  H+  H218  1  0.10506219  0.20855036  0.99555215  1
  H+  H219  1  0.91462513  0.36836112  0.33294538  1
  H+  H220  1  1.01710239  0.88812484  0.82613820  1
  H+  H221  1  0.42177662  0.59350226  0.34400157  1
  H+  H222  1  0.36468995  0.22495529  0.00325052  1
  H+  H223  1  0.21701105  0.62688463  0.00268650  1
  H+  H224  1  0.18477626  0.10195620  0.66705822  1
  H+  H225  1  -0.04244597  0.35889059  0.66929429  1
  H+  H226  1  0.09485885  0.21342270  0.66178677  1
  H+  H227  1  0.15940457  0.82953719  0.26949014  1
  H+  H228  1  0.47459717  0.85555558  0.17174516  1
  H+  H229  1  0.88160768  0.37088394  0.51031879  1
  H+  H230  1  0.41565554  0.37691157  0.52213973  1
  H+  H231  1  0.26094323  0.64120559  0.50920384  1
  H+  H232  1  0.62582549  0.11901094  0.83562478  1
  H+  H233  1  0.87351701  0.62118322  0.16667925  1
  H+  H234  1  0.12173586  0.61302392  0.32152606  1
  H+  H235  1  0.13140745  0.53759564  0.02037717  1
  H+  H236  1  0.88774180  0.12052662  0.51775197  1
  H+  H237  1  0.34605151  0.19765742  0.67968450  1
  H+  H238  1  0.00175174  0.10162620  0.83743385  1
  H+  H239  1  0.32292166  0.40557643  0.49431577  1
  H+  H240  1  0.36494323  0.23107318  0.50137260  1
  H+  H241  1  0.12908334  0.77260699  0.82698289  1
  H+  H242  1  0.46555542  0.87466417  0.51031807  1
  H+  H243  1  0.27995708  0.38295674  0.33168320  1
  H+  H244  1  0.07012385  0.90925721  0.72893543  1
  H+  H245  1  0.83321494  -0.01249053  0.85250174  1
  H+  H246  1  0.60979120  0.75040970  0.48181732  1
  H+  H247  1  1.09371580  0.62099101  0.49423088  1
  H+  H248  1  0.61219675  0.97672677  0.67098761  1
  H+  H249  1  0.60740805  0.21786221  0.15286973  1
  H+  H250  1  0.33353393  -0.02882905  0.49996975  1
  H+  H251  1  0.38028028  0.32955865  0.66767838  1
  H+  H252  1  0.42522565  0.63087432  0.19435525  1
  H+  H253  1  0.61372909  0.38320284  0.18470530  1
  H+  H254  1  0.10881235  0.64760769  0.82020180  1
  H+  H255  1  0.60697880  0.97173351  0.82441145  1
  H+  H256  1  0.58207529  0.20209703  0.34875882  1
  H+  H257  1  0.60039612  0.88290279  0.35437676  1
  H+  H258  1  0.87595336  0.52064693  0.17045730  1
  H+  H259  1  0.47124762  0.12184601  0.97632704  1
  H+  H260  1  0.51042136  0.36687244  0.33894509  1
  H+  H261  1  0.38905563  0.52648504  0.83011602  1
  H+  H262  1  0.89762041  0.77361188  0.99181044  1
  H+  H263  1  1.03448405  0.14054475  0.33710027  1
  H+  H264  1  0.76398995  0.86728519  0.82401653  1
  H+  H265  1  0.71308020  0.11206600  0.83644349  1
  H+  H266  1  0.22244894  0.62485280  0.16013807  1
  H+  H267  1  0.33811257  0.41363850  0.75819260  1
  H+  H268  1  1.02623012  0.40077448  0.83786222  1
  H+  H269  1  0.71893954  0.35629893  0.17897791  1
  H+  H270  1  0.10233460  0.64146948  0.16002347  1
  H+  H271  1  0.83862580  0.44047175  0.33145337  1
  H+  H272  1  0.13649426  0.01707119  0.98385820  1
  H+  H273  1  0.85186914  0.38612137  1.01354385  1
  H+  H274  1  0.41771200  0.13545428  0.66240878  1
  H+  H275  1  0.10513030  0.01374987  0.50515039  1
  H+  H276  1  0.03723560  0.13834727  0.16176112  1
  H+  H277  1  0.87177617  0.72683626  0.16217628  1
  H+  H278  1  0.85434260  0.37263754  0.67703280  1
  H+  H279  1  0.38407478  0.10708896  0.17954332  1
  H+  H280  1  0.33767758  0.62031085  0.13231582  1
  H+  H281  1  0.26196023  0.30205773  0.04147316  1
  H+  H282  1  0.24629405  0.87814554  0.34692157  1
  H+  H283  1  0.87794368  0.23676927  0.49483268  1
  H+  H284  1  0.36272216  -0.00283266  0.97754789  1
  H+  H285  1  0.52417559  0.15963156  0.81317289  1
  H+  H286  1  0.22271252  0.85636248  0.18000825  1
  H+  H287  1  0.63919125  0.35449258  0.50954755  1
  H+  H288  1  0.92393158  0.83053970  0.23086867  1
  H+  H289  1  0.16095191  0.83449571  0.88887331  1
  H+  H290  1  0.84885156  0.66390639  0.73913541  1
  H+  H291  1  0.64873273  0.06937377  0.23963818  1
  H+  H292  1  0.31499137  0.94112225  0.03466394  1
  H+  H293  1  0.10533485  0.63476830  1.01661119  1
  H+  H294  1  0.65058652  0.08397066  0.91804820  1
  H+  H295  1  0.38323873  -0.00810745  0.68441716  1
  H+  H296  1  0.58134569  0.91562067  0.76368837  1
  H+  H297  1  0.68831695  0.58690114  0.61108775  1
  H+  H298  1  0.90498943  0.32423225  0.24211595  1
  H+  H299  1  0.64285187  0.78217635  0.34123980  1
  H+  H300  1  0.57973227  0.92775875  0.05972793  1
  H+  H301  1  0.64704264  0.87231994  0.66150980  1
  H+  H302  1  0.41485820  0.81904003  0.26994640  1
  H+  H303  1  0.41705329  0.09202211  0.59881229  1
  H+  H304  1  0.62698189  0.13937827  0.66646914  1
  H+  H305  1  0.13843209  0.27065004  0.16577676  1
  H+  H306  1  0.58490027  0.43131294  0.13866009  1
  H+  H307  1  0.63383100  0.64427916  0.67809863  1
  H+  H308  1  0.22277982  0.63101776  0.83179313  1
  H+  H309  1  0.30671597  0.91323044  0.41413937  1
  H+  H310  1  0.57107150  0.38854989  0.39746681  1
  H+  H311  1  0.41961362  0.59837163  0.92095822  1
  H+  H312  1  0.43227218  0.57226238  0.24394348  1
  H+  H313  1  0.40026391  0.07252899  0.27800464  1
  H+  H314  1  0.16260524  0.08008845  0.89154929  1
  H+  H315  1  0.58686145  0.66075530  0.05513559  1
  H+  H316  1  1.00521691  0.67485511  0.62318769  1
  H+  H317  1  0.58982309  0.17460871  0.75880509  1
  H+  H318  1  0.10624113  0.18310469  0.42536232  1
  H+  H319  1  0.34396664  0.12423964  0.35166825  1
  H+  H320  1  0.89720522  0.65782171  0.34475919  1
  H+  H321  1  0.51746205  0.89724019  0.00084340  1
  H+  H322  1  0.32758009  0.67654065  0.08179495  1
  H+  H323  1  0.47289128  0.35587917  0.19006475  1
  H+  H324  1  0.31481428  0.67243849  0.44875936  1
  H+  H325  1  0.33505609  0.41072432  0.11040625  1
  H+  H326  1  0.86639471  0.18547640  0.43101429  1
  H+  H327  1  0.97258247  0.11247502  0.99166646  1
  H+  H328  1  0.14408146  0.82276369  0.60101578  1
  H+  H329  1  0.56769966  0.92452972  0.44103306  1
  H+  H330  1  0.55575627  0.53348351  0.47180254  1
  H+  H331  1  0.61055935  0.74572302  0.24182488  1
  H+  H332  1  0.83039337  0.90849553  0.76745947  1
  H+  H333  1  0.17115725  0.33335528  0.26160764  1
  H+  H334  1  0.40439868  0.30950452  0.27293891  1
  H+  H335  1  0.34699762  0.91541805  0.12146298  1
  H+  H336  1  0.32865984  0.67478270  0.76272034  1
  H+  H337  1  0.10125316  0.41877149  0.42558398  1
  H+  H338  1  0.83271146  0.66730166  0.42525815  1
  H+  H339  1  0.63191453  0.10323650  0.17670769  1
  H+  H340  1  0.67041412  0.32929161  0.92389450  1
  H+  H341  1  0.86737030  0.15212138  -0.00102447  1
  H+  H342  1  0.18899211  0.32248933  0.57322197  1
  H+  H343  1  0.92410231  0.83420425  0.93375990  1
  H+  H344  1  0.15839741  0.32310313  0.86986289  1
  H+  H345  1  0.16989576  0.07700617  0.22900637  1
  H+  H346  1  0.40986506  0.11645482  0.87915017  1
  H+  H347  1  0.59919046  0.41779213  0.04165783  1
  H+  H348  1  0.09170375  0.91749996  0.05670027  1
  H+  H349  1  0.86424932  0.05584031  0.90841167  1
  H+  H350  1  0.65668828  0.82790554  0.89706583  1
  H+  H351  1  0.07403010  0.11867551  0.66789991  1
  H+  H352  1  0.16449030  0.59696781  0.26241228  1
  H+  H353  1  0.88246043  0.28096242  0.99722563  1
  H+  H354  1  0.58574560  0.42181966  0.77008944  1
  H+  H355  1  0.11806302  0.17336258  0.74608110  1
  H+  H356  1  0.24380209  0.87122062  0.82611221  1
  H+  H357  1  0.65399836  0.31152201  0.23542750  1
  H+  H358  1  0.32072317  0.16729523  0.44441286  1
  H+  H359  1  0.90256440  0.82099687  0.56813347  1
  H+  H360  1  0.82908584  0.41455102  0.73882167  1
  H+  H361  1  0.34835474  0.15009663  0.77911225  1
  H+  H362  1  0.82271648  0.13651753  0.72586466  1
  H+  H363  1  0.57441132  0.15302641  0.44177564  1
  H+  H364  1  0.85833067  0.43288919  0.40110689  1
  H+  H365  1  0.06170985  0.42584450  0.74321967  1
  H+  H366  1  0.83007450  0.66210922  0.06401854  1
  H+  H367  1  0.59871384  0.67183607  0.76469262  1
  H+  H368  1  0.57412805  0.16185702  0.05628770  1
  H+  H369  1  0.96948962  0.85546940  0.65756132  1
  H+  H370  1  0.42983480  0.32390636  0.57655323  1
  H+  H371  1  0.85108686  0.47385285  0.01158068  1
  H+  H372  1  0.90143428  0.33083374  0.60798246  1
  H+  H373  1  0.94160536  0.08882644  0.24182176  1
  H+  H374  1  0.14677798  0.57691335  0.57150608  1
  H+  H375  1  0.35895907  0.74531192  -0.00466096  1
  H+  H376  1  0.43757094  0.61760191  0.60376877  1
  H+  H377  1  0.05968675  0.42672702  0.09699040  1
  H+  H378  1  0.83130140  0.93423323  0.07138176  1
  H+  H379  1  0.67442434  0.08319821  0.59601827  1
  H+  H380  1  0.41377964  0.84323199  0.60414469  1
  H+  H381  1  0.08937522  0.16220287  0.09813946  1
  H+  H382  1  0.63531079  0.77813632  0.99090768  1
  H+  H383  1  0.67450805  0.33587926  0.60468629  1
  O2-  O384  1  0.09640524  0.16926881  0.14311517  1
  O2-  O385  1  0.10955583  0.19396231  0.46989049  1
  O2-  O386  1  0.15950951  0.18737624  0.78228238  1
  O2-  O387  1  0.07756502  0.41317154  0.17591760  1
  O2-  O388  1  0.10056700  0.41184061  0.47130138  1
  O2-  O389  1  0.08070383  0.42906717  0.81438802  1
  O2-  O390  1  0.06828565  0.66912153  0.14746841  1
  O2-  O391  1  0.06530660  0.65163971  0.47586113  1
  O2-  O392  1  0.07320217  0.67488810  0.80775423  1
  O2-  O393  1  0.09110771  0.91271674  0.13983043  1
  O2-  O394  1  0.06259619  0.90384883  0.47438289  1
  O2-  O395  1  0.07735871  0.92055327  0.80851424  1
  O2-  O396  1  0.33651438  0.15926552  0.14189472  1
  O2-  O397  1  0.32916341  0.16993108  0.48921022  1
  O2-  O398  1  0.37171888  0.17192499  0.82041893  1
  O2-  O399  1  0.33478655  0.41498031  0.15517557  1
  O2-  O400  1  0.38665960  0.44200709  0.49612673  1
  O2-  O401  1  0.34055517  0.42143928  0.80298611  1
  O2-  O402  1  0.32425085  0.66630224  0.12774865  1
  O2-  O403  1  0.32110533  0.67438958  0.49372841  1
  O2-  O404  1  0.33224585  0.67629944  0.80826548  1
  O2-  O405  1  0.33616752  0.90977633  0.16508257  1
  O2-  O406  1  0.31004219  0.91216621  0.48215062  1
  O2-  O407  1  0.31523181  0.90769185  0.81641467  1
  O2-  O408  1  0.57675861  0.15814854  0.13671361  1
  O2-  O409  1  0.59239458  0.16451981  0.48597888  1
  O2-  O410  1  0.58558975  0.17828312  0.80421918  1
  O2-  O411  1  0.58503555  0.41945444  0.18182143  1
  O2-  O412  1  0.58056249  0.38840483  0.47581767  1
  O2-  O413  1  0.58732337  0.42697029  0.81568512  1
  O2-  O414  1  0.58973492  0.65009887  0.13333174  1
  O2-  O415  1  0.57042014  0.68691808  0.47710655  1
  O2-  O416  1  0.59314527  0.66736648  0.81169450  1
  O2-  O417  1  0.57721047  0.91489453  0.14150388  1
  O2-  O418  1  0.57210262  0.92683106  0.48636085  1
  O2-  O419  1  0.57861700  0.91187479  0.80985592  1
  O2-  O420  1  0.83690034  0.14548510  0.16843882  1
  O2-  O421  1  0.85514866  0.17876465  0.47773107  1
  O2-  O422  1  0.80858605  0.13379335  0.80578191  1
  O2-  O423  1  0.82445183  0.41719570  0.15232876  1
  O2-  O424  1  0.82999788  0.41340682  0.47457024  1
  O2-  O425  1  0.83454260  0.42763154  0.80975914  1
  O2-  O426  1  0.83884449  0.66441140  0.14834227  1
  O2-  O427  1  0.82063443  0.65985097  0.47067825  1
  O2-  O428  1  0.83907869  0.67046136  0.81471791  1
  O2-  O429  1  0.86250946  0.93131845  0.15151888  1
  O2-  O430  1  0.84415987  0.93011261  0.48266007  1
  O2-  O431  1  0.82566979  0.90322825  0.81463695  1
  O2-  O432  1  0.17245633  0.07708518  0.18325656  1
  O2-  O433  1  0.12982335  0.07264411  0.52103619  1
  O2-  O434  1  0.16330313  0.07701165  0.84558576  1
  O2-  O435  1  0.16365530  0.33121363  0.18188312  1
  O2-  O436  1  0.21235744  0.34229562  0.50524772  1
  O2-  O437  1  0.16949542  0.34127515  0.82701360  1
  O2-  O438  1  0.16452302  0.59667468  0.17961140  1
  O2-  O439  1  0.14964650  0.57647087  0.52556561  1
  O2-  O440  1  0.16224940  0.60477505  0.84514767  1
  O2-  O441  1  0.16116181  0.82852730  0.19171040  1
  O2-  O442  1  0.14136185  0.81836284  0.51996978  1
  O2-  O443  1  0.16277918  0.83519358  0.84119964  1
  O2-  O444  1  0.41583973  0.08117129  0.19969093  1
  O2-  O445  1  0.38551568  0.07595418  0.52483863  1
  O2-  O446  1  0.41996204  0.12803273  0.83455014  1
  O2-  O447  1  0.40957222  0.31964304  0.19492992  1
  O2-  O448  1  0.43345934  0.33282824  0.53178509  1
  O2-  O449  1  0.42129467  0.33737201  0.84864417  1
  O2-  O450  1  0.43293611  0.58109897  0.19806134  1
  O2-  O451  1  0.42184866  0.60611820  0.53286608  1
  O2-  O452  1  0.41731708  0.58680902  0.84592148  1
  O2-  O453  1  0.41538444  0.82195478  0.18915852  1
  O2-  O454  1  0.40459109  0.84570763  0.52486843  1
  O2-  O455  1  0.41224163  0.83742031  0.85195238  1
  O2-  O456  1  0.65648041  0.06970395  0.19476077  1
  O2-  O457  1  0.69140400  0.09172304  0.51737545  1
  O2-  O458  1  0.65364322  0.08749136  0.85416457  1
  O2-  O459  1  0.65694705  0.32169536  0.19069440  1
  O2-  O460  1  0.67415396  0.33008767  0.52770073  1
  O2-  O461  1  0.67105628  0.34044748  0.84859415  1
  O2-  O462  1  0.68896081  0.59808861  0.19614999  1
  O2-  O463  1  0.61770710  0.55658030  0.46759399  1
  O2-  O464  1  0.66144482  0.58816544  0.84819012  1
  O2-  O465  1  0.62435219  0.78540104  0.20612146  1
  O2-  O466  1  0.67339975  0.85362673  0.47627789  1
  O2-  O467  1  0.65153647  0.81877111  0.85174887  1
  O2-  O468  1  0.94155351  0.08733114  0.19595027  1
  O2-  O469  1  0.89805957  0.08172553  0.54535208  1
  O2-  O470  1  0.82328682  0.03108426  0.87394892  1
  O2-  O471  1  0.89196769  0.32050295  0.19675162  1
  O2-  O472  1  0.91462104  0.34587259  0.53064520  1
  O2-  O473  1  0.92278582  0.36120009  0.87016595  1
  O2-  O474  1  0.90565124  0.58328641  0.18336164  1
  O2-  O475  1  0.89645377  0.57628289  0.51447577  1
  O2-  O476  1  0.91950292  0.59072977  0.86007894  1
  O2-  O477  1  0.92534756  0.82713329  0.18522468  1
  O2-  O478  1  0.90165878  0.82511242  0.52239031  1
  O2-  O479  1  0.92049805  0.83823007  0.85449897  1
  O2-  O480  1  0.16614438  0.07933240  0.30645733  1
  O2-  O481  1  0.12955356  0.06694998  0.64681984  1
  O2-  O482  1  0.16568135  0.07812926  0.96714231  1
  O2-  O483  1  0.17635289  0.33590861  0.30665589  1
  O2-  O484  1  0.17373714  0.31697585  0.61913085  1
  O2-  O485  1  0.10364804  0.29074746  0.94417792  1
  O2-  O486  1  0.15844148  0.58932882  0.30721983  1
  O2-  O487  1  0.15211657  0.58871759  0.64698048  1
  O2-  O488  1  0.15307106  0.59472244  1.00198145  1
  O2-  O489  1  0.15851250  0.82924099  0.31522266  1
  O2-  O490  1  0.14577828  0.82806565  0.64588793  1
  O2-  O491  1  0.16487626  0.83846800  0.95609063  1
  O2-  O492  1  0.39291536  0.06616553  0.32337524  1
  O2-  O493  1  0.43527325  0.09795381  0.64272526  1
  O2-  O494  1  0.41275535  0.09632916  0.95856892  1
  O2-  O495  1  0.40966779  0.31387622  0.31815837  1
  O2-  O496  1  0.41418912  0.30176651  0.65602186  1
  O2-  O497  1  0.42099279  0.32830833  0.97212946  1
  O2-  O498  1  0.43474048  0.55992057  0.31581202  1
  O2-  O499  1  0.44449530  0.62368315  0.65023718  1
  O2-  O500  1  0.42141603  0.60629504  0.96664651  1
  O2-  O501  1  0.41411224  0.82637424  0.31449133  1
  O2-  O502  1  0.41958704  0.84216265  0.64925909  1
  O2-  O503  1  0.41630366  0.84650476  0.97283381  1
  O2-  O504  1  0.63107446  0.06267327  0.31992035  1
  O2-  O505  1  0.66669652  0.08176599  0.64106650  1
  O2-  O506  1  0.65013263  0.08244748  0.96749895  1
  O2-  O507  1  0.63627382  0.30275523  0.31490606  1
  O2-  O508  1  0.67291351  0.33448495  0.65051625  1
  O2-  O509  1  0.66471167  0.32624427  0.96959637  1
  O2-  O510  1  0.66348439  0.57527775  0.34804215  1
  O2-  O511  1  0.68627614  0.58396266  0.65538546  1
  O2-  O512  1  0.67077124  0.58650728  0.96697953  1
  O2-  O513  1  0.66865932  0.84238767  0.35558672  1
  O2-  O514  1  0.68224046  0.84802306  0.64626252  1
  O2-  O515  1  0.66174803  0.83744184  0.97417914  1
  O2-  O516  1  0.93381426  0.09358762  0.31745738  1
  O2-  O517  1  0.82088820  0.04494883  0.58351654  1
  O2-  O518  1  0.91319748  0.09474362  0.97933526  1
  O2-  O519  1  0.93874588  0.33608883  0.31278994  1
  O2-  O520  1  0.89714765  0.32575088  0.65344485  1
  O2-  O521  1  0.91277963  0.34616581  0.98870052  1
  O2-  O522  1  0.97934207  0.62253153  0.33469783  1
  O2-  O523  1  0.98740436  0.63307013  0.65632509  1
  O2-  O524  1  0.91405682  0.57826518  0.98255133  1
  O2-  O525  1  0.91681976  0.83425180  0.30855515  1
  O2-  O526  1  0.90789522  0.82220174  0.64350658  1
  O2-  O527  1  0.93041074  0.83401083  0.97868932  1
  O2-  O528  1  0.08510984  0.15499205  0.01851580  1
  O2-  O529  1  0.09771255  0.16959685  0.34711573  1
  O2-  O530  1  0.06373455  0.16252727  0.68786074  1
  O2-  O531  1  0.06740512  0.42776577  0.05243282  1
  O2-  O532  1  0.09909817  0.42311991  0.34940068  1
  O2-  O533  1  0.05700311  0.42045769  0.69705711  1
  O2-  O534  1  0.06653496  0.66234725  0.02853836  1
  O2-  O535  1  0.06962903  0.66212498  0.35473152  1
  O2-  O536  1  0.07215700  0.66543944  0.68745725  1
  O2-  O537  1  0.09012801  0.91988863  0.01161905  1
  O2-  O538  1  0.07602038  0.91722988  0.35391560  1
  O2-  O539  1  0.06843544  0.90794712  0.68374164  1
  O2-  O540  1  0.33069310  0.16398533  0.01678207  1
  O2-  O541  1  0.31662421  0.15774665  0.36480061  1
  O2-  O542  1  0.30990558  0.14193504  0.70145792  1
  O2-  O543  1  0.30603128  0.36193546  0.03482821  1
  O2-  O544  1  0.33959057  0.40955231  0.34812210  1
  O2-  O545  1  0.32248767  0.38329974  0.67827273  1
  O2-  O546  1  0.32886076  0.68363396  0.00964359  1
  O2-  O547  1  0.30634554  0.66599659  0.36836891  1
  O2-  O548  1  0.32201555  0.67463204  0.68530387  1
  O2-  O549  1  0.33241671  0.93581985  -0.00620642  1
  O2-  O550  1  0.30640636  0.91325002  0.36654427  1
  O2-  O551  1  0.35454829  0.93515544  0.70418817  1
  O2-  O552  1  0.57603079  0.16264326  0.01058685  1
  O2-  O553  1  0.55358632  0.14374190  0.36778300  1
  O2-  O554  1  0.59866404  0.17241728  0.68217144  1
  O2-  O555  1  0.59161259  0.41544408  -0.00226712  1
  O2-  O556  1  0.57267804  0.39628614  0.35231058  1
  O2-  O557  1  0.58421287  0.41142255  0.69352794  1
  O2-  O558  1  0.58888808  0.66728991  0.00983823  1
  O2-  O559  1  0.60110833  0.68084017  0.30195830  1
  O2-  O560  1  0.60625977  0.67593073  0.69496449  1
  O2-  O561  1  0.57929759  0.92978418  0.01436335  1
  O2-  O562  1  0.56504512  0.91074877  0.36264727  1
  O2-  O563  1  0.58367807  0.91803097  0.68910044  1
  O2-  O564  1  0.83619889  0.18390307  0.00909135  1
  O2-  O565  1  0.87898643  0.19302639  0.36199667  1
  O2-  O566  1  0.82682458  0.14692000  0.68124987  1
  O2-  O567  1  0.81776643  0.41358767  0.02708037  1
  O2-  O568  1  0.88451651  0.44942275  0.35926280  1
  O2-  O569  1  0.82450940  0.40638970  0.69239378  1
  O2-  O570  1  0.83319369  0.66087652  0.01913218  1
  O2-  O571  1  0.85218554  0.67290118  0.35244004  1
  O2-  O572  1  0.85016262  0.65853326  0.69371628  1
  O2-  O573  1  0.82273597  0.94706366  0.02932853  1
  O2-  O574  1  0.84788618  0.92668061  0.35956511  1
  O2-  O575  1  0.83669590  0.91504791  0.69864722  1
