# generated using pymatgen
data_H2O
_symmetry_space_group_name_H-M   'P 1'
_cell_length_a   17.97506021
_cell_length_b   17.97850840
_cell_length_c   21.99735869
_cell_angle_alpha   89.98752582
_cell_angle_beta   89.97063128
_cell_angle_gamma   119.99666610
_symmetry_Int_Tables_number   1
_chemical_formula_structural   H2O
_chemical_formula_sum   'H384 O192'
_cell_volume   6156.58168818
_cell_formula_units_Z   192
loop_
 _symmetry_equiv_pos_site_id
 _symmetry_equiv_pos_as_xyz
  1  'x, y, z'
loop_
 _atom_type_symbol
 _atom_type_oxidation_number
  H+  1.0
  O2-  -2.0
loop_
 _atom_site_type_symbol
 _atom_site_label
 _atom_site_symmetry_multiplicity
 _atom_site_fract_x
 _atom_site_fract_y
 _atom_site_fract_z
 _atom_site_occupancy
  H+  H0  1  0.36113600  0.46708007  1.00882012  1
  H+  H1  1  0.88479855  0.86624130  0.99384845  1
  H+  H2  1  0.70774404  0.84936005  0.64633851  1
  H+  H3  1  0.77027198  0.63729011  0.84093977  1
  H+  H4  1  0.35993271  0.22969169  0.67427611  1
  H+  H5  1  0.09644559  0.94067724  0.27959497  1
  H+  H6  1  0.86658007  0.73366345  0.34266503  1
  H+  H7  1  0.36937314  0.47339916  0.82761316  1
  H+  H8  1  0.88147326  0.76783976  0.67565993  1
  H+  H9  1  0.13472190  0.86684783  0.51122612  1
  H+  H10  1  0.62214132  0.64607986  0.83563215  1
  H+  H11  1  0.87482021  1.01729476  0.33571718  1
  H+  H12  1  0.97385833  0.34317238  0.34871133  1
  H+  H13  1  0.10611207  0.22008880  0.68202245  1
  H+  H14  1  0.71906176  0.36310199  0.65848308  1
  H+  H15  1  0.28383897  0.65547389  0.16421909  1
  H+  H16  1  0.36313404  0.63833846  0.15273306  1
  H+  H17  1  0.03994975  0.25863557  0.49235140  1
  H+  H18  1  0.39303869  0.77137499  0.17007172  1
  H+  H19  1  0.73504180  0.62304918  0.68619089  1
  H+  H20  1  0.11839192  0.72922032  0.67968191  1
  H+  H21  1  0.11396903  0.35795331  0.34153467  1
  H+  H22  1  0.25793005  0.59288453  0.69425014  1
  H+  H23  1  0.73549478  0.61431592  0.32726097  1
  H+  H24  1  0.96854160  0.87703353  0.32356888  1
  H+  H25  1  0.88802012  0.10244698  0.53654878  1
  H+  H26  1  0.87127751  0.99469307  0.83566437  1
  H+  H27  1  0.92447579  0.08638849  0.24964777  1
  H+  H28  1  0.27335367  0.41297700  0.47577908  1
  H+  H29  1  0.98844921  0.25493415  0.65136530  1
  H+  H30  1  0.11710765  0.92098173  -0.00061009  1
  H+  H31  1  0.35812614  0.89586890  0.49595425  1
  H+  H32  1  0.38291202  0.38025934  0.67613805  1
  H+  H33  1  0.67999912  0.78913037  0.17669084  1
  H+  H34  1  0.77741256  0.38407375  0.83313487  1
  H+  H35  1  0.39347660  0.86852485  0.18067536  1
  H+  H36  1  0.63988245  0.27058029  0.99467563  1
  H+  H37  1  0.51377097  0.14718215  0.67222081  1
  H+  H38  1  0.38575213  0.48299572  0.33579224  1
  H+  H39  1  1.05114145  0.89314775  0.19376709  1
  H+  H40  1  0.53829886  0.89438989  0.99188758  1
  H+  H41  1  0.85179855  0.13628625  0.00854083  1
  H+  H42  1  0.14102553  0.77993642  0.83152377  1
  H+  H43  1  0.74850273  0.35604110  0.20127156  1
  H+  H44  1  0.86309609  0.70630905  0.16158223  1
  H+  H45  1  0.12294998  0.48361764  0.67786439  1
  H+  H46  1  0.87896551  1.11831574  0.83534427  1
  H+  H47  1  0.53717816  -0.00653187  0.63461959  1
  H+  H48  1  0.51434240  0.39720118  0.83005095  1
  H+  H49  1  0.13617254  0.99352219  0.19111882  1
  H+  H50  1  0.40184662  0.79067866  0.98936843  1
  H+  H51  1  0.66591718  0.87034886  0.18409420  1
  H+  H52  1  0.74958280  0.37740542  0.29739606  1
  H+  H53  1  0.43563558  0.72574034  0.64047039  1
  H+  H54  1  0.02637347  0.90824083  -0.01846617  1
  H+  H55  1  0.67570646  0.33415321  0.90254363  1
  H+  H56  1  0.23074742  0.60812036  0.99377211  1
  H+  H57  1  0.05581229  0.18439223  0.40939126  1
  H+  H58  1  0.12013532  0.89342895  0.82718131  1
  H+  H59  1  0.62634489  0.88586846  0.47800970  1
  H+  H60  1  0.11663493  0.72494828  0.15952392  1
  H+  H61  1  0.19987661  0.11868639  0.42285040  1
  H+  H62  1  0.32533512  0.15377450  0.07938944  1
  H+  H63  1  0.39797411  0.12560726  -0.01152325  1
  H+  H64  1  0.86167953  0.72641149  0.83942792  1
  H+  H65  1  0.61900551  0.13900625  0.00256163  1
  H+  H66  1  0.74177707  0.59374952  0.17187604  1
  H+  H67  1  0.71594851  0.85925476  0.50792305  1
  H+  H68  1  0.73546604  0.87080970  0.83930240  1
  H+  H69  1  0.38171408  0.35228589  0.84718092  1
  H+  H70  1  0.86981611  0.52069337  -0.00153536  1
  H+  H71  1  0.34909921  0.98699193  0.34926182  1
  H+  H72  1  0.89109040  0.36890884  0.84332434  1
  H+  H73  1  0.26209775  0.85190593  0.97689173  1
  H+  H74  1  0.82159487  0.19161178  0.47193127  1
  H+  H75  1  0.35805371  0.21914980  0.48533820  1
  H+  H76  1  0.59231860  0.95232111  0.31824811  1
  H+  H77  1  0.99010356  0.63184668  0.66388699  1
  H+  H78  1  0.48073667  0.35094973  0.32393041  1
  H+  H79  1  0.46248770  0.83892656  0.31977765  1
  H+  H80  1  0.11452139  0.44960962  0.34232604  1
  H+  H81  1  0.40016556  0.70850328  0.61727931  1
  H+  H82  1  0.23131068  0.34875030  0.66988119  1
  H+  H83  1  0.62293522  0.15464749  0.81901487  1
  H+  H84  1  0.79829802  0.77928550  0.19560670  1
  H+  H85  1  0.38484005  0.39251373  0.34322297  1
  H+  H86  1  0.14329674  0.37003497  0.84387933  1
  H+  H87  1  0.09057787  0.45143725  0.16687906  1
  H+  H88  1  0.96653749  0.85938473  0.65791845  1
  H+  H89  1  0.70089368  0.09596686  0.50520202  1
  H+  H90  1  0.95253201  0.67272334  0.62015280  1
  H+  H91  1  0.07723897  0.92011555  0.59948754  1
  H+  H92  1  0.12266853  0.46436797  0.01208057  1
  H+  H93  1  0.84725856  -0.01685626  0.49663461  1
  H+  H94  1  0.28224998  0.08205189  0.02845619  1
  H+  H95  1  0.77183272  0.38467069  0.48342113  1
  H+  H96  1  0.61769345  0.37756624  0.17151457  1
  H+  H97  1  0.38861238  0.52909306  0.50176684  1
  H+  H98  1  0.21525643  0.14124472  0.99438248  1
  H+  H99  1  0.84418865  0.11155171  0.66405645  1
  H+  H100  1  0.63097045  0.89181599  0.99475765  1
  H+  H101  1  0.09375677  0.65744421  0.41031665  1
  H+  H102  1  0.96836743  0.11773460  0.84879675  1
  H+  H103  1  0.95390335  0.97860441  0.12413389  1
  H+  H104  1  0.15720503  0.86624804  0.19364828  1
  H+  H105  1  0.81461805  0.13699615  0.72502958  1
  H+  H106  1  0.14418397  0.62028148  0.51529282  1
  H+  H107  1  0.63779228  0.90029121  0.68084042  1
  H+  H108  1  0.66420293  0.65033924  0.15586356  1
  H+  H109  1  0.61864093  0.47078919  0.46617572  1
  H+  H110  1  0.29234131  0.88438953  0.17520526  1
  H+  H111  1  0.37494349  0.74643975  0.31937727  1
  H+  H112  1  0.63662333  0.35847512  0.99607721  1
  H+  H113  1  0.88383786  0.89593327  0.15841162  1
  H+  H114  1  0.35508907  0.37236443  0.00899021  1
  H+  H115  1  0.70963285  0.09662897  0.30460861  1
  H+  H116  1  0.12026333  1.06385394  0.30130583  1
  H+  H117  1  0.33855308  0.57939892  0.68667018  1
  H+  H118  1  0.61824430  0.23598677  0.31910625  1
  H+  H119  1  0.41975586  0.56857312  0.60003162  1
  H+  H120  1  0.62924421  0.51687550  0.99907365  1
  H+  H121  1  0.14324983  0.85665854  0.06288049  1
  H+  H122  1  0.37086303  0.11377739  0.52588578  1
  H+  H123  1  0.11143226  0.72633897  0.50274681  1
  H+  H124  1  0.64257489  0.28066920  0.83990322  1
  H+  H125  1  0.61374988  0.39090510  0.67070030  1
  H+  H126  1  0.73493824  0.61078604  0.48849045  1
  H+  H127  1  0.71691969  0.60795017  -0.00133000  1
  H+  H128  1  0.24815546  0.15120715  0.32914158  1
  H+  H129  1  0.26567520  0.37526117  0.16675644  1
  H+  H130  1  0.27600156  0.38701471  0.82496219  1
  H+  H131  1  1.01839637  0.13750210  0.17501880  1
  H+  H132  1  0.96292088  0.86634047  0.51762275  1
  H+  H133  1  0.23245204  0.86757428  0.83076084  1
  H+  H134  1  0.10897407  0.14562668  0.83192967  1
  H+  H135  1  0.39357839  0.39805266  0.50903620  1
  H+  H136  1  0.38908837  0.10513622  0.18414786  1
  H+  H137  1  0.37282818  0.64505229  0.49924990  1
  H+  H138  1  0.32091614  0.92669890  0.40839987  1
  H+  H139  1  0.89000697  0.52345119  0.83894531  1
  H+  H140  1  0.38475278  0.26511676  0.84475415  1
  H+  H141  1  0.51877660  0.37686019  1.01575166  1
  H+  H142  1  0.87525517  0.86514119  0.33654935  1
  H+  H143  1  0.15535059  0.64516120  0.18369225  1
  H+  H144  1  0.76245055  0.87790488  0.34630961  1
  H+  H145  1  0.12871151  0.26758943  0.17497568  1
  H+  H146  1  0.60539447  0.12659748  0.20346781  1
  H+  H147  1  0.66748670  0.33963902  0.56063579  1
  H+  H148  1  0.62024367  0.46628491  0.16659211  1
  H+  H149  1  0.54658384  0.88297768  0.17514757  1
  H+  H150  1  0.53236282  0.14131047  0.00127008  1
  H+  H151  1  0.89481160  0.35709471  0.33281380  1
  H+  H152  1  0.24395043  0.36848104  -0.00344967  1
  H+  H153  1  0.09829534  0.81851323  1.06307644  1
  H+  H154  1  0.37596243  0.98688655  -0.00354548  1
  H+  H155  1  0.61396159  0.21854120  0.19855020  1
  H+  H156  1  0.39210531  0.90832197  -0.00245472  1
  H+  H157  1  0.35267975  0.98242568  0.50628548  1
  H+  H158  1  0.47706692  0.60205886  0.66188816  1
  H+  H159  1  0.93767515  0.36526461  0.16831094  1
  H+  H160  1  0.48119124  0.45730008  0.53989118  1
  H+  H161  1  0.47943805  0.11050230  0.19955362  1
  H+  H162  1  0.63007794  0.84896770  0.31999232  1
  H+  H163  1  0.12180894  0.62316191  1.01166949  1
  H+  H164  1  0.86377107  0.39558522  0.01700222  1
  H+  H165  1  0.46095488  0.11180066  0.52294356  1
  H+  H166  1  0.86461956  0.63926220  0.69216283  1
  H+  H167  1  0.28515989  0.64874059  0.50168992  1
  H+  H168  1  -0.01542701  0.61295008  0.33644064  1
  H+  H169  1  0.60281367  0.71782297  1.00903378  1
  H+  H170  1  0.63960821  0.82399549  0.59347311  1
  H+  H171  1  0.63188025  0.98893845  0.68232175  1
  H+  H172  1  0.27640062  0.73051698  0.02860955  1
  H+  H173  1  0.72519262  0.85891500  0.99803479  1
  H+  H174  1  0.82898943  0.10577049  0.47079751  1
  H+  H175  1  0.62876239  0.27709336  0.65469728  1
  H+  H176  1  0.22693520  0.50102915  0.45158718  1
  H+  H177  1  0.01692634  0.12954800  0.67744418  1
  H+  H178  1  0.88019811  0.45261459  0.16457650  1
  H+  H179  1  0.61357619  0.64579997  0.68471197  1
  H+  H180  1  0.37782849  0.47389565  0.67496457  1
  H+  H181  1  0.13701399  0.03430001  0.84275045  1
  H+  H182  1  0.13120304  0.71113981  0.34893234  1
  H+  H183  1  0.22378109  0.86688767  0.51074882  1
  H+  H184  1  0.33438494  0.65809772  0.39973190  1
  H+  H185  1  0.84967654  -0.02713790  1.00382448  1
  H+  H186  1  0.47955657  0.11572049  0.83419676  1
  H+  H187  1  0.82444375  0.41670668  0.38016679  1
  H+  H188  1  0.12618350  0.12568378  0.45854240  1
  H+  H189  1  0.47475276  0.87263535  0.48292569  1
  H+  H190  1  0.62682100  0.76854434  0.49872315  1
  H+  H191  1  0.99355467  0.12993145  0.46519100  1
  H+  H192  1  0.38073866  0.97491391  0.18247781  1
  H+  H193  1  0.14684669  0.72079652  0.00273492  1
  H+  H194  1  0.46679688  0.59647224  1.00426467  1
  H+  H195  1  -0.00353914  0.25552625  0.61777152  1
  H+  H196  1  0.89965223  0.62060474  0.33224562  1
  H+  H197  1  0.27337679  0.13789240  0.82737706  1
  H+  H198  1  0.61498248  0.48129407  0.67610677  1
  H+  H199  1  0.62522009  0.89187398  0.83156833  1
  H+  H200  1  0.62832396  0.97130661  0.18790782  1
  H+  H201  1  0.62470306  0.38618850  0.31401754  1
  H+  H202  1  0.93744118  0.30314132  0.50074222  1
  H+  H203  1  0.48354577  0.61431223  0.31500023  1
  H+  H204  1  0.26748414  0.61452905  0.34434004  1
  H+  H205  1  0.39181304  0.60787896  0.32135443  1
  H+  H206  1  0.83592383  0.35388783  0.66805547  1
  H+  H207  1  0.13486089  0.58959723  0.34045587  1
  H+  H208  1  0.73311549  0.11747589  -0.00900585  1
  H+  H209  1  0.59793892  0.21752201  0.50612759  1
  H+  H210  1  0.36626379  0.90418722  0.66476759  1
  H+  H211  1  1.02401672  0.63888401  0.82973668  1
  H+  H212  1  0.41223232  0.78684290  0.82767896  1
  H+  H213  1  0.89587898  0.21497271  0.78327612  1
  H+  H214  1  0.86834570  0.63358064  0.49486930  1
  H+  H215  1  0.84015350  0.91876211  0.06362560  1
  H+  H216  1  0.61760787  0.72362485  0.33160500  1
  H+  H217  1  0.89919509  0.03766614  0.18515110  1
  H+  H218  1  0.14257294  0.36243428  0.99864934  1
  H+  H219  1  0.08288559  0.35626965  0.50621368  1
  H+  H220  1  0.40416081  0.60999410  0.84263357  1
  H+  H221  1  1.14269226  0.42227836  0.42476391  1
  H+  H222  1  -0.01401147  0.58825415  0.15619808  1
  H+  H223  1  0.87877317  0.00362502  0.64993876  1
  H+  H224  1  0.84154538  0.20946971  0.33253259  1
  H+  H225  1  0.59315595  0.13347678  0.66682532  1
  H+  H226  1  0.37365271  0.52109875  0.16541107  1
  H+  H227  1  0.98094938  0.36137006  1.00198577  1
  H+  H228  1  0.42375098  0.35173006  0.60263900  1
  H+  H229  1  0.86881605  0.10177623  0.32710759  1
  H+  H230  1  0.48526930  0.37048508  0.66167401  1
  H+  H231  1  0.02825146  0.39206133  0.83250405  1
  H+  H232  1  0.84413543  0.86697709  0.67003143  1
  H+  H233  1  0.22736726  0.61417012  0.83847766  1
  H+  H234  1  0.13836247  0.27840626  0.84391298  1
  H+  H235  1  0.08494961  0.66825512  0.73935146  1
  H+  H236  1  0.13938106  0.82888993  0.32556154  1
  H+  H237  1  0.66188420  0.58500854  0.90637351  1
  H+  H238  1  0.47558269  0.35474863  0.17748359  1
  H+  H239  1  0.11421380  0.64034211  0.83009136  1
  H+  H240  1  0.08645712  0.14532221  1.00978520  1
  H+  H241  1  0.60468372  0.63024732  1.01003036  1
  H+  H242  1  0.61499909  0.01011948  0.50233326  1
  H+  H243  1  0.21984884  0.11097418  0.67686456  1
  H+  H244  1  0.34658249  0.41464721  0.74213119  1
  H+  H245  1  0.11709875  0.18905492  0.30878481  1
  H+  H246  1  0.46080304  0.85422089  0.64481020  1
  H+  H247  1  0.52745923  0.39012309  0.47543160  1
  H+  H248  1  0.58880029  0.12443933  0.50885220  1
  H+  H249  1  0.61425889  0.63823351  0.47858170  1
  H+  H250  1  0.38029885  0.03176048  0.66988723  1
  H+  H251  1  0.13190742  0.05173723  0.97961695  1
  H+  H252  1  0.91251972  0.30213085  0.63006315  1
  H+  H253  1  0.81930899  0.22937363  0.16616502  1
  H+  H254  1  0.33757015  0.22267667  0.35287322  1
  H+  H255  1  0.76548919  1.16059289  0.83235986  1
  H+  H256  1  0.32480605  0.69413799  0.06804514  1
  H+  H257  1  0.84662094  0.88919221  0.50366588  1
  H+  H258  1  0.40012710  0.87069751  0.83181208  1
  H+  H259  1  0.67435775  0.97331816  0.44199200  1
  H+  H260  1  0.88489426  0.51233733  0.49906740  1
  H+  H261  1  0.14077690  0.61697207  0.67046000  1
  H+  H262  1  0.80545417  0.17655252  0.10695404  1
  H+  H263  1  0.15390566  0.06740716  0.12791571  1
  H+  H264  1  0.77247524  0.38753021  0.01126898  1
  H+  H265  1  0.27299422  0.12834401  0.16320147  1
  H+  H266  1  0.22620043  0.69599955  0.23338265  1
  H+  H267  1  0.37143864  0.97748186  0.82566779  1
  H+  H268  1  0.88736192  0.61142357  0.84276458  1
  H+  H269  1  0.13419616  0.86301918  0.65615681  1
  H+  H270  1  0.86304290  0.45265958  0.67014952  1
  H+  H271  1  0.97939081  0.86515458  0.84264672  1
  H+  H272  1  0.86546054  0.72299544  0.49953637  1
  H+  H273  1  0.63073131  0.53443224  0.84234161  1
  H+  H274  1  0.36206683  0.11467413  0.33754772  1
  H+  H275  1  0.02542106  0.63261598  0.50036039  1
  H+  H276  1  0.35906029  0.14054710  0.67680988  1
  H+  H277  1  0.95110740  0.10413521  0.99998672  1
  H+  H278  1  0.63692048  0.35854147  0.49684208  1
  H+  H279  1  0.37665206  0.25805511  0.99921927  1
  H+  H280  1  0.10720833  0.13616660  0.16237841  1
  H+  H281  1  0.85535404  0.37741998  0.47464995  1
  H+  H282  1  0.26652433  0.14902378  0.50448281  1
  H+  H283  1  0.10803847  0.99131719  0.47780114  1
  H+  H284  1  0.15191501  0.36328820  0.67227404  1
  H+  H285  1  0.63406827  -0.00776859  0.98778429  1
  H+  H286  1  0.85867089  0.22953834  0.00725795  1
  H+  H287  1  0.64599141  0.78013457  0.84076490  1
  H+  H288  1  0.10516117  0.66828131  0.09941044  1
  H+  H289  1  0.38807594  0.11159463  0.83532794  1
  H+  H290  1  0.41453867  0.56529640  0.94254395  1
  H+  H291  1  0.40918819  0.31842360  0.94055415  1
  H+  H292  1  0.79416383  0.89364552  0.71800809  1
  H+  H293  1  0.08601552  0.40201380  0.07126625  1
  H+  H294  1  0.58204480  0.40678212  0.07285294  1
  H+  H295  1  0.83704336  0.65663425  0.09839304  1
  H+  H296  1  0.38579290  0.35537558  0.17644639  1
  H+  H297  1  0.41233968  0.31967860  0.27140473  1
  H+  H298  1  0.89297472  0.86974076  0.84504202  1
  H+  H299  1  0.09690553  0.36718575  0.16704675  1
  H+  H300  1  0.83375320  0.40877683  0.77169195  1
  H+  H301  1  0.36317380  0.21985546  0.16483967  1
  H+  H302  1  0.32226390  0.40048561  0.10640842  1
  H+  H303  1  0.40493136  0.08637180  0.60815937  1
  H+  H304  1  0.59413495  0.40405536  0.37860740  1
  H+  H305  1  0.79311541  0.13891033  0.38285160  1
  H+  H306  1  0.64786035  0.52268048  0.32097496  1
  H+  H307  1  0.85994616  0.28668958  0.54344532  1
  H+  H308  1  0.92406022  0.34328739  0.94279957  1
  H+  H309  1  0.68292762  0.09682216  0.92678533  1
  H+  H310  1  0.08866508  0.41992811  0.77281129  1
  H+  H311  1  0.90269018  0.57824179  0.93782032  1
  H+  H312  1  0.12829006  0.10773870  0.68108223  1
  H+  H313  1  0.84961620  0.63006675  1.00419165  1
  H+  H314  1  0.83420717  0.66624421  0.75475298  1
  H+  H315  1  0.34717578  0.43053381  0.42554460  1
  H+  H316  1  0.24055447  0.86088405  0.33660327  1
  H+  H317  1  0.14001719  0.52439194  0.83850720  1
  H+  H318  1  0.58653865  0.67235524  0.77614807  1
  H+  H319  1  0.27132110  0.89045676  0.67344652  1
  H+  H320  1  0.89451541  0.58125481  0.15651645  1
  H+  H321  1  0.91217214  0.56769053  0.56154889  1
  H+  H322  1  0.15605855  0.53749590  0.51372822  1
  H+  H323  1  0.68285738  0.57696410  0.23148334  1
  H+  H324  1  0.41245016  0.81482715  0.24275132  1
  H+  H325  1  0.41085325  0.58486056  0.22055754  1
  H+  H326  1  0.36102490  0.65605025  0.76322678  1
  H+  H327  1  0.63140590  0.68611473  0.10196374  1
  H+  H328  1  0.39322473  0.78121241  0.49725096  1
  H+  H329  1  0.07218522  0.17224781  0.77573183  1
  H+  H330  1  0.43749200  0.84118747  0.92539059  1
  H+  H331  1  0.58249304  0.17508384  0.76076099  1
  H+  H332  1  0.73386157  0.21353349  0.87242545  1
  H+  H333  1  0.88269693  0.94792384  0.77877381  1
  H+  H334  1  0.57614845  0.90317118  0.38123081  1
  H+  H335  1  0.53526657  0.89585584  0.82290064  1
  H+  H336  1  0.10862622  0.98123782  0.65680693  1
  H+  H337  1  0.61789659  0.63374199  0.33225865  1
  H+  H338  1  0.62219471  0.05428795  0.59903423  1
  H+  H339  1  0.05261255  0.15797908  0.07365881  1
  H+  H340  1  0.16691234  0.82958849  0.60302952  1
  H+  H341  1  0.57037032  0.42773509  0.76893214  1
  H+  H342  1  0.16363789  0.11593536  0.24213427  1
  H+  H343  1  0.82773504  0.22048751  0.64968217  1
  H+  H344  1  0.89931938  0.82333481  0.57369815  1
  H+  H345  1  0.08827208  0.92699917  0.77196242  1
  H+  H346  1  0.17190765  0.56976019  0.93484660  1
  H+  H347  1  0.13068990  0.96120232  0.34866227  1
  H+  H348  1  0.00005522  0.87447486  0.10197866  1
  H+  H349  1  0.58072999  0.66612147  0.42124987  1
  H+  H350  1  0.84021808  0.67217769  0.40074393  1
  H+  H351  1  0.18443268  0.81817424  0.23930157  1
  H+  H352  1  0.81772194  0.90945833  0.40879075  1
  H+  H353  1  0.89655908  0.07897524  0.93709642  1
  H+  H354  1  0.48032273  0.61580281  0.50298829  1
  H+  H355  1  0.33413308  0.16977099  0.76863713  1
  H+  H356  1  0.48633149  0.60354786  0.84819632  1
  H+  H357  1  0.16820925  0.10412202  0.89649702  1
  H+  H358  1  0.17492231  0.59100923  0.61080245  1
  H+  H359  1  0.91417249  0.83363406  0.93593081  1
  H+  H360  1  0.92382357  0.06029062  0.59218214  1
  H+  H361  1  0.46008118  0.71705829  0.77638813  1
  H+  H362  1  0.40141737  0.08668655  0.28236053  1
  H+  H363  1  0.05663100  0.90100232  0.44658564  1
  H+  H364  1  0.87037403  0.48617726  0.32757231  1
  H+  H365  1  0.34121702  0.91954344  0.76552091  1
  H+  H366  1  0.66174495  0.56011015  0.53689085  1
  H+  H367  1  0.16862038  0.57532323  0.27780469  1
  H+  H368  1  0.15504674  0.32109399  0.23725334  1
  H+  H369  1  0.68026108  0.83005891  0.26627731  1
  H+  H370  1  0.03259173  0.92044251  0.09453229  1
  H+  H371  1  0.17679261  0.34133656  0.93208659  1
  H+  H372  1  0.04455098  0.38815772  0.67393606  1
  H+  H373  1  0.43466782  0.87267732  0.58057637  1
  H+  H374  1  0.89192946  0.28027390  0.84839892  1
  H+  H375  1  0.68951730  0.61578171  0.62438074  1
  H+  H376  1  0.19348465  0.81613008  0.92224514  1
  H+  H377  1  0.59950263  0.72627187  0.67483464  1
  H+  H378  1  0.67223542  0.83334020  0.93536585  1
  H+  H379  1  0.42305826  0.09406823  0.92710847  1
  H+  H380  1  0.61654166  0.93385451  0.75993967  1
  H+  H381  1  0.52986838  0.16143346  0.34126276  1
  H+  H382  1  0.87623439  0.81559911  0.24226940  1
  H+  H383  1  0.85475158  0.72262188  0.00831981  1
  O2-  O384  1  0.07608937  0.16619991  0.15061885  1
  O2-  O385  1  0.05502208  0.17010052  0.45296834  1
  O2-  O386  1  0.07753164  0.17669957  0.82124341  1
  O2-  O387  1  0.06502580  0.39489876  0.14812099  1
  O2-  O388  1  0.17841740  0.44638629  0.46443239  1
  O2-  O389  1  0.08955667  0.42196178  0.81819979  1
  O2-  O390  1  0.09557374  0.66506573  0.14551479  1
  O2-  O391  1  0.08791943  0.66525611  0.49001409  1
  O2-  O392  1  0.08476350  0.67025651  0.81337127  1
  O2-  O393  1  0.10860023  0.92682427  0.21096997  1
  O2-  O394  1  0.07585506  0.92735209  0.48651935  1
  O2-  O395  1  0.08651846  0.92311102  0.81618907  1
  O2-  O396  1  0.33527514  0.15933881  0.14917816  1
  O2-  O397  1  0.32709514  0.17908724  0.51820221  1
  O2-  O398  1  0.33487599  0.16576082  0.81424004  1
  O2-  O399  1  0.32627759  0.40334849  0.15131335  1
  O2-  O400  1  0.33477979  0.43145057  0.47238309  1
  O2-  O401  1  0.33663824  0.41377132  0.80952507  1
  O2-  O402  1  0.33873674  0.67758743  0.14112521  1
  O2-  O403  1  0.34322702  0.67530621  0.48238860  1
  O2-  O404  1  0.40404876  0.69462242  0.79582229  1
  O2-  O405  1  0.35519948  0.91431152  0.16673816  1
  O2-  O406  1  0.32202431  0.92226631  0.48864029  1
  O2-  O407  1  0.34272696  0.91646785  0.81088301  1
  O2-  O408  1  0.57757327  0.15825767  0.18661946  1
  O2-  O409  1  0.55622292  0.15526920  0.50633901  1
  O2-  O410  1  0.58136004  0.17275586  0.80622925  1
  O2-  O411  1  0.58616080  0.40418749  0.15367489  1
  O2-  O412  1  0.58471720  0.40792265  0.45838317  1
  O2-  O413  1  0.56394082  0.44595322  0.80982253  1
  O2-  O414  1  0.66977074  0.70353344  0.13780236  1
  O2-  O415  1  0.58111080  0.66660267  0.46754926  1
  O2-  O416  1  0.58981985  0.67596829  0.82129785  1
  O2-  O417  1  0.60795852  0.91638861  0.16545694  1
  O2-  O418  1  0.61652496  0.92893501  0.45419501  1
  O2-  O419  1  0.59886090  0.92446395  0.81217384  1
  O2-  O420  1  0.78822998  0.17104701  0.14973354  1
  O2-  O421  1  0.78856027  0.12913209  0.46095648  1
  O2-  O422  1  0.84600915  0.16670967  0.80196670  1
  O2-  O423  1  0.84036989  0.38560884  0.16395157  1
  O2-  O424  1  0.83161132  0.41606398  0.46650264  1
  O2-  O425  1  0.83929030  0.41522028  0.81632642  1
  O2-  O426  1  0.84330511  0.64943139  0.14316850  1
  O2-  O427  1  0.83787767  0.66436513  0.48106571  1
  O2-  O428  1  0.83132287  0.66546600  0.82521325  1
  O2-  O429  1  0.89261399  0.94582026  0.13284378  1
  O2-  O430  1  0.81269839  0.91446224  0.48822027  1
  O2-  O431  1  0.84989322  0.93380467  0.81649489  1
  O2-  O432  1  0.16802717  0.07415798  0.17107043  1
  O2-  O433  1  0.16314042  0.09834765  0.45962756  1
  O2-  O434  1  0.16792901  0.09694831  0.85127403  1
  O2-  O435  1  0.15810524  0.32812764  0.19111894  1
  O2-  O436  1  0.03000638  0.30165758  0.51328477  1
  O2-  O437  1  0.17451460  0.34009475  0.85806765  1
  O2-  O438  1  0.19976755  0.64146779  0.21152317  1
  O2-  O439  1  0.17998463  0.59547139  0.53107685  1
  O2-  O440  1  0.16896703  0.58528167  0.85447755  1
  O2-  O441  1  0.18237659  0.82770845  0.19460664  1
  O2-  O442  1  0.16178142  0.83388275  0.52552309  1
  O2-  O443  1  0.17155809  0.84132994  0.84470199  1
  O2-  O444  1  0.41438819  0.07564123  0.20695167  1
  O2-  O445  1  0.39781528  0.07844234  0.53658704  1
  O2-  O446  1  0.41931023  0.08220133  0.85041990  1
  O2-  O447  1  0.41441364  0.32314116  0.19110100  1
  O2-  O448  1  0.44275768  0.39672516  0.53057983  1
  O2-  O449  1  0.41214866  0.32375089  0.86399451  1
  O2-  O450  1  0.40187296  0.58285400  0.17583967  1
  O2-  O451  1  0.42226179  0.58676170  0.52273032  1
  O2-  O452  1  0.42376685  0.57110781  0.85871026  1
  O2-  O453  1  0.42252124  0.82858297  0.19283160  1
  O2-  O454  1  0.42173562  0.84463867  0.50669702  1
  O2-  O455  1  0.43642179  0.84531583  0.84569307  1
  O2-  O456  1  0.64264723  0.06108429  0.23007874  1
  O2-  O457  1  0.64181287  0.06581590  0.52394566  1
  O2-  O458  1  0.71341456  0.15611030  0.85592592  1
  O2-  O459  1  0.68731687  0.33954173  0.21407677  1
  O2-  O460  1  0.66993799  0.33380641  0.51570878  1
  O2-  O461  1  0.68395343  0.33720133  0.85731033  1
  O2-  O462  1  0.68092197  0.56911951  0.18641298  1
  O2-  O463  1  0.66999660  0.57708766  0.49432342  1
  O2-  O464  1  0.66776773  0.59335959  0.86094338  1
  O2-  O465  1  0.69929481  0.84330527  0.19996363  1
  O2-  O466  1  0.65138890  0.82681049  0.51765361  1
  O2-  O467  1  0.67571022  0.84190879  0.85478989  1
  O2-  O468  1  0.93233967  0.09444791  0.20390783  1
  O2-  O469  1  0.89265962  0.07452518  0.50001850  1
  O2-  O470  1  0.90590144  0.08501713  0.85857280  1
  O2-  O471  1  0.88729173  0.34902363  0.19456132  1
  O2-  O472  1  0.87769149  0.29502999  0.50035420  1
  O2-  O473  1  0.92450230  0.34150060  0.86002489  1
  O2-  O474  1  0.92412933  0.54847296  0.16415647  1
  O2-  O475  1  0.91530718  0.57258975  0.51689546  1
  O2-  O476  1  0.92220124  0.58424847  0.85332652  1
  O2-  O477  1  0.86068757  0.80422812  0.19803529  1
  O2-  O478  1  0.90219909  0.82661736  0.52841264  1
  O2-  O479  1  0.91870849  0.83431379  0.85737090  1
  O2-  O480  1  0.15668446  0.12339475  0.28618299  1
  O2-  O481  1  0.15698187  0.07454082  0.66983894  1
  O2-  O482  1  0.15990814  0.11577326  0.97278786  1
  O2-  O483  1  0.15093032  0.30954582  0.31132935  1
  O2-  O484  1  0.17044597  0.32245236  0.65927598  1
  O2-  O485  1  0.17896282  0.33933299  0.97830657  1
  O2-  O486  1  0.16455543  0.56037623  0.32165590  1
  O2-  O487  1  0.16955880  0.58470759  0.65590048  1
  O2-  O488  1  0.17342106  0.56229280  0.97943981  1
  O2-  O489  1  0.18213523  0.81217500  0.31681868  1
  O2-  O490  1  0.16610043  0.83174017  0.64863895  1
  O2-  O491  1  0.21299711  0.79866690  0.95855950  1
  O2-  O492  1  0.39770247  0.08861036  0.32777889  1
  O2-  O493  1  0.40973393  0.09205271  0.65439914  1
  O2-  O494  1  0.42604411  0.09465189  0.97271185  1
  O2-  O495  1  0.41768375  0.32275864  0.31662056  1
  O2-  O496  1  0.42247553  0.34159974  0.64760501  1
  O2-  O497  1  0.40650650  0.31845758  0.98630320  1
  O2-  O498  1  0.42254858  0.58188154  0.30076994  1
  O2-  O499  1  0.41848674  0.56081536  0.64542824  1
  O2-  O500  1  0.40788349  0.56019070  0.98721988  1
  O2-  O501  1  0.40281633  0.80603211  0.30227911  1
  O2-  O502  1  0.44443330  0.89194648  0.62423217  1
  O2-  O503  1  0.44466233  0.84658644  0.97040661  1
  O2-  O504  1  0.64689812  0.05616592  0.29233131  1
  O2-  O505  1  0.59696934  0.04106060  0.64115566  1
  O2-  O506  1  0.67381469  0.08066584  0.97055951  1
  O2-  O507  1  0.68661170  0.34524745  0.28085484  1
  O2-  O508  1  0.66024442  0.33892003  0.64125285  1
  O2-  O509  1  0.66937761  0.33218072  0.97932394  1
  O2-  O510  1  0.67632892  0.58473373  0.30949132  1
  O2-  O511  1  0.67580123  0.59865938  0.66673901  1
  O2-  O512  1  0.65616510  0.57682525  0.98296987  1
  O2-  O513  1  0.66764057  0.82379306  0.31296596  1
  O2-  O514  1  0.64491336  0.82477151  0.63923755  1
  O2-  O515  1  0.66513056  0.83196789  0.98029948  1
  O2-  O516  1  0.90707621  0.07718271  0.32096214  1
  O2-  O517  1  0.91554359  0.06391142  0.63606940  1
  O2-  O518  1  0.89051933  0.07255564  0.98222694  1
  O2-  O519  1  0.91140233  0.31360298  0.34084080  1
  O2-  O520  1  0.85075827  0.28035919  0.63022230  1
  O2-  O521  1  0.92087712  0.33708698  0.98764436  1
  O2-  O522  1  0.92672973  0.58737314  0.31830980  1
  O2-  O523  1  0.93482992  0.61944367  0.64243690  1
  O2-  O524  1  0.89279376  0.58055745  0.98159641  1
  O2-  O525  1  0.90660555  0.83715881  0.31716893  1
  O2-  O526  1  0.90237736  0.82381115  0.65378699  1
  O2-  O527  1  0.91830211  0.83803332  0.98109818  1
  O2-  O528  1  0.04363511  0.15695037  0.02884851  1
  O2-  O529  1  0.09106597  0.22116762  0.32760680  1
  O2-  O530  1  0.07244747  0.16040722  0.69934932  1
  O2-  O531  1  0.09166832  0.40285713  0.02574852  1
  O2-  O532  1  0.09133767  0.39417851  0.36420592  1
  O2-  O533  1  0.09896964  0.42348782  0.69465487  1
  O2-  O534  1  0.11442419  0.66912382  0.02972201  1
  O2-  O535  1  0.09493115  0.65175153  0.36538298  1
  O2-  O536  1  0.08625695  0.66780628  0.69316689  1
  O2-  O537  1  0.08995932  0.94717588  -0.02370956  1
  O2-  O538  1  0.08369030  0.95389097  0.32264533  1
  O2-  O539  1  0.07475857  0.91657125  0.64383298  1
  O2-  O540  1  0.31465509  0.14445577  0.03288915  1
  O2-  O541  1  0.29176018  0.16252560  0.36126163  1
  O2-  O542  1  0.32916741  0.17180832  0.69251858  1
  O2-  O543  1  0.32437791  0.40332274  0.02235386  1
  O2-  O544  1  0.36437074  0.43008833  0.36097423  1
  O2-  O545  1  0.35011236  0.41292680  0.69445966  1
  O2-  O546  1  0.31414891  0.70601916  0.02503013  1
  O2-  O547  1  0.33026594  0.65008669  0.35501529  1
  O2-  O548  1  0.30160890  0.58557503  0.71711091  1
  O2-  O549  1  0.35023289  0.92598401  0.00914352  1
  O2-  O550  1  0.32019806  0.92530348  0.36335554  1
  O2-  O551  1  0.33205927  0.92389499  0.68815983  1
  O2-  O552  1  0.59217513  0.17216398  0.01649894  1
  O2-  O553  1  0.59122019  0.19275438  0.35116209  1
  O2-  O554  1  0.57683440  0.17545792  0.68229954  1
  O2-  O555  1  0.58006224  0.41011127  0.02760354  1
  O2-  O556  1  0.59335389  0.41228358  0.33399640  1
  O2-  O557  1  0.58081301  0.41927597  0.68578439  1
  O2-  O558  1  0.57507263  0.65999244  0.02762928  1
  O2-  O559  1  0.58519705  0.66194242  0.34673052  1
  O2-  O560  1  0.57477201  0.66864945  0.69515689  1
  O2-  O561  1  0.60196674  0.92793429  0.00468240  1
  O2-  O562  1  0.56482698  0.89363868  0.33692305  1
  O2-  O563  1  0.64454508  0.94892607  0.70711732  1
  O2-  O564  1  0.82188101  0.16846812  0.02029817  1
  O2-  O565  1  0.80212140  0.14575349  0.33795682  1
  O2-  O566  1  0.80655598  0.13239428  0.67973813  1
  O2-  O567  1  0.83156133  0.42487047  0.02721296  1
  O2-  O568  1  0.83315678  0.42180238  0.33563312  1
  O2-  O569  1  0.82278477  0.39682993  0.68748377  1
  O2-  O570  1  0.82091738  0.66246823  0.02262086  1
  O2-  O571  1  0.83915965  0.67221882  0.35565711  1
  O2-  O572  1  0.83319257  0.66750509  0.70799468  1
  O2-  O573  1  0.82555932  0.91186383  0.01935457  1
  O2-  O574  1  0.82248404  0.90842944  0.36358317  1
  O2-  O575  1  0.81016324  0.89774006  0.67521516  1
