# generated using pymatgen
data_H2O
_symmetry_space_group_name_H-M   'P 1'
_cell_length_a   17.97953904
_cell_length_b   17.97966920
_cell_length_c   21.99272551
_cell_angle_alpha   89.98449654
_cell_angle_beta   90.01183945
_cell_angle_gamma   120.00078130
_symmetry_Int_Tables_number   1
_chemical_formula_structural   H2O
_chemical_formula_sum   'H384 O192'
_cell_volume   6156.96236759
_cell_formula_units_Z   192
loop_
 _symmetry_equiv_pos_site_id
 _symmetry_equiv_pos_as_xyz
  1  'x, y, z'
loop_
 _atom_type_symbol
 _atom_type_oxidation_number
  H+  1.0
  O2-  -2.0
loop_
 _atom_site_type_symbol
 _atom_site_label
 _atom_site_symmetry_multiplicity
 _atom_site_fract_x
 _atom_site_fract_y
 _atom_site_fract_z
 _atom_site_occupancy
  H+  H0  1  0.60008125  0.12662994  0.34996362  1
  H+  H1  1  0.98621032  0.36387114  0.16482394  1
  H+  H2  1  0.10786311  0.21082230  0.66853965  1
  H+  H3  1  0.12240394  0.51565413  0.83069280  1
  H+  H4  1  0.90075150  0.63105021  0.50205855  1
  H+  H5  1  0.57811564  0.66684977  0.73032998  1
  H+  H6  1  0.16237300  0.08365608  0.56532804  1
  H+  H7  1  0.89572478  0.92604457  0.83144401  1
  H+  H8  1  0.96862261  0.11685264  0.32985429  1
  H+  H9  1  0.37814418  0.77235520  0.83774460  1
  H+  H10  1  0.09800046  0.42161172  0.09436405  1
  H+  H11  1  0.36027899  0.72996336  0.66853742  1
  H+  H12  1  0.63427118  0.52032862  0.17614218  1
  H+  H13  1  0.47503150  0.61235082  0.33429627  1
  H+  H14  1  0.35448126  0.62710379  0.16411200  1
  H+  H15  1  0.88787669  0.20525760  0.48632070  1
  H+  H16  1  0.89168960  0.85437970  0.28037720  1
  H+  H17  1  0.22750804  0.88189087  0.51362023  1
  H+  H18  1  0.34546539  0.36414990  0.48080092  1
  H+  H19  1  0.15816063  0.12921213  0.99803768  1
  H+  H20  1  0.08128397  0.62052732  0.83190879  1
  H+  H21  1  0.63286941  0.86040996  -0.00724741  1
  H+  H22  1  0.83923315  0.19455036  0.02976350  1
  H+  H23  1  0.98701295  0.62527342  0.31590500  1
  H+  H24  1  0.21917220  0.35963774  0.32691065  1
  H+  H25  1  0.59526390  0.72297361  0.82601610  1
  H+  H26  1  0.60201255  0.97852441  0.82749925  1
  H+  H27  1  0.92492446  0.07460040  0.24861683  1
  H+  H28  1  0.60938908  0.63426457  0.16154856  1
  H+  H29  1  0.63612262  0.27580936  -0.00204097  1
  H+  H30  1  0.02877668  0.08965301  0.02011598  1
  H+  H31  1  0.61884740  0.14144844  0.49809622  1
  H+  H32  1  0.72598046  0.84341210  0.32171225  1
  H+  H33  1  0.60145882  0.25196812  0.34433568  1
  H+  H34  1  0.01795703  0.89121126  0.16892242  1
  H+  H35  1  0.34996149  0.12176023  0.67496363  1
  H+  H36  1  0.61246212  -0.03352603  0.67784802  1
  H+  H37  1  0.12873464  0.86679091  -0.00077558  1
  H+  H38  1  0.13416901  0.11687818  0.50567904  1
  H+  H39  1  0.89501454  0.54091905  0.49849170  1
  H+  H40  1  0.40753951  0.54502505  0.98184442  1
  H+  H41  1  0.26614165  0.88443213  0.82971771  1
  H+  H42  1  0.74291520  0.35749766  0.66500628  1
  H+  H43  1  0.11227029  0.73387973  0.66040868  1
  H+  H44  1  0.68928601  0.60894224  0.82885314  1
  H+  H45  1  0.13926252  0.00861790  0.65539863  1
  H+  H46  1  0.12840914  0.35749739  0.50893028  1
  H+  H47  1  0.63903957  0.61447727  0.66593799  1
  H+  H48  1  0.34951546  0.84452241  0.17868642  1
  H+  H49  1  0.58317370  0.62782438  0.82644533  1
  H+  H50  1  0.11718317  0.76788675  0.84710606  1
  H+  H51  1  0.65578932  0.57275737  0.93070653  1
  H+  H52  1  0.25818686  0.63957287  0.81870342  1
  H+  H53  1  0.61358657  0.39082964  0.49723434  1
  H+  H54  1  0.61479558  0.63887395  0.00415790  1
  H+  H55  1  0.12994599  0.60365051  0.17714663  1
  H+  H56  1  0.50552824  0.11527128  0.35030203  1
  H+  H57  1  0.12976562  0.13611345  0.82790225  1
  H+  H58  1  0.10421989  0.98347089  0.49405853  1
  H+  H59  1  0.25284858  0.11968179  0.67729279  1
  H+  H60  1  0.36012269  0.22226112  0.16523713  1
  H+  H61  1  0.58157300  0.66442303  0.10113069  1
  H+  H62  1  0.51211426  0.88522528  0.67778678  1
  H+  H63  1  0.88953769  0.26975267  0.64835081  1
  H+  H64  1  0.79320885  0.49321259  0.04587305  1
  H+  H65  1  0.61983605  0.73137481  1.00485173  1
  H+  H66  1  0.88806907  0.31548953  0.49373313  1
  H+  H67  1  0.62199785  0.10953946  0.99916708  1
  H+  H68  1  0.93342906  0.41845646  0.99143711  1
  H+  H69  1  0.85854902  0.22208264  0.33280678  1
  H+  H70  1  0.72042775  0.37207261  0.99983537  1
  H+  H71  1  0.32605195  0.67187576  0.72762664  1
  H+  H72  1  0.90389005  0.91500309  0.45491449  1
  H+  H73  1  0.84066131  0.46453544  0.28806807  1
  H+  H74  1  0.87397505  0.38447538  0.15159776  1
  H+  H75  1  0.66001835  0.09811070  0.64794350  1
  H+  H76  1  0.87954779  0.86468630  0.17809860  1
  H+  H77  1  0.89914273  0.27407478  0.17073393  1
  H+  H78  1  0.88588617  0.78091246  0.19448446  1
  H+  H79  1  0.87486929  0.11952748  0.65293153  1
  H+  H80  1  0.60131639  0.23529085  0.68514329  1
  H+  H81  1  0.87670183  0.12386650  0.92502110  1
  H+  H82  1  0.34525294  0.46947324  0.69339026  1
  H+  H83  1  0.97697784  0.87095173  -0.00252055  1
  H+  H84  1  0.85432980  0.97726618  0.00022253  1
  H+  H85  1  0.62718632  0.73224013  0.49252701  1
  H+  H86  1  0.12518432  0.26652638  0.50691015  1
  H+  H87  1  0.02288567  0.63476912  0.15775334  1
  H+  H88  1  0.35913179  0.47653120  0.33917218  1
  H+  H89  1  0.24507430  0.64574528  -0.01282193  1
  H+  H90  1  0.47093553  0.85960933  0.99446624  1
  H+  H91  1  0.87634032  0.13159444  0.17788338  1
  H+  H92  1  0.62030250  0.38712849  0.16609127  1
  H+  H93  1  0.72165009  0.61004924  0.18842528  1
  H+  H94  1  1.01664392  0.89345205  0.84045455  1
  H+  H95  1  0.73806783  0.11164505  0.49749928  1
  H+  H96  1  0.61993555  -0.02488319  0.48619112  1
  H+  H97  1  0.22065177  0.61279491  0.65481487  1
  H+  H98  1  0.62060479  0.39261348  0.66992096  1
  H+  H99  1  0.93265611  0.29326207  1.01199610  1
  H+  H100  1  0.32077654  0.41186190  0.00302514  1
  H+  H101  1  0.86650995  0.10985032  0.48363120  1
  H+  H102  1  0.22221700  0.11537055  0.17280343  1
  H+  H103  1  0.97203978  0.35129736  0.32935023  1
  H+  H104  1  0.55668195  0.91567729  0.16711609  1
  H+  H105  1  0.39204519  0.87114423  0.51053072  1
  H+  H106  1  0.38182458  0.26300930  0.49916788  1
  H+  H107  1  -0.05028973  0.13203680  -0.02513611  1
  H+  H108  1  0.87764947  0.11394061  0.31981774  1
  H+  H109  1  0.47488640  0.61653269  0.17827587  1
  H+  H110  1  1.03208872  0.64649106  0.99666662  1
  H+  H111  1  0.63517788  0.11219935  0.84607359  1
  H+  H112  1  0.58616428  0.42539386  0.41699176  1
  H+  H113  1  0.78475939  0.38519834  0.15400200  1
  H+  H114  1  0.11677034  0.39014156  0.99707544  1
  H+  H115  1  0.82095452  0.63440365  0.82813104  1
  H+  H116  1  0.33798667  0.70694744  0.16384927  1
  H+  H117  1  0.61762239  0.51059137  0.83435751  1
  H+  H118  1  0.12066744  0.64204053  0.47243711  1
  H+  H119  1  0.21982320  0.59597705  0.33439025  1
  H+  H120  1  0.97967668  0.36600466  0.83513159  1
  H+  H121  1  0.52965852  0.13985648  0.16648865  1
  H+  H122  1  0.38775209  1.01912414  -0.00108721  1
  H+  H123  1  0.71730751  0.35957683  0.22440551  1
  H+  H124  1  0.10295961  0.24841292  -0.01812704  1
  H+  H125  1  0.70469602  0.09888489  1.00255895  1
  H+  H126  1  0.37321402  0.13370492  0.00939696  1
  H+  H127  1  0.22727343  0.61365526  0.50390241  1
  H+  H128  1  0.39016395  0.36137443  0.19367477  1
  H+  H129  1  0.87524194  0.64584076  -0.00671030  1
  H+  H130  1  0.19890668  0.32154831  -0.02974772  1
  H+  H131  1  0.29909902  0.14780181  0.40172080  1
  H+  H132  1  0.78258265  0.87945041  0.66552011  1
  H+  H133  1  0.57028888  0.91651794  0.75375202  1
  H+  H134  1  0.89699978  0.62138392  0.31668442  1
  H+  H135  1  0.01908157  0.12495087  0.48925044  1
  H+  H136  1  0.86122563  0.97331606  0.16422433  1
  H+  H137  1  0.13588384  0.12079012  0.16912511  1
  H+  H138  1  0.76466670  0.63868531  0.32798415  1
  H+  H139  1  0.63330049  0.77097701  0.16955786  1
  H+  H140  1  0.63800427  0.52472409  0.66549096  1
  H+  H141  1  0.10533914  0.38036611  0.81526194  1
  H+  H142  1  0.97634352  0.09682475  0.64704553  1
  H+  H143  1  0.64073249  0.85578094  0.65307359  1
  H+  H144  1  0.86329666  0.89356318  0.00482337  1
  H+  H145  1  0.10394568  0.37647336  0.34709417  1
  H+  H146  1  0.49173690  0.63349313  0.98867142  1
  H+  H147  1  0.87257804  0.88281022  0.66988059  1
  H+  H148  1  0.50844235  0.88585187  0.82644565  1
  H+  H149  1  1.02313044  0.38853414  0.66727808  1
  H+  H150  1  0.99094994  0.90469594  0.34896063  1
  H+  H151  1  0.37357984  1.02412280  0.66695168  1
  H+  H152  1  0.47932843  0.11673997  0.51154436  1
  H+  H153  1  0.86896568  0.38785248  0.67367585  1
  H+  H154  1  0.25611612  0.88117002  0.16730085  1
  H+  H155  1  0.38782123  0.10993229  0.17771193  1
  H+  H156  1  -0.07376489  0.58233065  0.22722016  1
  H+  H157  1  0.65473569  0.86969611  0.49797245  1
  H+  H158  1  0.24998054  0.85715177  0.35260773  1
  H+  H159  1  0.11479398  0.47349194  0.15764252  1
  H+  H160  1  0.61362145  0.47957041  0.34718456  1
  H+  H161  1  0.87357798  0.39648563  0.82682035  1
  H+  H162  1  0.36567841  0.13035818  0.82588160  1
  H+  H163  1  0.97056025  0.03220985  0.21031082  1
  H+  H164  1  0.35548713  0.12779785  0.48977153  1
  H+  H165  1  0.72834911  0.61347604  0.50987643  1
  H+  H166  1  0.65667320  0.03703543  0.17384469  1
  H+  H167  1  0.83866533  0.67902438  0.42967047  1
  H+  H168  1  0.86968665  0.41634039  0.49053268  1
  H+  H169  1  0.60737360  0.47138841  1.00097472  1
  H+  H170  1  0.12584388  0.34655260  0.66103044  1
  H+  H171  1  0.42110180  0.59656805  0.24108457  1
  H+  H172  1  0.38976678  0.34482739  0.98015516  1
  H+  H173  1  0.62529483  0.85553687  0.83889034  1
  H+  H174  1  0.38826656  0.87297622  0.66067014  1
  H+  H175  1  0.83065777  0.43711537  0.07013121  1
  H+  H176  1  0.10624674  1.01605119  0.32800176  1
  H+  H177  1  0.71811926  0.10865083  0.33177459  1
  H+  H178  1  0.35536941  0.71703232  0.34718501  1
  H+  H179  1  0.36612138  0.47840719  0.20287551  1
  H+  H180  1  0.64984905  0.27893828  0.17997570  1
  H+  H181  1  0.90947071  0.05479865  0.55019165  1
  H+  H182  1  0.83184645  0.10663980  0.01404338  1
  H+  H183  1  0.58264737  0.90899509  0.43096539  1
  H+  H184  1  0.12740244  0.09390728  0.66218336  1
  H+  H185  1  0.12730390  0.76990449  0.17864670  1
  H+  H186  1  0.70210700  0.27564692  0.62409133  1
  H+  H187  1  0.35580003  0.38916118  0.83822045  1
  H+  H188  1  0.35732688  0.88088685  0.00909400  1
  H+  H189  1  0.91883576  0.58812668  0.59201451  1
  H+  H190  1  0.36510132  0.63902584  0.00755208  1
  H+  H191  1  0.74346254  0.86839762  0.49363364  1
  H+  H192  1  0.60062002  0.96985171  0.00499163  1
  H+  H193  1  0.88833409  0.78174240  -0.00658322  1
  H+  H194  1  0.72178346  0.60343619  0.98675325  1
  H+  H195  1  0.60011962  0.37721928  0.35310516  1
  H+  H196  1  0.74035743  0.12494375  0.18643460  1
  H+  H197  1  0.39963183  0.26043182  0.99561949  1
  H+  H198  1  0.90636511  0.54261597  0.98403371  1
  H+  H199  1  0.83486826  0.14233492  0.11713885  1
  H+  H200  1  0.72451684  0.85949843  0.17141137  1
  H+  H201  1  0.63720050  0.27736038  0.50606314  1
  H+  H202  1  0.02630048  0.64429931  0.66132852  1
  H+  H203  1  0.34645858  0.63799686  0.82223859  1
  H+  H204  1  0.52274318  0.14068060  0.01314992  1
  H+  H205  1  0.89238278  0.52151005  0.16790938  1
  H+  H206  1  0.42404954  0.32102762  0.59096601  1
  H+  H207  1  0.38546602  0.61361142  0.33577998  1
  H+  H208  1  0.74274087  0.09002347  0.65163836  1
  H+  H209  1  0.47692621  0.35448248  0.82910902  1
  H+  H210  1  0.89319253  0.28468693  0.86179594  1
  H+  H211  1  0.11133695  0.23627191  0.15685441  1
  H+  H212  1  0.12499872  0.85773162  0.18346563  1
  H+  H213  1  0.87209147  0.85302153  0.52039967  1
  H+  H214  1  0.21592403  0.59896684  0.17546959  1
  H+  H215  1  0.21102597  0.34866290  0.83458738  1
  H+  H216  1  0.06701342  0.44216344  0.99617976  1
  H+  H217  1  0.13454599  0.66360710  -0.00539347  1
  H+  H218  1  0.88690010  1.00711462  0.64963811  1
  H+  H219  1  0.22787146  0.11863111  0.33881380  1
  H+  H220  1  0.46978082  0.60762756  0.66297608  1
  H+  H221  1  0.45751402  0.61473366  0.82866313  1
  H+  H222  1  0.33044051  0.41215008  0.25704978  1
  H+  H223  1  0.78767602  0.36990037  0.31080886  1
  H+  H224  1  0.85356980  0.14330736  0.83093728  1
  H+  H225  1  0.92160497  0.30810421  0.04110998  1
  H+  H226  1  0.60780949  -0.03199541  0.33853862  1
  H+  H227  1  0.38330179  0.61183589  0.66202095  1
  H+  H228  1  0.62051388  0.14303724  0.16571556  1
  H+  H229  1  0.32202096  0.39689955  -0.07154947  1
  H+  H230  1  0.13281501  0.61469501  0.65367100  1
  H+  H231  1  0.61244167  0.71805949  0.34042340  1
  H+  H232  1  0.61928901  0.23261715  0.84146886  1
  H+  H233  1  0.36381287  0.97774426  0.49620116  1
  H+  H234  1  0.09871074  0.13510200  0.33755698  1
  H+  H235  1  0.88418893  1.00199047  0.48399583  1
  H+  H236  1  0.89415624  0.78320279  0.83947505  1
  H+  H237  1  0.47673204  0.35814539  0.17931502  1
  H+  H238  1  0.73739156  0.37418265  0.84203747  1
  H+  H239  1  0.11258332  0.47733011  0.66738293  1
  H+  H240  1  0.15646336  0.31862833  0.60202833  1
  H+  H241  1  0.35071033  0.47541178  0.84643001  1
  H+  H242  1  0.67686460  0.34442979  0.90134472  1
  H+  H243  1  0.23472992  0.70191026  0.93706952  1
  H+  H244  1  0.48025938  0.62717577  0.51112338  1
  H+  H245  1  0.38797828  0.27613402  0.65542657  1
  H+  H246  1  0.12544246  0.86083659  0.84385936  1
  H+  H247  1  0.45701726  0.12096287  0.67042341  1
  H+  H248  1  0.26606715  0.12853990  0.49513952  1
  H+  H249  1  0.37416246  0.00263436  0.33140716  1
  H+  H250  1  0.48135029  0.86943032  0.50832012  1
  H+  H251  1  0.98796441  0.38605003  0.50396163  1
  H+  H252  1  0.72370520  0.86362299  0.99206712  1
  H+  H253  1  0.86105205  0.73228899  0.49164747  1
  H+  H254  1  0.36722273  0.22174362  0.82165783  1
  H+  H255  1  0.13759124  0.88423406  0.50825981  1
  H+  H256  1  0.22600786  0.36379804  0.18940887  1
  H+  H257  1  0.35453888  0.88350752  0.82880893  1
  H+  H258  1  0.61880468  0.63978343  0.49818326  1
  H+  H259  1  0.38564741  1.02081284  0.17471967  1
  H+  H260  1  0.07795415  0.41572551  0.75769429  1
  H+  H261  1  0.15545040  0.57972759  0.88811583  1
  H+  H262  1  0.89746290  0.76344990  0.66389374  1
  H+  H263  1  0.61479383  0.48167793  0.50138795  1
  H+  H264  1  0.77805870  0.40770148  0.48900098  1
  H+  H265  1  0.57663129  0.13965852  0.69326482  1
  H+  H266  1  0.62907939  0.89136075  0.15890230  1
  H+  H267  1  0.43033039  0.83354155  0.17311294  1
  H+  H268  1  0.77605766  0.63406211  0.67844827  1
  H+  H269  1  0.02546526  0.14308584  0.16386933  1
  H+  H270  1  0.26206547  0.38104413  0.69175490  1
  H+  H271  1  0.88926500  0.52515205  0.65103017  1
  H+  H272  1  0.61751603  0.38744540  0.82453756  1
  H+  H273  1  0.03764701  0.64989799  0.47346312  1
  H+  H274  1  0.38373521  0.77008885  -0.00314898  1
  H+  H275  1  0.16506612  0.86144418  0.59373730  1
  H+  H276  1  0.37391177  0.34385495  0.32785706  1
  H+  H277  1  1.01668657  0.89204252  0.49741455  1
  H+  H278  1  0.11907543  0.75040489  1.00022498  1
  H+  H279  1  0.83502091  0.66797261  0.24372087  1
  H+  H280  1  0.10658940  0.46678426  0.34569930  1
  H+  H281  1  0.46841297  0.35531229  0.49965516  1
  H+  H282  1  0.62625012  0.60366216  0.33248841  1
  H+  H283  1  0.11541608  -0.01942404  1.01473868  1
  H+  H284  1  0.38560223  0.02101386  0.84243754  1
  H+  H285  1  0.60939566  0.87921845  0.33696635  1
  H+  H286  1  0.50374892  0.36839378  -0.00228828  1
  H+  H287  1  0.11509751  0.47954501  0.49398097  1
  H+  H288  1  0.83220414  0.15852431  0.39104568  1
  H+  H289  1  1.01902349  0.09513050  0.84106162  1
  H+  H290  1  0.13921261  0.31054767  0.88465134  1
  H+  H291  1  0.16194532  0.58377599  0.55960909  1
  H+  H292  1  0.66214681  0.82284048  0.26600710  1
  H+  H293  1  0.40474098  0.30619117  0.27419132  1
  H+  H294  1  0.13810898  0.79760601  0.28104108  1
  H+  H295  1  0.77024583  0.12902885  0.86431525  1
  H+  H296  1  0.65799690  0.08125793  0.27428778  1
  H+  H297  1  0.85744593  0.67167069  0.76229764  1
  H+  H298  1  0.10430710  0.22687965  0.34117141  1
  H+  H299  1  0.39773565  0.82113577  0.27562731  1
  H+  H300  1  0.41637399  0.07790299  0.93872144  1
  H+  H301  1  0.07913802  0.41365880  0.43679098  1
  H+  H302  1  0.52636088  0.37881071  0.66681719  1
  H+  H303  1  0.10216145  0.69204183  0.37964584  1
  H+  H304  1  0.05507924  0.16327708  0.06908624  1
  H+  H305  1  0.91345787  0.83686186  0.90222614  1
  H+  H306  1  0.94789225  0.60148016  0.92434675  1
  H+  H307  1  0.58449227  0.41153662  0.76300430  1
  H+  H308  1  0.27073370  0.88571400  0.00729070  1
  H+  H309  1  0.86376268  0.62992963  0.67023848  1
  H+  H310  1  0.93891047  0.63829160  0.82885391  1
  H+  H311  1  0.36261457  0.73051507  0.49848548  1
  H+  H312  1  0.42413606  0.84668728  0.60169573  1
  H+  H313  1  0.67367781  0.58570468  0.57245527  1
  H+  H314  1  0.58278209  0.91341074  0.06430693  1
  H+  H315  1  0.99259724  0.84295800  0.65431472  1
  H+  H316  1  0.65540821  0.82508984  0.89666866  1
  H+  H317  1  0.41332346  0.08644579  0.56728680  1
  H+  H318  1  0.83977759  0.66496568  0.05352126  1
  H+  H319  1  0.83765645  0.89660635  0.39305478  1
  H+  H320  1  0.32713495  0.65739837  0.06915781  1
  H+  H321  1  0.66922388  0.34018947  0.56323447  1
  H+  H322  1  0.46697305  0.85518828  0.32997091  1
  H+  H323  1  0.41334517  0.06501725  0.27417410  1
  H+  H324  1  0.32055458  0.15331926  0.74071752  1
  H+  H325  1  0.60993158  0.37989765  0.00232714  1
  H+  H326  1  0.67528211  0.83277417  0.59319423  1
  H+  H327  1  0.26818250  0.89641766  0.67295378  1
  H+  H328  1  0.47604909  0.11104228  0.84747570  1
  H+  H329  1  0.64934888  0.07128704  0.90599845  1
  H+  H330  1  0.33489541  0.16426794  0.10570238  1
  H+  H331  1  0.10773628  0.21482304  0.82298923  1
  H+  H332  1  0.08142825  0.16506214  0.43260183  1
  H+  H333  1  0.57824386  0.16334377  0.44148618  1
  H+  H334  1  0.42335326  0.31914179  0.88949683  1
  H+  H335  1  0.84283809  0.42367396  0.73252736  1
  H+  H336  1  0.13994179  0.36751043  0.17124862  1
  H+  H337  1  0.33075953  0.21345078  0.33974478  1
  H+  H338  1  0.61362179  0.30571393  0.28447447  1
  H+  H339  1  0.07933393  0.91892623  0.07355002  1
  H+  H340  1  0.08998537  0.67063977  0.10285392  1
  H+  H341  1  0.34255768  0.86559855  0.34982255  1
  H+  H342  1  0.32556473  0.91884471  0.73356691  1
  H+  H343  1  0.14965233  0.07642150  0.26573867  1
  H+  H344  1  0.88750569  0.49040976  0.82283007  1
  H+  H345  1  0.30088792  0.39745889  0.09626465  1
  H+  H346  1  0.91723257  0.34057057  0.59569414  1
  H+  H347  1  0.06187445  0.92955557  0.40152171  1
  H+  H348  1  0.14324787  0.02810776  0.85045874  1
  H+  H349  1  0.30802965  0.44074815  0.08613312  1
  H+  H350  1  0.41773915  0.59101872  0.56867090  1
  H+  H351  1  0.36768680  0.64374786  0.50075576  1
  H+  H352  1  0.92021746  0.32777442  0.26693482  1
  H+  H353  1  0.32403063  0.90931084  0.44135698  1
  H+  H354  1  0.83141182  0.92074379  0.10096904  1
  H+  H355  1  0.15996710  0.56642723  0.27563701  1
  H+  H356  1  0.57771750  0.17587582  0.78345618  1
  H+  H357  1  0.41084839  0.59975787  0.89189064  1
  H+  H358  1  0.85066876  0.15553001  0.71163389  1
  H+  H359  1  0.10796783  0.97852063  0.16457658  1
  H+  H360  1  0.32076436  0.40174490  0.39054412  1
  H+  H361  1  0.64959278  0.56900287  0.27159928  1
  H+  H362  1  0.33038864  0.66098917  0.40775612  1
  H+  H363  1  0.15505615  0.32819473  0.26977292  1
  H+  H364  1  0.28730801  0.14086212  0.00792853  1
  H+  H365  1  0.91597297  0.82714823  0.57439356  1
  H+  H366  1  0.41203526  0.83008291  0.89906144  1
  H+  H367  1  0.31641926  0.90630909  0.10705196  1
  H+  H368  1  0.07605521  0.14775015  0.72631728  1
  H+  H369  1  0.61316027  0.72138850  0.66851293  1
  H+  H370  1  0.58489802  0.17297974  0.07208613  1
  H+  H371  1  0.07270484  0.93724967  0.78287860  1
  H+  H372  1  0.58644891  0.66343888  0.40270546  1
  H+  H373  1  0.25774644  0.36652768  0.48260869  1
  H+  H374  1  0.11188837  0.87768732  0.71142015  1
  H+  H375  1  0.58525232  0.41089474  0.10693859  1
  H+  H376  1  0.67994016  0.07356043  0.55626015  1
  H+  H377  1  0.84379440  0.73660516  0.33027574  1
  H+  H378  1  0.86431541  0.63735342  0.18587235  1
  H+  H379  1  0.23667713  0.11364447  0.84362021  1
  H+  H380  1  0.15420628  0.83594907  0.93551108  1
  H+  H381  1  0.95798069  0.41261161  0.92462235  1
  H+  H382  1  0.93456638  0.05504551  0.89765634  1
  H+  H383  1  0.17854388  0.09224981  0.93854521  1
  O2-  O384  1  0.07953718  0.17591992  0.13968822  1
  O2-  O385  1  0.08117740  0.16232216  0.47834711  1
  O2-  O386  1  0.08535583  0.15116505  0.81296992  1
  O2-  O387  1  0.09043846  0.41427650  0.13974065  1
  O2-  O388  1  0.07952482  0.41653229  0.48288684  1
  O2-  O389  1  0.07673878  0.41350538  0.80384479  1
  O2-  O390  1  0.08601284  0.66770129  0.14734030  1
  O2-  O391  1  0.09351014  0.67205013  0.45277008  1
  O2-  O392  1  0.05527803  0.65880892  0.82762494  1
  O2-  O393  1  0.07665226  0.91734146  0.15062472  1
  O2-  O394  1  0.07423642  0.92320148  0.47798975  1
  O2-  O395  1  0.07894208  0.92599770  0.82542794  1
  O2-  O396  1  0.32854954  0.16129049  0.15057249  1
  O2-  O397  1  0.32347465  0.15609270  0.47421860  1
  O2-  O398  1  0.33398400  0.15902328  0.80891029  1
  O2-  O399  1  0.33543683  0.41528691  0.21241750  1
  O2-  O400  1  0.31113491  0.38481627  0.45897987  1
  O2-  O401  1  0.32321718  0.41318993  0.85819115  1
  O2-  O402  1  0.31870132  0.64964857  0.14516639  1
  O2-  O403  1  0.33315167  0.67039768  0.48384840  1
  O2-  O404  1  0.32038097  0.67310190  0.80815570  1
  O2-  O405  1  0.31712519  0.90711598  0.15226270  1
  O2-  O406  1  0.33068749  0.91527277  0.48678557  1
  O2-  O407  1  0.32598639  0.91566262  0.81407782  1
  O2-  O408  1  0.59019787  0.17360549  0.15120355  1
  O2-  O409  1  0.58608260  0.17062187  0.48712613  1
  O2-  O410  1  0.58532638  0.17129354  0.82769706  1
  O2-  O411  1  0.58613947  0.41399974  0.15156862  1
  O2-  O412  1  0.58375272  0.42230616  0.48267041  1
  O2-  O413  1  0.58245506  0.41239374  0.80880758  1
  O2-  O414  1  0.58036815  0.66579778  0.14636417  1
  O2-  O415  1  0.59200643  0.67113525  0.47952524  1
  O2-  O416  1  0.56074152  0.66277942  0.80809375  1
  O2-  O417  1  0.60761357  0.93092758  0.14290358  1
  O2-  O418  1  0.58823284  0.91272788  0.47641762  1
  O2-  O419  1  0.56924744  0.91892658  0.80844443  1
  O2-  O420  1  0.84603481  0.15917297  0.16060239  1
  O2-  O421  1  0.84270681  0.14956836  0.47194954  1
  O2-  O422  1  0.83462289  0.15825945  0.86825638  1
  O2-  O423  1  0.84412351  0.41647227  0.13739894  1
  O2-  O424  1  0.83702248  0.44192005  0.47307811  1
  O2-  O425  1  0.84669183  0.43020862  0.81130204  1
  O2-  O426  1  0.83306446  0.66799437  0.19847687  1
  O2-  O427  1  0.83180420  0.67298477  0.47401572  1
  O2-  O428  1  0.87201051  0.67909511  0.80783716  1
  O2-  O429  1  0.82733877  0.91463312  0.14599367  1
  O2-  O430  1  0.84951624  0.91483074  0.45247643  1
  O2-  O431  1  0.89768151  0.98212273  0.82405460  1
  O2-  O432  1  0.16059551  0.08661054  0.18617732  1
  O2-  O433  1  0.16399604  0.08502252  0.52037368  1
  O2-  O434  1  0.17800635  0.09040968  0.86202470  1
  O2-  O435  1  0.16204610  0.33122553  0.19056977  1
  O2-  O436  1  0.15752035  0.32600247  0.52369390  1
  O2-  O437  1  0.14743476  0.31313528  0.83941995  1
  O2-  O438  1  0.15587046  0.56918028  0.19129854  1
  O2-  O439  1  0.16453863  0.58183099  0.51431950  1
  O2-  O440  1  0.14718600  0.57725687  0.84376707  1
  O2-  O441  1  0.15594579  0.82809923  0.19782230  1
  O2-  O442  1  0.17006140  0.86275909  0.53228102  1
  O2-  O443  1  0.15299908  0.82900625  0.86057690  1
  O2-  O444  1  0.42056950  0.08090648  0.18933521  1
  O2-  O445  1  0.41686904  0.08593815  0.52250837  1
  O2-  O446  1  0.41384527  0.08103769  0.85881491  1
  O2-  O447  1  0.41669090  0.32397161  0.19420592  1
  O2-  O448  1  0.40892735  0.32278797  0.51543505  1
  O2-  O449  1  0.41661265  0.32141593  0.84521851  1
  O2-  O450  1  0.41567818  0.58887837  0.19553971  1
  O2-  O451  1  0.41978477  0.60081158  0.52401664  1
  O2-  O452  1  0.39871551  0.58658917  0.84795238  1
  O2-  O453  1  0.37542112  0.80877525  0.19397644  1
  O2-  O454  1  0.42339174  0.84268076  0.52753749  1
  O2-  O455  1  0.41245117  0.83327722  0.85350215  1
  O2-  O456  1  0.67715378  0.09392820  0.19320292  1
  O2-  O457  1  0.67755893  0.08434145  0.51248348  1
  O2-  O458  1  0.65790451  0.07441591  0.86054064  1
  O2-  O459  1  0.68014866  0.34242208  0.18720055  1
  O2-  O460  1  0.66509042  0.33947302  0.51855953  1
  O2-  O461  1  0.67647787  0.34228836  0.85606856  1
  O2-  O462  1  0.65777654  0.57932467  0.19321629  1
  O2-  O463  1  0.66912714  0.58204559  0.52701344  1
  O2-  O464  1  0.63917454  0.56976127  0.85282639  1
  O2-  O465  1  0.66320885  0.83155202  0.18522328  1
  O2-  O466  1  0.68675202  0.84167902  0.51420015  1
  O2-  O467  1  0.64958561  0.81990343  0.85169801  1
  O2-  O468  1  0.93918408  0.06264725  0.20223554  1
  O2-  O469  1  0.91250012  0.06168548  0.50520392  1
  O2-  O470  1  0.96544935  0.03687901  0.86804068  1
  O2-  O471  1  0.92542024  0.33608380  0.17994389  1
  O2-  O472  1  0.92577396  0.36266111  0.52033106  1
  O2-  O473  1  0.92422148  0.34770749  0.85775150  1
  O2-  O474  1  0.92147805  0.58270614  0.18146278  1
  O2-  O475  1  0.93041790  0.60039384  0.51626999  1
  O2-  O476  1  0.96509754  0.60575125  0.84809353  1
  O2-  O477  1  0.91362732  0.84417047  0.20137608  1
  O2-  O478  1  0.91037770  0.82975684  0.52881265  1
  O2-  O479  1  0.91772747  0.84172516  0.85686892  1
  O2-  O480  1  0.14524177  0.07833608  0.31083702  1
  O2-  O481  1  0.16568639  0.07093582  0.64739521  1
  O2-  O482  1  0.17969917  0.09162551  0.98443283  1
  O2-  O483  1  0.15698998  0.32704298  0.31515900  1
  O2-  O484  1  0.15102303  0.31124465  0.64734275  1
  O2-  O485  1  0.13831125  0.30438112  0.96158113  1
  O2-  O486  1  0.15945940  0.56195251  0.32037978  1
  O2-  O487  1  0.16003810  0.58012774  0.64041492  1
  O2-  O488  1  0.20047914  0.64967372  0.96086054  1
  O2-  O489  1  0.13611618  0.79132281  0.32619898  1
  O2-  O490  1  0.16450485  0.85516114  0.64417428  1
  O2-  O491  1  0.15637548  0.83428346  0.98165038  1
  O2-  O492  1  0.41243853  0.06308624  0.31907984  1
  O2-  O493  1  0.39852216  0.08606747  0.65248913  1
  O2-  O494  1  0.41898641  0.08000666  0.98414404  1
  O2-  O495  1  0.39212160  0.30131520  0.31854075  1
  O2-  O496  1  0.43963435  0.31840527  0.63443734  1
  O2-  O497  1  0.43103104  0.32191163  0.97705391  1
  O2-  O498  1  0.41554329  0.58418640  0.31724614  1
  O2-  O499  1  0.40942349  0.57728168  0.64854748  1
  O2-  O500  1  0.43083734  0.60549566  0.97201923  1
  O2-  O501  1  0.40425017  0.82372982  0.32039518  1
  O2-  O502  1  0.42282663  0.84632848  0.64802797  1
  O2-  O503  1  0.41022048  0.82922036  0.97903167  1
  O2-  O504  1  0.65580326  0.07681141  0.31938063  1
  O2-  O505  1  0.67952603  0.05742904  0.63956371  1
  O2-  O506  1  0.64754938  0.07497249  0.98270952  1
  O2-  O507  1  0.62450765  0.31237267  0.32813391  1
  O2-  O508  1  0.68557226  0.31317533  0.64503863  1
  O2-  O509  1  0.66205529  0.33617947  0.98146130  1
  O2-  O510  1  0.65493757  0.57070313  0.31707039  1
  O2-  O511  1  0.67219306  0.58579514  0.65231401  1
  O2-  O512  1  0.65978689  0.57124192  0.97610526  1
  O2-  O513  1  0.66387244  0.82125451  0.31118296  1
  O2-  O514  1  0.67142583  0.82702334  0.63860377  1
  O2-  O515  1  0.66320700  0.83020530  0.97754873  1
  O2-  O516  1  0.91196516  0.08570452  0.30857430  1
  O2-  O517  1  0.91631847  0.06781161  0.63117596  1
  O2-  O518  1  0.89498673  0.09249231  0.95405872  1
  O2-  O519  1  0.91326986  0.31859825  0.31128036  1
  O2-  O520  1  0.91419834  0.33193498  0.64092699  1
  O2-  O521  1  0.97704609  0.45101562  0.96088422  1
  O2-  O522  1  0.92598780  0.59031323  0.30249579  1
  O2-  O523  1  0.91485374  0.58575705  0.63797411  1
  O2-  O524  1  0.94026394  0.60294005  0.96965726  1
  O2-  O525  1  0.88366564  0.84537735  0.32555464  1
  O2-  O526  1  0.93131252  0.82371738  0.64779702  1
  O2-  O527  1  0.91735063  0.84277821  0.98038561  1
  O2-  O528  1  0.04252255  0.14929857  0.02363837  1
  O2-  O529  1  0.07165818  0.16612805  0.35672966  1
  O2-  O530  1  0.07933576  0.14787671  0.68153092  1
  O2-  O531  1  0.11208599  0.43615991  0.01780830  1
  O2-  O532  1  0.07316023  0.40573235  0.36266815  1
  O2-  O533  1  0.08264621  0.41664858  0.68346375  1
  O2-  O534  1  0.09383576  0.68289657  0.01352389  1
  O2-  O535  1  0.10002126  0.69781821  0.33338833  1
  O2-  O536  1  0.08727613  0.67397653  0.67422137  1
  O2-  O537  1  0.08175493  0.91951323  0.02750207  1
  O2-  O538  1  0.05343580  0.93249875  0.35687592  1
  O2-  O539  1  0.11353174  0.89321107  0.66836202  1
  O2-  O540  1  0.34785136  0.17021194  0.02290375  1
  O2-  O541  1  0.29158756  0.15057820  0.35612344  1
  O2-  O542  1  0.31566129  0.15139704  0.69348974  1
  O2-  O543  1  0.31518391  0.37114352  -0.02856113  1
  O2-  O544  1  0.32682488  0.41251281  0.34406614  1
  O2-  O545  1  0.31049624  0.41793676  0.71846809  1
  O2-  O546  1  0.33185146  0.66545278  0.02363263  1
  O2-  O547  1  0.32945226  0.65681535  0.36202041  1
  O2-  O548  1  0.32871050  0.66955575  0.68247847  1
  O2-  O549  1  0.32918366  0.91308365  0.02489982  1
  O2-  O550  1  0.31091665  0.89451010  0.36464450  1
  O2-  O551  1  0.32892519  0.92457421  0.68830124  1
  O2-  O552  1  0.58423942  0.17365246  0.02634539  1
  O2-  O553  1  0.56637878  0.15232098  0.36682094  1
  O2-  O554  1  0.55732046  0.17973154  0.70456589  1
  O2-  O555  1  0.57613969  0.40954371  0.01642786  1
  O2-  O556  1  0.58334215  0.42102820  0.36894605  1
  O2-  O557  1  0.58542564  0.41484041  0.68685403  1
  O2-  O558  1  0.58611376  0.66993929  0.01966759  1
  O2-  O559  1  0.58220936  0.65805716  0.35707049  1
  O2-  O560  1  0.58228182  0.66203043  0.68534798  1
  O2-  O561  1  0.57561461  0.90906822  0.01930206  1
  O2-  O562  1  0.57671079  0.90664129  0.35222584  1
  O2-  O563  1  0.57229395  0.91011849  0.69801810  1
  O2-  O564  1  0.80491955  0.13277436  0.03892402  1
  O2-  O565  1  0.82401974  0.15924363  0.34653815  1
  O2-  O566  1  0.84343495  0.15164546  0.66760576  1
  O2-  O567  1  0.81446428  0.45619523  0.03073257  1
  O2-  O568  1  0.80129480  0.40553787  0.27449316  1
  O2-  O569  1  0.83728962  0.41758562  0.68719297  1
  O2-  O570  1  0.83687089  0.66690233  0.00923380  1
  O2-  O571  1  0.82872915  0.67499361  0.32783513  1
  O2-  O572  1  0.83796781  0.66202601  0.69117564  1
  O2-  O573  1  0.82997716  0.92103548  0.01999787  1
  O2-  O574  1  0.82911106  0.88222384  0.34206806  1
  O2-  O575  1  0.84299618  0.91522557  0.67891575  1
