# generated using pymatgen
data_H2O
_symmetry_space_group_name_H-M   'P 1'
_cell_length_a   17.99547184
_cell_length_b   17.99472059
_cell_length_c   22.00739925
_cell_angle_alpha   90.01091930
_cell_angle_beta   89.99577913
_cell_angle_gamma   119.97530083
_symmetry_Int_Tables_number   1
_chemical_formula_structural   H2O
_chemical_formula_sum   'H384 O192'
_cell_volume   6173.27647239
_cell_formula_units_Z   192
loop_
 _symmetry_equiv_pos_site_id
 _symmetry_equiv_pos_as_xyz
  1  'x, y, z'
loop_
 _atom_type_symbol
 _atom_type_oxidation_number
  H+  1.0
  O2-  -2.0
loop_
 _atom_site_type_symbol
 _atom_site_label
 _atom_site_symmetry_multiplicity
 _atom_site_fract_x
 _atom_site_fract_y
 _atom_site_fract_z
 _atom_site_occupancy
  H+  H0  1  0.42056796  0.33536478  0.23863299  1
  H+  H1  1  0.59475417  0.75105114  0.15329124  1
  H+  H2  1  0.89004879  0.02013849  0.33297950  1
  H+  H3  1  0.82135097  0.14604602  0.15451080  1
  H+  H4  1  0.46359855  0.10116035  0.33407154  1
  H+  H5  1  0.53549085  0.64710903  0.34683686  1
  H+  H6  1  0.72279935  0.86682146  0.98006801  1
  H+  H7  1  0.74724505  0.35713974  0.16951510  1
  H+  H8  1  0.85364626  0.15496989  0.44387010  1
  H+  H9  1  0.30144715  0.40902698  0.67104565  1
  H+  H10  1  0.13851276  0.60932402  0.18131728  1
  H+  H11  1  0.88711021  0.72733823  0.34235066  1
  H+  H12  1  0.89417123  0.87593456  0.49751456  1
  H+  H13  1  0.61551527  0.37801343  0.49092935  1
  H+  H14  1  0.04471836  0.57577260  0.10990818  1
  H+  H15  1  0.61029299  0.88885843  0.00458687  1
  H+  H16  1  0.14087901  0.27673468  0.33455416  1
  H+  H17  1  0.10603751  0.75240203  0.01406051  1
  H+  H18  1  0.13460318  0.82923289  0.20556880  1
  H+  H19  1  0.25094242  0.91384573  0.68216441  1
  H+  H20  1  0.59845140  0.38205128  0.16024715  1
  H+  H21  1  0.58392368  0.15447416  0.44002273  1
  H+  H22  1  0.12448432  0.40033158  0.82850113  1
  H+  H23  1  0.37148383  0.86478660  0.32812894  1
  H+  H24  1  0.52351107  0.37653281  0.66702114  1
  H+  H25  1  0.86696909  0.23786373  0.67400659  1
  H+  H26  1  0.11464782  0.86693127  0.82543229  1
  H+  H27  1  0.86876670  0.47788333  1.00524495  1
  H+  H28  1  0.86486771  0.99305644  0.47983746  1
  H+  H29  1  0.27903764  0.38805186  0.34547099  1
  H+  H30  1  0.86399395  0.94589730  0.75865369  1
  H+  H31  1  0.23320763  0.86433176  0.83859384  1
  H+  H32  1  0.02504796  0.87990692  0.06985580  1
  H+  H33  1  0.11242027  0.39303297  0.01120545  1
  H+  H34  1  0.28542484  0.13941362  0.16666283  1
  H+  H35  1  0.58377910  0.61029068  0.66886003  1
  H+  H36  1  0.52911990  0.38146457  0.49089166  1
  H+  H37  1  0.36518998  0.47361681  0.82943912  1
  H+  H38  1  0.36842790  0.47693124  0.34804132  1
  H+  H39  1  0.37925829  0.91646888  1.00175495  1
  H+  H40  1  0.36134371  0.97386258  0.49531696  1
  H+  H41  1  0.16680053  0.29507167  0.66196669  1
  H+  H42  1  0.37649424  0.77037207  0.82959598  1
  H+  H43  1  0.67669437  0.67708174  0.20221498  1
  H+  H44  1  0.75718334  0.54515588  0.11922677  1
  H+  H45  1  0.48801802  0.90025371  0.97902580  1
  H+  H46  1  0.25548927  0.12543018  0.81879872  1
  H+  H47  1  0.61942171  0.12797271  0.49806211  1
  H+  H48  1  0.72809684  0.11894816  0.98784351  1
  H+  H49  1  0.38507915  0.12891745  -0.00507121  1
  H+  H50  1  0.60692293  0.88890966  0.33576119  1
  H+  H51  1  0.64029620  0.10769748  0.66111990  1
  H+  H52  1  0.36102691  0.46569685  0.01217004  1
  H+  H53  1  1.02989250  0.63386844  0.49768928  1
  H+  H54  1  0.39273772  0.61429591  0.33697681  1
  H+  H55  1  0.78832119  0.15273633  0.82779266  1
  H+  H56  1  0.27798412  0.63506616  0.81523033  1
  H+  H57  1  0.10668781  0.14276862  0.00639633  1
  H+  H58  1  0.69209213  0.71676660  0.04388262  1
  H+  H59  1  0.76928991  0.88284676  0.33043491  1
  H+  H60  1  0.13984168  0.52099853  0.33469792  1
  H+  H61  1  -0.01572290  0.36524096  0.50936130  1
  H+  H62  1  0.03076708  0.14038145  0.35109133  1
  H+  H63  1  0.14974708  0.37442184  0.65886673  1
  H+  H64  1  0.40080645  0.28163799  0.32985745  1
  H+  H65  1  0.35998969  0.89350428  0.82014844  1
  H+  H66  1  0.69770384  0.31001628  0.23859879  1
  H+  H67  1  0.46955475  0.61299907  0.17961764  1
  H+  H68  1  0.64369297  0.87733170  0.17227065  1
  H+  H69  1  0.57350016  0.68966817  0.65661770  1
  H+  H70  1  0.11742185  0.95495040  0.82142466  1
  H+  H71  1  0.11971769  0.97643389  0.49594104  1
  H+  H72  1  0.36402891  0.13769995  0.49313709  1
  H+  H73  1  0.63163955  0.47928913  0.81722329  1
  H+  H74  1  0.89990078  0.83797365  0.17736014  1
  H+  H75  1  0.88967854  1.02684876  0.84248690  1
  H+  H76  1  0.87372111  0.47837333  0.82800477  1
  H+  H77  1  0.88763539  0.12962978  0.64525773  1
  H+  H78  1  0.11610701  0.48129105  0.49706841  1
  H+  H79  1  0.90198003  0.27144584  0.51253271  1
  H+  H80  1  0.14208844  0.77503429  0.65854996  1
  H+  H81  1  0.12939013  0.27694923  -0.00146152  1
  H+  H82  1  0.17023688  0.33443161  0.27404240  1
  H+  H83  1  0.85975634  0.14046074  1.00720338  1
  H+  H84  1  0.89135427  0.36107379  0.33244215  1
  H+  H85  1  0.63933855  0.35368079  -0.01021996  1
  H+  H86  1  0.61297771  0.63777039  0.82330318  1
  H+  H87  1  0.12306445  0.74314985  0.24185271  1
  H+  H88  1  0.96326717  0.18927431  0.20609563  1
  H+  H89  1  0.13840657  0.61557742  0.50891077  1
  H+  H90  1  0.64236390  0.27102005  0.16906938  1
  H+  H91  1  0.38241794  0.11459300  0.32897478  1
  H+  H92  1  0.47353280  0.19745804  0.61834623  1
  H+  H93  1  0.85693991  0.73399492  0.64332796  1
  H+  H94  1  0.72325844  0.85856243  0.16749670  1
  H+  H95  1  0.62997517  0.59247333  0.99837258  1
  H+  H96  1  0.15619781  0.13542732  0.33444429  1
  H+  H97  1  0.90157814  0.10710176  0.55259310  1
  H+  H98  1  0.12680078  1.01307430  0.65430098  1
  H+  H99  1  0.88953939  0.52057913  0.50617680  1
  H+  H100  1  0.68473790  0.07635707  0.77688790  1
  H+  H101  1  0.77936524  0.13456356  0.34925410  1
  H+  H102  1  0.11643456  0.72339417  0.49945139  1
  H+  H103  1  0.37525885  0.51822290  0.51541588  1
  H+  H104  1  0.34319982  -0.00372756  0.68102692  1
  H+  H105  1  0.75877747  0.61482611  -0.00898509  1
  H+  H106  1  0.64340879  0.26947342  0.66149325  1
  H+  H107  1  0.46413184  0.85771850  0.82776505  1
  H+  H108  1  0.41868315  0.09525936  0.89751405  1
  H+  H109  1  0.60541732  0.96408125  0.82128773  1
  H+  H110  1  0.10745036  0.87641485  0.66348236  1
  H+  H111  1  -0.02004033  0.36485372  0.17731318  1
  H+  H112  1  0.93344246  0.59663863  0.91832539  1
  H+  H113  1  0.31704196  0.62504230  0.08481278  1
  H+  H114  1  0.62689491  0.65256743  0.34777007  1
  H+  H115  1  0.36680159  0.84231223  0.69931959  1
  H+  H116  1  0.13897064  0.23673477  0.16039342  1
  H+  H117  1  0.22790452  0.61482397  0.50529545  1
  H+  H118  1  0.61833501  0.57994726  0.18731801  1
  H+  H119  1  0.59465556  0.84218279  0.51603791  1
  H+  H120  1  0.59445473  0.41399952  0.72158085  1
  H+  H121  1  0.35838097  0.75457518  1.01570496  1
  H+  H122  1  0.64328850  0.26440821  0.50819526  1
  H+  H123  1  0.62235855  0.50682971  0.65158383  1
  H+  H124  1  0.63751551  0.10972176  0.81905261  1
  H+  H125  1  0.60681576  0.98118931  0.16175837  1
  H+  H126  1  0.36119973  0.99260602  0.01297191  1
  H+  H127  1  0.64915750  0.53376509  0.33889070  1
  H+  H128  1  0.52959322  0.14023655  0.82692427  1
  H+  H129  1  0.91835196  0.84408598  0.58598255  1
  H+  H130  1  0.13664098  0.11717936  0.50603057  1
  H+  H131  1  0.88483970  0.52476570  0.66468208  1
  H+  H132  1  0.52893960  0.13996547  0.67176302  1
  H+  H133  1  -0.00520769  0.62313028  0.84199283  1
  H+  H134  1  0.28818854  0.15330024  0.34161724  1
  H+  H135  1  0.63771244  0.77705394  0.32918795  1
  H+  H136  1  0.15329135  1.02295853  0.18724994  1
  H+  H137  1  0.88050394  0.51629219  0.17458893  1
  H+  H138  1  0.84969009  0.24402698  0.15892340  1
  H+  H139  1  0.37998012  0.27243857  0.65809303  1
  H+  H140  1  0.39633663  0.36885141  0.66153257  1
  H+  H141  1  0.38131960  0.26976591  0.18013686  1
  H+  H142  1  0.43407569  0.75194981  0.63954767  1
  H+  H143  1  0.36579220  0.22812181  0.49584292  1
  H+  H144  1  0.13921406  0.15111328  0.67750446  1
  H+  H145  1  0.27469653  0.38769675  0.82861220  1
  H+  H146  1  0.34674589  0.12779737  0.82183876  1
  H+  H147  1  0.36027613  0.63659218  0.49454814  1
  H+  H148  1  0.35982833  0.84582570  0.66602358  1
  H+  H149  1  0.11260338  0.63525289  0.30482441  1
  H+  H150  1  0.87102868  0.39022848  0.00406895  1
  H+  H151  1  0.81666534  0.64509377  0.04988882  1
  H+  H152  1  0.89012467  0.91470277  0.66052890  1
  H+  H153  1  0.90171705  0.37168032  0.84006308  1
  H+  H154  1  0.97312112  0.85964466  0.64769743  1
  H+  H155  1  0.62347190  0.22542580  0.82521984  1
  H+  H156  1  0.77660348  0.37879220  0.49382755  1
  H+  H157  1  0.70234639  0.60061750  0.63635015  1
  H+  H158  1  0.93995982  0.83047873  0.23969907  1
  H+  H159  1  0.63739624  0.02240365  0.32960368  1
  H+  H160  1  0.11889745  0.72665809  0.82429400  1
  H+  H161  1  0.02160253  0.62944978  0.30308232  1
  H+  H162  1  0.51115247  0.71697396  0.11336490  1
  H+  H163  1  0.42861629  0.60114625  0.67629144  1
  H+  H164  1  0.37791719  0.58801085  1.00514729  1
  H+  H165  1  0.17244690  0.57454072  0.27331179  1
  H+  H166  1  0.38517756  0.98132975  0.16745548  1
  H+  H167  1  0.87963366  0.61415782  0.98247732  1
  H+  H168  1  0.85796765  0.88096234  0.32566195  1
  H+  H169  1  0.77428472  0.38591838  0.67668945  1
  H+  H170  1  0.47552317  0.86306434  0.17707770  1
  H+  H171  1  0.35201054  0.65453881  0.72351714  1
  H+  H172  1  0.22698706  0.11890173  0.50534716  1
  H+  H173  1  0.80703977  0.92127047  0.66655063  1
  H+  H174  1  0.36664995  0.38493424  0.17037234  1
  H+  H175  1  1.03110074  0.86638516  0.32274118  1
  H+  H176  1  0.14468018  0.03694741  0.99265488  1
  H+  H177  1  0.12219788  0.48769568  0.82440463  1
  H+  H178  1  0.46851381  0.11046601  0.17868060  1
  H+  H179  1  1.00912303  0.61523209  0.15734826  1
  H+  H180  1  0.94989077  0.86131171  0.35933716  1
  H+  H181  1  0.09911850  0.18220817  0.72962767  1
  H+  H182  1  0.23814601  0.61327247  0.65472834  1
  H+  H183  1  0.87956839  0.24015626  0.83286631  1
  H+  H184  1  0.73061792  0.35811172  0.99258328  1
  H+  H185  1  0.38994879  0.36357555  0.50687825  1
  H+  H186  1  0.38714333  0.51831404  0.18331614  1
  H+  H187  1  0.22889314  0.61227068  0.17964470  1
  H+  H188  1  0.86977492  0.72540602  0.83060002  1
  H+  H189  1  0.36629658  0.63562895  0.82188891  1
  H+  H190  1  0.37013634  0.88126110  0.15918881  1
  H+  H191  1  0.36016818  0.88399214  0.49302251  1
  H+  H192  1  0.34364838  0.97600313  0.34535828  1
  H+  H193  1  0.61860121  0.98103908  0.00799207  1
  H+  H194  1  0.39461838  0.36730806  0.33020411  1
  H+  H195  1  0.45396002  0.41675020  0.95646079  1
  H+  H196  1  0.86629507  0.93773858  0.15165042  1
  H+  H197  1  0.63887432  0.77704494  0.98479642  1
  H+  H198  1  0.11556369  0.38551857  0.34464917  1
  H+  H199  1  0.14475250  0.61829053  0.83401676  1
  H+  H200  1  0.38661333  0.77342711  0.49608171  1
  H+  H201  1  0.90090273  0.62056234  0.84649814  1
  H+  H202  1  0.68940554  0.80576883  0.68213235  1
  H+  H203  1  0.36488004  0.72310115  0.16845166  1
  H+  H204  1  0.60573518  0.20850535  0.34549567  1
  H+  H205  1  0.16108475  0.88047215  -0.01336569  1
  H+  H206  1  0.49740558  0.34692990  0.15850307  1
  H+  H207  1  0.15270145  0.11131473  0.17558394  1
  H+  H208  1  0.95191764  0.84163844  0.98749120  1
  H+  H209  1  0.61334939  0.85457139  0.83065323  1
  H+  H210  1  0.03049145  0.89010559  0.49450783  1
  H+  H211  1  0.21074302  0.88721176  0.34921598  1
  H+  H212  1  0.69894168  0.13146502  0.16930164  1
  H+  H213  1  0.73940924  0.35911998  0.83875414  1
  H+  H214  1  0.86656092  0.38084697  0.49310889  1
  H+  H215  1  0.37704074  0.35140136  0.83401066  1
  H+  H216  1  0.11944108  0.63699324  0.67185954  1
  H+  H217  1  0.91051331  0.09537822  0.18057625  1
  H+  H218  1  0.54096209  0.40538506  0.33917392  1
  H+  H219  1  0.67707835  0.07743483  0.56880534  1
  H+  H220  1  0.12928319  0.28788928  0.84408911  1
  H+  H221  1  0.11335682  0.23494036  0.49950575  1
  H+  H222  1  0.02688250  0.22650353  0.78086579  1
  H+  H223  1  0.86551421  0.39066830  0.67517480  1
  H+  H224  1  0.38077173  0.77922938  0.04381331  1
  H+  H225  1  0.35077900  0.37363136  0.01064746  1
  H+  H226  1  0.87551297  0.89988248  0.81654279  1
  H+  H227  1  0.36875805  0.25780684  0.83479342  1
  H+  H228  1  1.02569183  0.38399149  0.34287889  1
  H+  H229  1  0.50795977  0.62415416  0.53124459  1
  H+  H230  1  0.36042313  0.72656646  0.33917907  1
  H+  H231  1  0.88470738  0.60542679  0.33386138  1
  H+  H232  1  -0.03222952  0.11151143  0.00238483  1
  H+  H233  1  0.89043655  0.28094804  0.99041308  1
  H+  H234  1  -0.01965343  0.37092192  0.66176905  1
  H+  H235  1  0.22267729  0.61039634  0.99041669  1
  H+  H236  1  0.38827730  0.14182158  0.65354934  1
  H+  H237  1  0.13264142  0.52995998  -0.01255569  1
  H+  H238  1  0.60135462  0.10485795  0.18343593  1
  H+  H239  1  0.84200884  0.41989680  0.76785792  1
  H+  H240  1  0.25743026  0.53476086  0.05571302  1
  H+  H241  1  0.88518161  0.61347970  0.65502483  1
  H+  H242  1  0.59631107  0.42596828  0.39919171  1
  H+  H243  1  0.63860388  0.35657928  0.65684636  1
  H+  H244  1  0.27505182  0.63448582  0.34103832  1
  H+  H245  1  0.75685773  0.62243794  0.15049104  1
  H+  H246  1  0.13574678  0.86403044  0.50986327  1
  H+  H247  1  0.90173259  0.04940260  0.63836834  1
  H+  H248  1  0.60305943  0.12055309  0.34609083  1
  H+  H249  1  0.11823387  0.48215615  0.67014854  1
  H+  H250  1  0.46421773  0.87126406  0.32807189  1
  H+  H251  1  0.14086756  0.36400483  0.17658694  1
  H+  H252  1  0.60269713  0.13034601  0.00838475  1
  H+  H253  1  0.73351182  0.11575800  0.66363627  1
  H+  H254  1  -0.02367900  0.85243824  0.83339292  1
  H+  H255  1  0.66263042  0.87604873  0.67018101  1
  H+  H256  1  0.61819335  0.75921948  0.83088364  1
  H+  H257  1  0.22064933  0.36271161  0.00146436  1
  H+  H258  1  0.63938442  0.39416096  0.81715075  1
  H+  H259  1  0.23269596  0.36873095  0.17972827  1
  H+  H260  1  0.04452510  0.87754875  0.17529588  1
  H+  H261  1  0.42985023  0.82927398  0.55439574  1
  H+  H262  1  -0.02133056  0.64091360  -0.00529523  1
  H+  H263  1  0.61312474  0.22304612  0.00178517  1
  H+  H264  1  0.87187659  0.38771050  0.15986953  1
  H+  H265  1  0.85512318  -0.02772559  1.00450492  1
  H+  H266  1  0.86124041  0.47095811  0.34222815  1
  H+  H267  1  0.24466934  0.87383530  -0.00428456  1
  H+  H268  1  0.36877096  0.24973164  0.00551395  1
  H+  H269  1  0.11424501  0.47470366  0.16648433  1
  H+  H270  1  0.89289391  0.78404190  0.50093733  1
  H+  H271  1  0.87611602  0.65057637  0.49923501  1
  H+  H272  1  0.14072941  0.36870088  0.50776332  1
  H+  H273  1  0.46974658  0.12095487  0.99541413  1
  H+  H274  1  0.88992296  0.27058407  0.33238017  1
  H+  H275  1  0.47593395  0.61095910  0.83997479  1
  H+  H276  1  0.51464191  0.79498577  0.59194408  1
  H+  H277  1  0.75802977  0.34316175  0.32389285  1
  H+  H278  1  0.72553638  0.61567941  0.84588969  1
  H+  H279  1  0.54608711  0.87611267  0.66520172  1
  H+  H280  1  0.78926638  0.64635725  0.34601582  1
  H+  H281  1  0.52001629  0.89249731  0.48443838  1
  H+  H282  1  0.27958020  0.16328324  1.00587997  1
  H+  H283  1  0.52092727  0.36927130  -0.00447494  1
  H+  H284  1  0.09836370  0.06400770  0.81498009  1
  H+  H285  1  0.15772934  0.07697765  0.59615391  1
  H+  H286  1  0.17622895  0.59094056  0.89359653  1
  H+  H287  1  -0.00052860  0.15255537  0.82934211  1
  H+  H288  1  0.41401771  0.33274512  0.91423194  1
  H+  H289  1  0.22439111  0.86209731  0.50902596  1
  H+  H290  1  0.91955172  0.57731283  0.56648531  1
  H+  H291  1  0.66414085  0.83564980  0.26831347  1
  H+  H292  1  0.08357039  0.66483650  0.76472981  1
  H+  H293  1  0.15535222  0.83458752  0.28836455  1
  H+  H294  1  0.84006268  0.92666190  0.42629150  1
  H+  H295  1  0.01982173  0.15261192  0.49264821  1
  H+  H296  1  0.08894759  0.42441926  0.73023047  1
  H+  H297  1  0.62446376  0.49954082  -0.00573689  1
  H+  H298  1  0.59982001  0.68669288  0.06926866  1
  H+  H299  1  0.31760191  0.91562807  0.40503416  1
  H+  H300  1  0.88108697  0.11213514  0.84959092  1
  H+  H301  1  0.33607724  0.41378574  0.11072494  1
  H+  H302  1  0.66262046  0.08123054  0.93251604  1
  H+  H303  1  0.17407877  0.34167931  0.56707880  1
  H+  H304  1  0.18500004  0.10130220  0.27682801  1
  H+  H305  1  0.80054443  0.67790759  0.69670972  1
  H+  H306  1  0.84778751  0.67613337  0.43925389  1
  H+  H307  1  0.91056683  0.08163144  0.94196216  1
  H+  H308  1  0.67600424  0.32781683  0.89594700  1
  H+  H309  1  0.47336033  0.60524200  0.99776528  1
  H+  H310  1  0.58561947  0.16159791  0.73221917  1
  H+  H311  1  0.36233355  0.63210419  0.17786079  1
  H+  H312  1  0.86799753  0.13385336  0.34846426  1
  H+  H313  1  0.16851115  0.83382791  0.59745151  1
  H+  H314  1  0.09190431  0.17736137  0.40837270  1
  H+  H315  1  0.72882080  0.24892310  0.29844689  1
  H+  H316  1  0.63755402  0.81507954  0.56818389  1
  H+  H317  1  0.91144371  0.82837276  0.89008946  1
  H+  H318  1  0.41661675  0.58168945  0.89951505  1
  H+  H319  1  0.82399518  0.89228045  0.08990051  1
  H+  H320  1  0.90063058  0.56935836  0.27159206  1
  H+  H321  1  0.84610889  0.17862654  0.73306451  1
  H+  H322  1  0.56595078  0.38232744  0.06056521  1
  H+  H323  1  0.34719764  0.17564445  0.40060802  1
  H+  H324  1  0.92798459  0.34507815  0.93361611  1
  H+  H325  1  0.12357020  0.90507004  0.12795743  1
  H+  H326  1  0.25862850  0.12782444  0.66279337  1
  H+  H327  1  0.65546518  0.57538376  0.89817866  1
  H+  H328  1  0.33822443  0.41936326  0.43975567  1
  H+  H329  1  0.39185853  0.03315888  0.84036869  1
  H+  H330  1  0.41926429  0.33337610  0.56567422  1
  H+  H331  1  0.41821546  0.08854464  0.56184152  1
  H+  H332  1  0.83343761  0.40971771  0.40277051  1
  H+  H333  1  0.03650248  0.80565511  0.04050587  1
  H+  H334  1  0.05419178  0.14968748  0.16527872  1
  H+  H335  1  0.53891141  0.24577017  0.13129231  1
  H+  H336  1  0.34765127  0.92558235  0.09806379  1
  H+  H337  1  0.15845048  0.08839145  0.93150440  1
  H+  H338  1  0.67411767  0.32657356  0.56596611  1
  H+  H339  1  0.42477699  0.87116281  0.92133001  1
  H+  H340  1  0.14086579  0.15549084  0.83911059  1
  H+  H341  1  0.66583651  0.08564271  0.27258205  1
  H+  H342  1  0.16885222  0.34269806  0.90509345  1
  H+  H343  1  0.56654106  0.18628054  0.09386345  1
  H+  H344  1  0.62350206  0.97517223  0.67456144  1
  H+  H345  1  0.42198364  0.06526715  0.24247893  1
  H+  H346  1  0.07465066  0.90037798  0.72326007  1
  H+  H347  1  0.08537636  0.41968994  0.43818724  1
  H+  H348  1  0.83722874  0.64967827  0.78128257  1
  H+  H349  1  0.57991531  0.91997245  0.39531863  1
  H+  H350  1  0.08264070  0.41766931  0.10572957  1
  H+  H351  1  0.38157916  0.57297070  0.57509790  1
  H+  H352  1  0.31543183  0.15737797  0.72397002  1
  H+  H353  1  0.17558260  0.82907747  0.89844533  1
  H+  H354  1  0.06002332  0.69086817  0.07270325  1
  H+  H355  1  0.82425453  0.17910924  0.05870626  1
  H+  H356  1  0.42229358  0.58136015  0.28032345  1
  H+  H357  1  0.92018554  0.33822197  0.60282639  1
  H+  H358  1  0.61481200  0.97532900  0.49059111  1
  H+  H359  1  0.93332498  0.09391727  0.28310083  1
  H+  H360  1  0.87808971  0.60265428  0.17209979  1
  H+  H361  1  0.68261470  0.59818404  0.28207563  1
  H+  H362  1  0.33507730  0.66623817  0.43221403  1
  H+  H363  1  0.41130431  0.83638590  0.23508281  1
  H+  H364  1  0.02473038  0.39445735  0.01120129  1
  H+  H365  1  0.99264280  0.37483535  0.84075390  1
  H+  H366  1  0.47873916  0.10639501  0.50506953  1
  H+  H367  1  0.59876358  0.56029106  0.56497374  1
  H+  H368  1  0.73924266  0.10377915  0.51175705  1
  H+  H369  1  0.58315552  0.92197480  0.10231948  1
  H+  H370  1  0.91831813  0.33474328  0.23707440  1
  H+  H371  1  0.27530450  0.38686044  0.49724377  1
  H+  H372  1  0.32171043  0.93656024  0.77202823  1
  H+  H373  1  0.08678567  0.17270330  0.06910682  1
  H+  H374  1  0.02888196  0.63515485  0.67199337  1
  H+  H375  1  0.86196185  0.75872349  0.97982297  1
  H+  H376  1  0.83929813  0.41422818  0.09806900  1
  H+  H377  1  0.17550146  0.58728545  0.59739441  1
  H+  H378  1  0.34971342  0.42217386  0.73309220  1
  H+  H379  1  0.57528562  0.66006666  0.76301975  1
  H+  H380  1  0.57966917  0.90674119  0.76102818  1
  H+  H381  1  0.33942321  0.18102560  0.10646946  1
  H+  H382  1  0.65015161  0.82507451  0.89347807  1
  H+  H383  1  0.85104428  0.88092596  -0.00557372  1
  O2-  O384  1  0.10999345  0.17621906  0.14421034  1
  O2-  O385  1  0.08109503  0.17425568  0.48365433  1
  O2-  O386  1  0.05072635  0.19871936  0.80599634  1
  O2-  O387  1  0.08180739  0.41394479  0.15131727  1
  O2-  O388  1  0.08515772  0.41946846  0.48361399  1
  O2-  O389  1  0.09099070  0.42587852  0.81100663  1
  O2-  O390  1  0.06045961  0.62927383  0.13113028  1
  O2-  O391  1  0.09130561  0.66296743  0.48564559  1
  O2-  O392  1  0.08320501  0.66530423  0.81079759  1
  O2-  O393  1  0.10898971  0.90852375  0.17002096  1
  O2-  O394  1  0.09231165  0.91531235  0.48419365  1
  O2-  O395  1  0.08208140  0.89530079  0.80914101  1
  O2-  O396  1  0.34480420  0.17715642  0.15076916  1
  O2-  O397  1  0.33337359  0.16775744  0.47942741  1
  O2-  O398  1  0.31479125  0.15433570  0.80342344  1
  O2-  O399  1  0.33757175  0.41760823  0.15577241  1
  O2-  O400  1  0.33724010  0.41961415  0.48524528  1
  O2-  O401  1  0.33495354  0.41369871  0.81385267  1
  O2-  O402  1  0.33377942  0.66099623  0.15717005  1
  O2-  O403  1  0.33372263  0.66953475  0.47759037  1
  O2-  O404  1  0.33868902  0.66424214  0.80016097  1
  O2-  O405  1  0.34758858  0.92065700  0.14467765  1
  O2-  O406  1  0.32846278  0.91372313  0.47970775  1
  O2-  O407  1  0.33069228  0.92805845  0.81627384  1
  O2-  O408  1  0.55940075  0.20362426  0.13619189  1
  O2-  O409  1  0.58630248  0.15621445  0.48532231  1
  O2-  O410  1  0.58894700  0.16439654  0.81021495  1
  O2-  O411  1  0.54802687  0.34901452  0.13475630  1
  O2-  O412  1  0.58808818  0.40935129  0.47440463  1
  O2-  O413  1  0.62211135  0.42940564  0.79305160  1
  O2-  O414  1  0.55011130  0.69865815  0.12950457  1
  O2-  O415  1  0.57039583  0.64330170  0.53709361  1
  O2-  O416  1  0.58091476  0.66681168  0.80843302  1
  O2-  O417  1  0.58283199  0.92086847  0.14801357  1
  O2-  O418  1  0.58143293  0.91772226  0.47134901  1
  O2-  O419  1  0.57406536  0.90309690  0.80756768  1
  O2-  O420  1  0.80627821  0.18773144  0.13942291  1
  O2-  O421  1  0.85458273  0.15482397  0.48954603  1
  O2-  O422  1  0.84966364  0.17941060  0.81697639  1
  O2-  O423  1  0.83613951  0.41244095  0.14389924  1
  O2-  O424  1  0.83655946  0.41057387  0.47692057  1
  O2-  O425  1  0.84511047  0.41852060  0.81382681  1
  O2-  O426  1  0.79267708  0.60720972  0.12441928  1
  O2-  O427  1  0.84924629  0.68331852  0.48401432  1
  O2-  O428  1  0.84048332  0.65988976  0.82502192  1
  O2-  O429  1  0.82327509  0.88244883  0.13513873  1
  O2-  O430  1  0.84532981  0.93245848  0.47081605  1
  O2-  O431  1  0.85525075  0.93913148  0.80354770  1
  O2-  O432  1  0.18377603  0.08545321  0.19556565  1
  O2-  O433  1  0.16682480  0.08731438  0.52108482  1
  O2-  O434  1  0.14202613  0.10197123  0.84414847  1
  O2-  O435  1  0.17097767  0.33398002  0.19215638  1
  O2-  O436  1  0.17008280  0.33681460  0.52140235  1
  O2-  O437  1  0.17193291  0.34565933  0.85975646  1
  O2-  O438  1  0.16779277  0.57755426  0.19327659  1
  O2-  O439  1  0.16911901  0.58334178  0.52323651  1
  O2-  O440  1  0.17717378  0.58990539  0.84781719  1
  O2-  O441  1  0.16247751  0.80563511  0.23170325  1
  O2-  O442  1  0.16521659  0.83190918  0.52611823  1
  O2-  O443  1  0.17165520  0.82687195  0.85326613  1
  O2-  O444  1  0.44045959  0.05569930  0.20108188  1
  O2-  O445  1  0.41698968  0.07940199  0.51727997  1
  O2-  O446  1  0.42035576  0.09519804  0.85227843  1
  O2-  O447  1  0.41574419  0.33296473  0.19241649  1
  O2-  O448  1  0.41750468  0.32996223  0.52034769  1
  O2-  O449  1  0.40170267  0.31697440  0.85148006  1
  O2-  O450  1  0.41366005  0.57845759  0.19992733  1
  O2-  O451  1  0.39816998  0.57814908  0.53183278  1
  O2-  O452  1  0.41545862  0.58184309  0.85453808  1
  O2-  O453  1  0.41377455  0.83201455  0.18929238  1
  O2-  O454  1  0.41729778  0.83472784  0.51107397  1
  O2-  O455  1  0.40427942  0.83163800  0.84269130  1
  O2-  O456  1  0.64547813  0.08920967  0.19051367  1
  O2-  O457  1  0.67816488  0.07866775  0.52346346  1
  O2-  O458  1  0.67088919  0.07766390  0.81973138  1
  O2-  O459  1  0.68919230  0.32351146  0.19243775  1
  O2-  O460  1  0.67509818  0.32587801  0.52061976  1
  O2-  O461  1  0.67763029  0.32714773  0.85071240  1
  O2-  O462  1  0.67762639  0.62398594  0.19537783  1
  O2-  O463  1  0.56956693  0.56324877  0.52706553  1
  O2-  O464  1  0.66311549  0.58733203  0.85382296  1
  O2-  O465  1  0.66467337  0.83717900  0.18452226  1
  O2-  O466  1  0.58383327  0.79673318  0.54624089  1
  O2-  O467  1  0.64382025  0.82143909  0.84723615  1
  O2-  O468  1  0.95923788  0.13306669  0.20610072  1
  O2-  O469  1  0.90099951  0.10833902  0.50426282  1
  O2-  O470  1  0.91340825  0.08397496  0.86479410  1
  O2-  O471  1  0.91819312  0.33637037  0.19117448  1
  O2-  O472  1  0.92314510  0.33169909  0.52442725  1
  O2-  O473  1  0.93221841  0.34276694  0.85742002  1
  O2-  O474  1  0.91048704  0.57671988  0.18934471  1
  O2-  O475  1  0.92069866  0.58052107  0.52146117  1
  O2-  O476  1  0.93463092  0.59328837  0.86255497  1
  O2-  O477  1  0.94162859  0.82433860  0.19492182  1
  O2-  O478  1  0.92358816  0.84622541  0.51496628  1
  O2-  O479  1  0.91442606  0.82459224  0.84491597  1
  O2-  O480  1  0.19310192  0.11225462  0.32095651  1
  O2-  O481  1  0.15789103  0.07463016  0.64193213  1
  O2-  O482  1  0.16687751  0.09459601  0.97595764  1
  O2-  O483  1  0.17104698  0.33764220  0.31914386  1
  O2-  O484  1  0.18657399  0.35232681  0.64262272  1
  O2-  O485  1  0.16166531  0.33794006  0.98437657  1
  O2-  O486  1  0.17337451  0.58067601  0.31821458  1
  O2-  O487  1  0.17703702  0.58790285  0.64359916  1
  O2-  O488  1  0.16683767  0.58847534  0.97026664  1
  O2-  O489  1  0.14793928  0.85370823  0.33411773  1
  O2-  O490  1  0.16670415  0.83498882  0.64400065  1
  O2-  O491  1  0.18450346  0.84288358  0.97781757  1
  O2-  O492  1  0.40567572  0.07575295  0.31544755  1
  O2-  O493  1  0.43930904  0.13945993  0.63454678  1
  O2-  O494  1  0.40939145  0.09303000  0.98045485  1
  O2-  O495  1  0.42692699  0.34091196  0.31202273  1
  O2-  O496  1  0.42001287  0.33220511  0.64474257  1
  O2-  O497  1  0.42748069  0.35461198  0.96120026  1
  O2-  O498  1  0.42340881  0.58291072  0.32537931  1
  O2-  O499  1  0.37104993  0.58577766  0.66026692  1
  O2-  O500  1  0.41502695  0.56964803  0.98265807  1
  O2-  O501  1  0.40488085  0.83899285  0.31120533  1
  O2-  O502  1  0.47546838  0.80638451  0.61930221  1
  O2-  O503  1  0.44337312  0.90733597  0.95827524  1
  O2-  O504  1  0.67007078  0.08537125  0.31743112  1
  O2-  O505  1  0.67286908  0.07821853  0.64937827  1
  O2-  O506  1  0.66546651  0.08409443  0.97683024  1
  O2-  O507  1  0.71000220  0.29135503  0.29908315  1
  O2-  O508  1  0.67375082  0.32912149  0.64540563  1
  O2-  O509  1  0.67149219  0.32470710  0.97586970  1
  O2-  O510  1  0.68281561  0.59790997  0.32651608  1
  O2-  O511  1  0.63911842  0.56641427  0.63679942  1
  O2-  O512  1  0.65366994  0.55994308  0.97782694  1
  O2-  O513  1  0.66705497  0.83948181  0.31309504  1
  O2-  O514  1  0.69716895  0.85064729  0.65378485  1
  O2-  O515  1  0.66127506  0.83433971  0.96588702  1
  O2-  O516  1  0.92219973  0.08407768  0.32702226  1
  O2-  O517  1  0.91454384  0.10474232  0.61907500  1
  O2-  O518  1  0.90703667  0.08007260  0.98764446  1
  O2-  O519  1  0.91809310  0.32907985  0.31358608  1
  O2-  O520  1  0.91874677  0.34008003  0.64832121  1
  O2-  O521  1  0.92268142  0.34305284  0.97931033  1
  O2-  O522  1  0.90667563  0.56790146  0.31618462  1
  O2-  O523  1  0.91893752  0.58444260  0.64837796  1
  O2-  O524  1  0.92412991  0.59608089  0.97250581  1
  O2-  O525  1  0.95762363  0.83578997  0.32241083  1
  O2-  O526  1  0.91350308  0.83782560  0.63236364  1
  O2-  O527  1  0.89491549  0.82037152  0.96772612  1
  O2-  O528  1  0.07609257  0.17067391  0.02407617  1
  O2-  O529  1  0.09194535  0.17705501  0.36259199  1
  O2-  O530  1  0.14419944  0.20206366  0.69888505  1
  O2-  O531  1  0.08453209  0.42502166  0.02770579  1
  O2-  O532  1  0.08490815  0.41580652  0.35951401  1
  O2-  O533  1  0.08582835  0.42149919  0.68500059  1
  O2-  O534  1  0.04957762  0.71585556  0.03485345  1
  O2-  O535  1  0.07808013  0.65528865  0.28267512  1
  O2-  O536  1  0.08838354  0.66561820  0.68876401  1
  O2-  O537  1  0.04121069  0.86270800  0.03228032  1
  O2-  O538  1  0.11674599  0.91470616  0.32463557  1
  O2-  O539  1  0.07508371  0.90540356  0.67867136  1
  O2-  O540  1  0.33894756  0.19090115  0.02159365  1
  O2-  O541  1  0.35060318  0.17803898  0.35524147  1
  O2-  O542  1  0.31934583  0.16225394  0.67891051  1
  O2-  O543  1  0.32626164  0.40664727  0.02933617  1
  O2-  O544  1  0.33900008  0.41541826  0.36110236  1
  O2-  O545  1  0.35891516  0.42831868  0.68853692  1
  O2-  O546  1  0.30188174  0.59286101  0.04515808  1
  O2-  O547  1  0.33683844  0.66725071  0.35462589  1
  O2-  O548  1  0.35716463  0.65715374  0.67751448  1
  O2-  O549  1  0.34039794  0.93189182  0.02652689  1
  O2-  O550  1  0.30898430  0.91498192  0.35961516  1
  O2-  O551  1  0.29477301  0.96207919  0.70762376  1
  O2-  O552  1  0.57640078  0.16509543  0.02089336  1
  O2-  O553  1  0.57183141  0.14986763  0.36151250  1
  O2-  O554  1  0.58806966  0.16028143  0.68677981  1
  O2-  O555  1  0.57803128  0.39593015  0.01624743  1
  O2-  O556  1  0.60077406  0.43642054  0.35403645  1
  O2-  O557  1  0.58671859  0.40805253  0.67613906  1
  O2-  O558  1  0.63191310  0.68766899  0.03137389  1
  O2-  O559  1  0.59725202  0.68579006  0.35544799  1
  O2-  O560  1  0.55693246  0.64343744  0.68605677  1
  O2-  O561  1  0.58545418  0.92122117  0.02403776  1
  O2-  O562  1  0.57780770  0.92099811  0.34949012  1
  O2-  O563  1  0.59789135  0.91534254  0.69122793  1
  O2-  O564  1  0.82990706  0.17436061  0.01425821  1
  O2-  O565  1  0.83966119  0.16621340  0.36387610  1
  O2-  O566  1  0.83707578  0.17649938  0.68849551  1
  O2-  O567  1  0.83917474  0.41892299  0.02136468  1
  O2-  O568  1  0.83550640  0.40919692  0.35662034  1
  O2-  O569  1  0.83456016  0.41914552  0.69273666  1
  O2-  O570  1  0.82040507  0.65130546  0.00464291  1
  O2-  O571  1  0.85031077  0.66797878  0.35838473  1
  O2-  O572  1  0.82149670  0.67168130  0.65739028  1
  O2-  O573  1  0.82092211  0.90901055  0.01381637  1
  O2-  O574  1  0.83236214  0.91352603  0.34209829  1
  O2-  O575  1  0.86899978  0.95259028  0.67749999  1
