# generated using pymatgen
data_H2O
_symmetry_space_group_name_H-M   'P 1'
_cell_length_a   17.98365043
_cell_length_b   17.98275619
_cell_length_c   21.98681464
_cell_angle_alpha   89.98576407
_cell_angle_beta   90.03093249
_cell_angle_gamma   120.01363505
_symmetry_Int_Tables_number   1
_chemical_formula_structural   H2O
_chemical_formula_sum   'H384 O192'
_cell_volume   6156.97379337
_cell_formula_units_Z   192
loop_
 _symmetry_equiv_pos_site_id
 _symmetry_equiv_pos_as_xyz
  1  'x, y, z'
loop_
 _atom_type_symbol
 _atom_type_oxidation_number
  H+  1.0
  O2-  -2.0
loop_
 _atom_site_type_symbol
 _atom_site_label
 _atom_site_symmetry_multiplicity
 _atom_site_fract_x
 _atom_site_fract_y
 _atom_site_fract_z
 _atom_site_occupancy
  H+  H0  1  0.45149709  0.47154093  0.42759701  1
  H+  H1  1  1.12343816  0.92605361  0.40529586  1
  H+  H2  1  0.62329697  0.75067374  0.82053854  1
  H+  H3  1  0.59559951  0.47265039  0.14426451  1
  H+  H4  1  0.08112123  0.67331690  0.10634235  1
  H+  H5  1  0.36530099  0.14892353  0.00559836  1
  H+  H6  1  0.77832143  0.38897078  0.69512474  1
  H+  H7  1  0.88291511  0.35607871  0.66627864  1
  H+  H8  1  0.65790567  0.16103711  0.50601607  1
  H+  H9  1  0.47827556  0.37661513  0.85510611  1
  H+  H10  1  0.60289143  0.72596977  0.16235416  1
  H+  H11  1  0.93498613  0.39503114  0.35252156  1
  H+  H12  1  0.47581540  0.36173469  0.66304918  1
  H+  H13  1  0.11672759  0.12807028  0.67183891  1
  H+  H14  1  0.62483721  0.65197925  0.34250420  1
  H+  H15  1  0.81283729  0.98026502  0.01672527  1
  H+  H16  1  0.22029821  0.59131884  0.32802223  1
  H+  H17  1  0.95013915  0.21214849  0.96941252  1
  H+  H18  1  0.02686199  0.88610723  0.67007669  1
  H+  H19  1  0.40201172  0.62853637  0.65849097  1
  H+  H20  1  0.88461221  1.01446506  0.50265197  1
  H+  H21  1  0.20979864  0.57426928  0.51913921  1
  H+  H22  1  0.35921256  0.37126434  1.00658454  1
  H+  H23  1  0.17640505  0.87935233  0.17501978  1
  H+  H24  1  0.82855155  0.70585844  0.15854517  1
  H+  H25  1  0.11917711  0.47771642  0.16594635  1
  H+  H26  1  0.89067063  0.28693706  1.00097258  1
  H+  H27  1  0.77991728  0.88283631  0.48669957  1
  H+  H28  1  0.22683149  0.11724785  0.99699475  1
  H+  H29  1  0.67976822  0.60233241  0.27474039  1
  H+  H30  1  0.87827065  0.88975768  -0.01265177  1
  H+  H31  1  0.35541728  0.22682447  0.49145134  1
  H+  H32  1  0.72171277  0.16113605  0.66748999  1
  H+  H33  1  1.01835237  0.64466831  0.82982023  1
  H+  H34  1  0.21826687  0.86646387  0.83745505  1
  H+  H35  1  0.97061003  0.11282725  0.31773777  1
  H+  H36  1  0.36532944  0.89675213  0.49926898  1
  H+  H37  1  0.01971577  0.63375779  0.67312832  1
  H+  H38  1  0.38205784  0.02625786  0.50381847  1
  H+  H39  1  0.11977820  0.73409100  0.16451883  1
  H+  H40  1  0.51923990  0.14195180  0.49336888  1
  H+  H41  1  0.26871263  0.67549346  0.46742454  1
  H+  H42  1  0.14122908  0.36863460  -0.00543485  1
  H+  H43  1  0.91543931  0.93122825  0.99878981  1
  H+  H44  1  0.96585759  0.61509245  1.00075041  1
  H+  H45  1  0.64393744  0.77115651  0.50222050  1
  H+  H46  1  0.10428904  0.46789060  0.67251242  1
  H+  H47  1  0.52672916  0.91682159  0.88158201  1
  H+  H48  1  0.86410674  0.14848434  0.02992001  1
  H+  H49  1  0.03436115  0.38166341  0.00902821  1
  H+  H50  1  0.62537635  0.26182140  0.00936443  1
  H+  H51  1  0.11809973  0.93736797  0.11076917  1
  H+  H52  1  0.89059062  0.02989224  0.66499560  1
  H+  H53  1  0.80803246  0.17568301  0.48163175  1
  H+  H54  1  0.21434283  0.85863211  0.66409439  1
  H+  H55  1  0.93341855  0.81953843  0.18789643  1
  H+  H56  1  0.37413214  -0.02263644  0.13930403  1
  H+  H57  1  0.61411348  0.73478942  0.33841031  1
  H+  H58  1  0.11325348  0.87856060  0.66794972  1
  H+  H59  1  0.57759522  0.17973854  0.20179170  1
  H+  H60  1  0.35805699  0.13938996  0.48678486  1
  H+  H61  1  0.73605638  0.11486167  1.01820830  1
  H+  H62  1  0.52947788  0.89405323  -0.02042440  1
  H+  H63  1  0.92180469  0.77209610  0.98830436  1
  H+  H64  1  0.61871282  0.97883811  0.53109181  1
  H+  H65  1  0.35297038  0.71325140  0.33047990  1
  H+  H66  1  0.37433343  0.27496888  1.00193315  1
  H+  H67  1  0.05354691  0.39415349  0.43403961  1
  H+  H68  1  0.43405384  0.84705250  0.83417703  1
  H+  H69  1  0.66209685  0.58485345  0.55329619  1
  H+  H70  1  0.09144645  0.23586014  0.34450755  1
  H+  H71  1  0.24376868  0.84389512  0.35443917  1
  H+  H72  1  0.25607025  0.37157725  0.83525928  1
  H+  H73  1  0.32120528  0.45338126  0.16637245  1
  H+  H74  1  0.34880881  0.98505901  0.67926940  1
  H+  H75  1  0.86887371  0.13714671  0.82800351  1
  H+  H76  1  0.70220279  0.37669524  0.92586757  1
  H+  H77  1  0.60537502  0.17912281  0.67390289  1
  H+  H78  1  -0.02461221  0.61253332  0.50790159  1
  H+  H79  1  0.38199695  0.61757050  0.49913137  1
  H+  H80  1  0.60376523  0.89971001  0.85462154  1
  H+  H81  1  0.32540510  0.39238692  0.32937885  1
  H+  H82  1  0.35328796  0.71751141  0.85080242  1
  H+  H83  1  0.86408502  0.97607544  0.33175637  1
  H+  H84  1  0.59073682  0.85086133  0.47941894  1
  H+  H85  1  0.06824171  0.88709175  0.20422708  1
  H+  H86  1  0.59233719  0.38361605  0.13577331  1
  H+  H87  1  0.64888170  0.78888040  0.65743599  1
  H+  H88  1  0.90583489  0.77792814  0.83632601  1
  H+  H89  1  0.78685443  0.64969516  0.67362162  1
  H+  H90  1  0.55070260  0.43706411  0.40109421  1
  H+  H91  1  0.11861565  0.45700279  0.33388591  1
  H+  H92  1  0.12606887  0.77442397  0.83495515  1
  H+  H93  1  0.87770253  0.37559676  0.51215816  1
  H+  H94  1  0.22357888  0.13213020  0.32560594  1
  H+  H95  1  0.56862968  0.90670008  0.09736126  1
  H+  H96  1  0.87836158  0.23623352  0.67539332  1
  H+  H97  1  0.37963523  0.76627670  0.17049175  1
  H+  H98  1  0.35967415  0.14764077  0.83338253  1
  H+  H99  1  0.47148105  0.35754763  0.50460355  1
  H+  H100  1  0.64164243  0.02043279  1.00076663  1
  H+  H101  1  0.48497004  0.60664460  0.31708955  1
  H+  H102  1  0.58629174  0.70423645  0.00914731  1
  H+  H103  1  0.74132057  0.62260131  0.33259196  1
  H+  H104  1  0.11279810  0.47811444  1.00929614  1
  H+  H105  1  1.02207812  0.37717885  0.82795659  1
  H+  H106  1  0.77969022  0.40022857  0.83651786  1
  H+  H107  1  0.36543739  0.16895787  0.32989200  1
  H+  H108  1  0.85122283  0.33778202  0.15201176  1
  H+  H109  1  0.83320743  0.16302385  0.38156371  1
  H+  H110  1  0.62897698  0.61029341  0.49439118  1
  H+  H111  1  0.71660448  0.10808624  0.31789481  1
  H+  H112  1  0.01890420  0.12444691  0.48953498  1
  H+  H113  1  0.21118657  0.33958668  0.66266489  1
  H+  H114  1  0.12664871  0.34939869  0.83811509  1
  H+  H115  1  0.50514523  0.04581527  0.37632200  1
  H+  H116  1  0.36745342  0.29267708  0.32188491  1
  H+  H117  1  0.35601097  0.73612674  0.49992537  1
  H+  H118  1  0.82295296  0.46491230  0.98690464  1
  H+  H119  1  0.11786678  0.88001331  0.50664897  1
  H+  H120  1  0.77078058  0.63410748  0.48749038  1
  H+  H121  1  0.48729733  0.13997792  0.99423978  1
  H+  H122  1  0.60382558  0.97108425  0.33331658  1
  H+  H123  1  0.72687917  0.86820782  0.32445436  1
  H+  H124  1  0.12957707  0.61488188  0.18035116  1
  H+  H125  1  0.71866500  0.86368205  0.17174624  1
  H+  H126  1  0.79807906  0.86412720  0.82656083  1
  H+  H127  1  0.46500678  0.85467673  0.32047814  1
  H+  H128  1  0.78014752  0.13888913  0.82919151  1
  H+  H129  1  0.68127095  0.01763092  0.64437137  1
  H+  H130  1  0.98280648  0.33779332  0.29770179  1
  H+  H131  1  0.61824892  0.10665958  0.17118816  1
  H+  H132  1  0.84943679  0.47019601  0.14195744  1
  H+  H133  1  0.62721492  0.29099946  0.71278213  1
  H+  H134  1  0.19568648  0.38938018  0.34193470  1
  H+  H135  1  0.61254363  0.61070289  0.17597636  1
  H+  H136  1  0.71788179  0.84805886  0.99627031  1
  H+  H137  1  0.64729702  1.03539610  0.86237534  1
  H+  H138  1  0.11137943  0.22023535  0.82708272  1
  H+  H139  1  0.35941086  0.23500323  0.83921797  1
  H+  H140  1  0.92871444  0.12547771  0.93545111  1
  H+  H141  1  0.86977164  0.13651525  0.47861697  1
  H+  H142  1  0.66244700  -0.01661611  0.52575522  1
  H+  H143  1  0.15079422  0.00766701  0.16586440  1
  H+  H144  1  0.47817832  0.11583449  0.15870176  1
  H+  H145  1  0.29501935  0.11316370  0.64822604  1
  H+  H146  1  0.36803199  0.83768283  0.32670234  1
  H+  H147  1  0.61374707  0.40234733  0.70203230  1
  H+  H148  1  0.12119251  0.25927802  0.65882164  1
  H+  H149  1  0.61129900  0.88858857  1.00097702  1
  H+  H150  1  0.12823271  0.98076757  0.01236045  1
  H+  H151  1  0.85058274  0.88383278  0.15496696  1
  H+  H152  1  0.69467157  0.63507071  0.92760489  1
  H+  H153  1  0.60747399  0.48367778  0.68012268  1
  H+  H154  1  0.35536751  0.62931642  0.84794359  1
  H+  H155  1  0.40502039  0.26420246  0.64904917  1
  H+  H156  1  0.20812439  0.61229767  1.00091538  1
  H+  H157  1  0.44466182  0.38951295  0.32307727  1
  H+  H158  1  0.86231782  0.62587133  1.00735627  1
  H+  H159  1  0.24822955  0.85788464  0.16188186  1
  H+  H160  1  0.11488687  0.71659439  0.50181428  1
  H+  H161  1  0.65081427  0.87786255  0.65777876  1
  H+  H162  1  0.11587538  0.14122112  0.00815195  1
  H+  H163  1  0.23012591  0.12092291  0.84476990  1
  H+  H164  1  0.61813058  0.01697446  0.17132142  1
  H+  H165  1  0.45806051  0.85453542  0.68372935  1
  H+  H166  1  0.37506181  0.03063233  0.84926477  1
  H+  H167  1  0.11649458  0.96794067  0.50321183  1
  H+  H168  1  0.10611030  0.37839148  0.66890270  1
  H+  H169  1  0.46795384  0.84890786  0.50557170  1
  H+  H170  1  0.77515152  0.39092017  0.49381764  1
  H+  H171  1  0.45299552  0.59893194  1.00617570  1
  H+  H172  1  0.03448377  0.15696130  0.00836937  1
  H+  H173  1  0.50337562  0.10970088  0.83044432  1
  H+  H174  1  0.17562909  0.10252550  0.23345931  1
  H+  H175  1  0.59179695  0.09961375  0.34035902  1
  H+  H176  1  0.10536207  0.72550964  0.00938989  1
  H+  H177  1  0.12657031  0.60924246  0.66563589  1
  H+  H178  1  0.26329146  0.27237407  0.72397322  1
  H+  H179  1  0.87810976  0.60437763  0.16668182  1
  H+  H180  1  0.61575263  0.26812617  0.15143321  1
  H+  H181  1  0.17708732  0.39544397  0.17027394  1
  H+  H182  1  0.40397547  0.04414081  0.99086985  1
  H+  H183  1  0.11604110  0.33914064  0.50320013  1
  H+  H184  1  0.64779828  0.12191167  0.85700040  1
  H+  H185  1  0.32264952  -0.00304164  0.33613182  1
  H+  H186  1  0.34584070  0.89027887  0.83827510  1
  H+  H187  1  0.86610106  0.98104596  0.15809742  1
  H+  H188  1  0.12921364  0.62372595  0.84874998  1
  H+  H189  1  0.64543751  0.62970830  0.83600891  1
  H+  H190  1  0.45405811  0.56943928  0.86908378  1
  H+  H191  1  0.38688125  0.52462189  0.31875106  1
  H+  H192  1  0.63125323  0.27517595  0.49596218  1
  H+  H193  1  0.78086888  0.64992833  0.82798026  1
  H+  H194  1  0.96670740  0.36008051  0.50540087  1
  H+  H195  1  0.53492135  0.66660440  0.81038849  1
  H+  H196  1  0.97887071  0.85540454  0.50846311  1
  H+  H197  1  0.64023336  1.01838383  0.63799068  1
  H+  H198  1  0.29050767  0.56013697  0.71658944  1
  H+  H199  1  0.23832944  0.13197682  0.17351829  1
  H+  H200  1  0.10821838  0.72464852  0.67286313  1
  H+  H201  1  0.84827092  0.92237743  0.73392732  1
  H+  H202  1  0.14507949  0.02811421  0.83957657  1
  H+  H203  1  0.67212985  0.45676258  1.00141716  1
  H+  H204  1  0.35064147  0.71816376  0.00877996  1
  H+  H205  1  0.51062927  0.87402552  0.15720648  1
  H+  H206  1  0.89420395  0.89241147  0.83051954  1
  H+  H207  1  0.24256170  0.86608151  0.98555338  1
  H+  H208  1  0.36186079  0.49908020  0.84740433  1
  H+  H209  1  0.88480700  0.27647649  0.84101087  1
  H+  H210  1  0.34276526  0.33359325  0.68437223  1
  H+  H211  1  0.37799668  0.88976102  0.14338062  1
  H+  H212  1  0.10701601  0.21386117  0.49112847  1
  H+  H213  1  0.10716633  0.61630032  0.34240192  1
  H+  H214  1  0.86105896  0.72286755  0.49334384  1
  H+  H215  1  0.35724972  0.90039766  0.68041540  1
  H+  H216  1  0.51100982  0.63613615  0.16162946  1
  H+  H217  1  0.87754799  0.63884998  0.33484780  1
  H+  H218  1  0.88761553  0.26137007  0.30507321  1
  H+  H219  1  0.41205133  0.33352917  0.56345665  1
  H+  H220  1  0.22175830  0.10844714  0.50216908  1
  H+  H221  1  0.60670650  0.38525638  0.48303446  1
  H+  H222  1  0.38473056  0.36891002  0.85100273  1
  H+  H223  1  0.53613877  0.65863806  0.66220565  1
  H+  H224  1  0.21122488  0.61268031  0.85332578  1
  H+  H225  1  0.89470645  0.02750238  0.84931348  1
  H+  H226  1  0.77870414  0.65274977  0.00297096  1
  H+  H227  1  0.19393219  0.31779570  0.17045395  1
  H+  H228  1  0.39544785  0.40941994  0.48001709  1
  H+  H229  1  0.65456085  0.62628202  0.99288577  1
  H+  H230  1  0.65726246  0.65276249  0.64796505  1
  H+  H231  1  0.89557854  0.11693258  0.15389262  1
  H+  H232  1  0.88286118  0.13973028  0.67502642  1
  H+  H233  1  0.80823444  0.41235282  0.08194620  1
  H+  H234  1  0.85796410  0.88347789  0.33426511  1
  H+  H235  1  0.63212830  0.27814127  0.29494310  1
  H+  H236  1  0.09711986  0.63322398  0.01189949  1
  H+  H237  1  0.79949053  0.41961844  0.33274995  1
  H+  H238  1  0.85267320  0.12633454  0.32177460  1
  H+  H239  1  0.94960927  0.83925166  0.29161042  1
  H+  H240  1  0.89501776  0.86869270  0.65845643  1
  H+  H241  1  0.78561258  0.89772261  0.67543493  1
  H+  H242  1  0.60435805  0.47269920  0.48938706  1
  H+  H243  1  0.58717815  0.95284715  0.70445249  1
  H+  H244  1  0.16655546  0.82034096  0.59748305  1
  H+  H245  1  0.84257193  0.21462123  0.13144162  1
  H+  H246  1  -0.01199386  0.12570420  0.16447007  1
  H+  H247  1  0.13977658  0.27716533  -0.00413175  1
  H+  H248  1  0.87290295  0.75968148  0.32584668  1
  H+  H249  1  0.97502538  0.35943009  0.66149659  1
  H+  H250  1  0.88774100  0.60959003  0.66201070  1
  H+  H251  1  0.67334141  0.35679434  0.76744894  1
  H+  H252  1  0.34978329  0.62558277  0.16182890  1
  H+  H253  1  0.46071508  0.36146956  0.16151724  1
  H+  H254  1  0.98253739  0.11522989  0.84016035  1
  H+  H255  1  0.31455090  0.98300347  0.30348635  1
  H+  H256  1  0.97111259  0.61252017  0.16682325  1
  H+  H257  1  0.10097630  0.62167337  0.49719496  1
  H+  H258  1  0.36395836  0.13769642  0.15047469  1
  H+  H259  1  0.14755155  1.02125848  0.65640380  1
  H+  H260  1  0.64867254  0.30517668  0.85617983  1
  H+  H261  1  0.13912335  0.89700969  0.01457207  1
  H+  H262  1  0.48768295  0.20309983  0.28046652  1
  H+  H263  1  0.08947444  0.45266871  0.49352511  1
  H+  H264  1  0.38900415  0.90992703  0.97571991  1
  H+  H265  1  0.62726290  0.85895255  0.17012655  1
  H+  H266  1  0.02806934  0.88339682  0.81982427  1
  H+  H267  1  0.62356198  0.40771990  0.84247683  1
  H+  H268  1  0.58402117  0.50959333  0.35059392  1
  H+  H269  1  0.73696432  0.69202532  0.60498914  1
  H+  H270  1  0.87738075  0.73325036  0.67484313  1
  H+  H271  1  0.84130355  0.67308583  0.76877502  1
  H+  H272  1  0.13149867  0.12441404  0.32358698  1
  H+  H273  1  0.88731748  0.36703540  0.84844428  1
  H+  H274  1  0.11282707  0.13158374  0.82876381  1
  H+  H275  1  0.76680193  0.42930327  0.31924807  1
  H+  H276  1  -0.01150414  0.62170469  0.32248746  1
  H+  H277  1  0.58695883  0.52942730  0.21712602  1
  H+  H278  1  0.71763452  0.89926442  0.84888348  1
  H+  H279  1  0.14823453  0.98596405  0.34879371  1
  H+  H280  1  0.21820948  0.61409523  0.17935146  1
  H+  H281  1  0.89177829  0.86018748  0.50261422  1
  H+  H282  1  0.52475947  0.64733868  0.48972057  1
  H+  H283  1  0.64254180  0.53964899  0.84831362  1
  H+  H284  1  0.88609301  0.61779018  0.84526118  1
  H+  H285  1  0.34590353  0.62711807  0.01199518  1
  H+  H286  1  0.34979605  0.46708135  1.01693395  1
  H+  H287  1  0.12505953  0.15575065  0.16471509  1
  H+  H288  1  0.09818866  0.18607422  0.10534653  1
  H+  H289  1  0.65092701  0.07649373  0.26009616  1
  H+  H290  1  0.95300454  0.83205785  0.89679690  1
  H+  H291  1  0.35918381  0.92168501  0.04367565  1
  H+  H292  1  0.89207296  0.30893356  0.20541430  1
  H+  H293  1  0.59727366  0.68652353  0.72255756  1
  H+  H294  1  0.65767346  0.33386712  0.55480850  1
  H+  H295  1  1.01574961  0.85471707  0.98953911  1
  H+  H296  1  0.91100375  0.59215554  0.93797666  1
  H+  H297  1  0.90712417  0.42855315  0.40866845  1
  H+  H298  1  0.91750565  0.08138400  0.25521512  1
  H+  H299  1  0.88530703  0.61261720  0.50695912  1
  H+  H300  1  0.30728258  0.87770336  0.41018813  1
  H+  H301  1  0.45544658  0.13068510  0.66252806  1
  H+  H302  1  0.17164746  0.07985394  0.59675402  1
  H+  H303  1  0.61526007  0.31252921  0.23293809  1
  H+  H304  1  0.08235935  0.65631498  0.39700536  1
  H+  H305  1  0.38803921  0.56338657  0.94888281  1
  H+  H306  1  0.67619526  0.83869623  0.55790087  1
  H+  H307  1  0.84093932  0.91637296  0.42820652  1
  H+  H308  1  0.66532184  0.83558994  0.26527975  1
  H+  H309  1  0.84621691  0.42600322  0.77979688  1
  H+  H310  1  0.07580676  0.67037578  0.76821372  1
  H+  H311  1  0.09851699  0.41995304  0.10709970  1
  H+  H312  1  0.98242880  0.11536296  0.66184787  1
  H+  H313  1  0.15205829  0.31695100  0.56165912  1
  H+  H314  1  0.40901341  0.82946054  0.22764578  1
  H+  H315  1  0.86634010  0.47300909  0.67619560  1
  H+  H316  1  0.27196568  0.88450841  0.50405241  1
  H+  H317  1  0.14950933  0.55986187  0.57466741  1
  H+  H318  1  0.21184682  0.60176376  0.67046592  1
  H+  H319  1  0.33165099  0.17190792  0.06700330  1
  H+  H320  1  0.07525808  0.39801758  0.76620133  1
  H+  H321  1  0.88941229  0.52966161  0.84886468  1
  H+  H322  1  0.40950335  0.09060966  0.56049472  1
  H+  H323  1  0.70121973  0.18018560  0.60177595  1
  H+  H324  1  0.07152940  0.16711041  0.39692995  1
  H+  H325  1  0.08856043  0.91218967  0.75410677  1
  H+  H326  1  0.42080501  0.84109208  0.57108795  1
  H+  H327  1  0.56185083  0.65358518  0.07169383  1
  H+  H328  1  0.68365001  0.09349254  0.52675439  1
  H+  H329  1  0.58252736  0.43458818  0.78687820  1
  H+  H330  1  0.13019661  0.10272708  0.50308780  1
  H+  H331  1  0.21905376  0.78034999  0.55094013  1
  H+  H332  1  0.58388444  0.67295186  0.42958655  1
  H+  H333  1  0.86506657  0.48195320  0.50094721  1
  H+  H334  1  0.91428778  0.57931240  0.60131736  1
  H+  H335  1  0.43001792  0.60685937  0.59479645  1
  H+  H336  1  0.92487986  0.59052535  0.26391124  1
  H+  H337  1  0.40256789  0.33643413  0.22223724  1
  H+  H338  1  0.41978589  0.09821676  0.90442816  1
  H+  H339  1  0.70201738  0.75744202  0.96684232  1
  H+  H340  1  0.67359777  0.83086670  0.90374432  1
  H+  H341  1  0.46236653  0.12145310  0.31736007  1
  H+  H342  1  0.55291450  0.87616597  0.42209790  1
  H+  H343  1  0.08469594  0.15513823  0.73257442  1
  H+  H344  1  0.40865057  0.34022555  0.94378189  1
  H+  H345  1  0.91145186  0.33694337  0.57292918  1
  H+  H346  1  0.16899369  0.83546130  0.93557579  1
  H+  H347  1  0.74628616  0.61156218  0.15591788  1
  H+  H348  1  0.84408664  0.66388237  0.39733803  1
  H+  H349  1  0.92642567  0.31904546  0.93298472  1
  H+  H350  1  0.40395818  0.54147755  0.49519059  1
  H+  H351  1  0.15841763  0.32433870  0.90053565  1
  H+  H352  1  0.60602443  0.88354789  0.33205507  1
  H+  H353  1  1.04449372  0.80463521  0.24469861  1
  H+  H354  1  0.32473805  0.92350909  0.77537014  1
  H+  H355  1  0.26022487  0.37673471  1.00630784  1
  H+  H356  1  0.15701804  0.56330127  0.27063068  1
  H+  H357  1  0.84649649  0.17071090  0.73899821  1
  H+  H358  1  0.32997645  0.18194026  0.39414342  1
  H+  H359  1  0.41592800  0.56952304  0.22891251  1
  H+  H360  1  0.32563211  0.43299360  0.39254803  1
  H+  H361  1  0.61764006  0.46669033  0.05196984  1
  H+  H362  1  0.68578825  0.09735183  0.94707837  1
  H+  H363  1  0.14874382  0.58521073  0.94128278  1
  H+  H364  1  0.55634698  0.15865782  0.73710430  1
  H+  H365  1  0.40913228  0.08548121  0.21228114  1
  H+  H366  1  0.70423966  0.36193108  0.15027991  1
  H+  H367  1  0.36617694  0.77661478  0.66776384  1
  H+  H368  1  0.16535208  0.08244751  0.93870625  1
  H+  H369  1  0.92027085  0.83446976  0.59836505  1
  H+  H370  1  0.81916262  0.65182697  0.07218001  1
  H+  H371  1  0.91168105  0.07672930  0.56106475  1
  H+  H372  1  0.55849935  0.90930475  0.76836965  1
  H+  H373  1  0.31669029  0.39060610  0.77711964  1
  H+  H374  1  0.57253058  0.15745708  0.43206595  1
  H+  H375  1  0.31938578  0.65884408  0.10495457  1
  H+  H376  1  0.12117848  0.87844558  0.82200946  1
  H+  H377  1  0.59083990  0.19745079  0.06489433  1
  H+  H378  1  0.36504744  0.23009814  0.15632523  1
  H+  H379  1  0.85910423  0.80145433  0.22875244  1
  H+  H380  1  0.33216572  0.66467523  0.39298364  1
  H+  H381  1  0.53430927  0.05365848  0.79578097  1
  H+  H382  1  0.78838729  0.92616157  0.07718010  1
  H+  H383  1  0.31941857  0.64401661  0.75294361  1
  O2-  O384  1  0.09487570  0.18661814  0.15035491  1
  O2-  O385  1  0.07902296  0.15343192  0.47403323  1
  O2-  O386  1  0.08117857  0.15948339  0.81089162  1
  O2-  O387  1  0.10356855  0.41932260  0.15178610  1
  O2-  O388  1  0.05424386  0.39212956  0.47932232  1
  O2-  O389  1  0.07947010  0.39470559  0.81083382  1
  O2-  O390  1  0.08038758  0.67260891  0.15155024  1
  O2-  O391  1  0.07669359  0.65734099  0.48354932  1
  O2-  O392  1  0.07836059  0.67769433  0.81354744  1
  O2-  O393  1  0.13319736  0.94622007  0.15468258  1
  O2-  O394  1  0.08523111  0.90589615  0.49078862  1
  O2-  O395  1  0.09019880  0.91367672  0.80204711  1
  O2-  O396  1  0.33277148  0.16902595  0.13896923  1
  O2-  O397  1  0.32537189  0.16778601  0.47344372  1
  O2-  O398  1  0.32632692  0.17601818  0.82229879  1
  O2-  O399  1  0.38347062  0.49387058  0.15346880  1
  O2-  O400  1  0.40195114  0.45817457  0.45421856  1
  O2-  O401  1  0.31865469  0.40529388  0.82099930  1
  O2-  O402  1  0.32272944  0.66035598  0.15007612  1
  O2-  O403  1  0.32050097  0.67653378  0.48197284  1
  O2-  O404  1  0.32860546  0.66103088  0.83025537  1
  O2-  O405  1  0.35115955  0.91870832  0.12099993  1
  O2-  O406  1  0.33067007  0.92244922  0.48462234  1
  O2-  O407  1  0.31873763  0.92215300  0.82078086  1
  O2-  O408  1  0.57321627  0.16848720  0.15801260  1
  O2-  O409  1  0.57905198  0.17465146  0.47602419  1
  O2-  O410  1  0.55529406  0.11284730  0.80859716  1
  O2-  O411  1  0.56329477  0.41703366  0.12357270  1
  O2-  O412  1  0.57134017  0.41215894  0.47401368  1
  O2-  O413  1  0.58767294  0.43629864  0.83166464  1
  O2-  O414  1  0.57271950  0.66480535  0.14764196  1
  O2-  O415  1  0.58513031  0.66994924  0.47557710  1
  O2-  O416  1  0.59628274  0.69164086  0.80268294  1
  O2-  O417  1  0.57205453  0.90507439  0.14184323  1
  O2-  O418  1  0.53817144  0.84733862  0.46252917  1
  O2-  O419  1  0.57751185  0.93571859  0.84619762  1
  O2-  O420  1  0.82497164  0.15331324  0.11337987  1
  O2-  O421  1  0.85224119  0.17350246  0.45689348  1
  O2-  O422  1  0.83820320  0.16602267  0.80999630  1
  O2-  O423  1  0.81175149  0.41053364  0.12671334  1
  O2-  O424  1  0.83836925  0.41994611  0.48758235  1
  O2-  O425  1  0.84352271  0.42677594  0.82482470  1
  O2-  O426  1  0.80570082  0.64596245  0.14102660  1
  O2-  O427  1  0.83304951  0.66260420  0.47754648  1
  O2-  O428  1  0.84195713  0.67639797  0.81432318  1
  O2-  O429  1  0.82527623  0.92046951  0.14497042  1
  O2-  O430  1  0.84165817  0.91344692  0.47387600  1
  O2-  O431  1  0.85407881  0.91322803  0.81653768  1
  O2-  O432  1  0.17688141  0.10243288  0.18767309  1
  O2-  O433  1  0.16294945  0.07571134  0.52045096  1
  O2-  O434  1  0.16698899  0.08513449  0.85796575  1
  O2-  O435  1  0.22210298  0.37921003  0.17994312  1
  O2-  O436  1  0.14956326  0.31235591  0.51684483  1
  O2-  O437  1  0.15859986  0.31989433  0.85502773  1
  O2-  O438  1  0.15826355  0.58303266  0.19505029  1
  O2-  O439  1  0.14944121  0.55322538  0.52935473  1
  O2-  O440  1  0.15284323  0.59093962  0.86916234  1
  O2-  O441  1  0.19286865  0.83540225  0.18368294  1
  O2-  O442  1  0.18546436  0.80672274  0.53828081  1
  O2-  O443  1  0.15530141  0.83697295  0.84954376  1
  O2-  O444  1  0.41107862  0.07957256  0.16772981  1
  O2-  O445  1  0.41494294  0.08902247  0.51573802  1
  O2-  O446  1  0.41460875  0.09229063  0.85846251  1
  O2-  O447  1  0.40246157  0.32414074  0.17830552  1
  O2-  O448  1  0.41027986  0.33173408  0.51825947  1
  O2-  O449  1  0.41713994  0.34227810  0.86848371  1
  O2-  O450  1  0.40789689  0.57679838  0.18186772  1
  O2-  O451  1  0.41929552  0.59705817  0.51583254  1
  O2-  O452  1  0.39522068  0.55830734  0.86756820  1
  O2-  O453  1  0.41248111  0.82846545  0.18197704  1
  O2-  O454  1  0.41233230  0.83629936  0.52664301  1
  O2-  O455  1  0.39309979  0.83092048  0.86791329  1
  O2-  O456  1  0.64629216  0.07512635  0.18902744  1
  O2-  O457  1  0.70446080  0.15540104  0.52711717  1
  O2-  O458  1  0.68349367  0.09870247  0.87354365  1
  O2-  O459  1  0.64182872  0.33309911  0.15997143  1
  O2-  O460  1  0.66462115  0.33682631  0.51073623  1
  O2-  O461  1  0.68380551  0.36758995  0.85639681  1
  O2-  O462  1  0.63539285  0.57352849  0.19398152  1
  O2-  O463  1  0.65866869  0.57824266  0.50858067  1
  O2-  O464  1  0.67689818  0.60411761  0.85551411  1
  O2-  O465  1  0.65826863  0.82965449  0.18650539  1
  O2-  O466  1  0.67601926  0.83387430  0.51314261  1
  O2-  O467  1  0.66539905  0.84632676  0.85991042  1
  O2-  O468  1  0.92464241  0.08928353  0.17408563  1
  O2-  O469  1  0.91325704  0.07603968  0.51635308  1
  O2-  O470  1  0.92227104  0.08975461  0.85720036  1
  O2-  O471  1  0.87302410  0.29862335  0.16230285  1
  O2-  O472  1  0.90756291  0.33993631  0.52725581  1
  O2-  O473  1  0.91644278  0.33375208  0.86027729  1
  O2-  O474  1  0.90924524  0.57415015  0.17787445  1
  O2-  O475  1  0.91460215  0.58221737  0.52404833  1
  O2-  O476  1  0.91799210  0.59108722  0.86358255  1
  O2-  O477  1  0.87171807  0.80324041  0.18402100  1
  O2-  O478  1  0.91710476  0.82717323  0.52179519  1
  O2-  O479  1  0.94311847  0.83869204  0.85143103  1
  O2-  O480  1  0.16403392  0.09657093  0.30930368  1
  O2-  O481  1  0.18019040  0.08187024  0.64225488  1
  O2-  O482  1  0.16485512  0.08335307  0.98404489  1
  O2-  O483  1  0.13360255  0.35246379  0.32951418  1
  O2-  O484  1  0.15332884  0.32066994  0.64580657  1
  O2-  O485  1  0.16909192  0.33624236  0.97706699  1
  O2-  O486  1  0.15845360  0.55412714  0.31553469  1
  O2-  O487  1  0.15429061  0.57538978  0.65136766  1
  O2-  O488  1  0.14720918  0.58160782  0.98763239  1
  O2-  O489  1  0.02351424  0.84329445  0.23321827  1
  O2-  O490  1  0.15614818  0.82622746  0.64624750  1
  O2-  O491  1  0.17881834  0.83558003  0.97974112  1
  O2-  O492  1  0.43628699  0.14653491  0.29093648  1
  O2-  O493  1  0.39678380  0.09550851  0.64319783  1
  O2-  O494  1  0.42678338  0.10499414  0.97831594  1
  O2-  O495  1  0.38883003  0.35043123  0.30295209  1
  O2-  O496  1  0.41808019  0.32446715  0.64459531  1
  O2-  O497  1  0.40112398  0.33752382  0.98925793  1
  O2-  O498  1  0.43332522  0.56840966  0.29276476  1
  O2-  O499  1  0.44122346  0.61230232  0.63945436  1
  O2-  O500  1  0.39012177  0.56827985  0.99386875  1
  O2-  O501  1  0.40561935  0.82130670  0.30356659  1
  O2-  O502  1  0.40557640  0.83691703  0.65831467  1
  O2-  O503  1  0.45479792  0.88210253  0.91908558  1
  O2-  O504  1  0.65410850  0.07578576  0.30683986  1
  O2-  O505  1  0.69905917  0.19282650  0.64587912  1
  O2-  O506  1  0.67862738  0.08498307  0.99294978  1
  O2-  O507  1  0.59021752  0.28811003  0.27407082  1
  O2-  O508  1  0.66807117  0.35313135  0.72239433  1
  O2-  O509  1  0.70180357  0.37689052  0.97413175  1
  O2-  O510  1  0.67983548  0.60182655  0.31950765  1
  O2-  O511  1  0.69963999  0.63921720  0.62728478  1
  O2-  O512  1  0.70708042  0.66265406  0.96915906  1
  O2-  O513  1  0.66544178  0.83660513  0.31075983  1
  O2-  O514  1  0.68341389  0.85092040  0.64377757  1
  O2-  O515  1  0.68027034  0.79890663  0.96779067  1
  O2-  O516  1  0.91161172  0.07671760  0.30032457  1
  O2-  O517  1  0.92008787  0.09113490  0.65023765  1
  O2-  O518  1  0.93886474  0.15234158  0.97638701  1
  O2-  O519  1  0.92302382  0.31950798  0.28635588  1
  O2-  O520  1  0.91215472  0.32536091  0.64841134  1
  O2-  O521  1  0.93992074  0.30370623  0.97415851  1
  O2-  O522  1  0.92804260  0.60122869  0.30804949  1
  O2-  O523  1  0.91518514  0.57676701  0.64702175  1
  O2-  O524  1  0.90512287  0.58706348  0.98396765  1
  O2-  O525  1  0.88957209  0.81635504  0.30515286  1
  O2-  O526  1  0.92263280  0.83563632  0.64429699  1
  O2-  O527  1  0.96926595  0.81163893  0.96226294  1
  O2-  O528  1  0.09364280  0.17873945  0.02380466  1
  O2-  O529  1  0.06992663  0.17400588  0.35173870  1
  O2-  O530  1  0.08288473  0.15466509  0.68691637  1
  O2-  O531  1  0.09424407  0.41835786  0.02352830  1
  O2-  O532  1  0.08660129  0.39473775  0.35086573  1
  O2-  O533  1  0.07303168  0.40586693  0.68434042  1
  O2-  O534  1  0.06811814  0.66636471  0.02510973  1
  O2-  O535  1  0.08546220  0.65579885  0.35226531  1
  O2-  O536  1  0.07954735  0.66439807  0.68997330  1
  O2-  O537  1  0.10407538  0.92187072  0.03015404  1
  O2-  O538  1  0.15164344  0.93705527  0.36547091  1
  O2-  O539  1  0.08700689  0.91307298  0.68629343  1
  O2-  O540  1  0.33038760  0.17432931  0.02053711  1
  O2-  O541  1  0.32892461  0.18981187  0.34928978  1
  O2-  O542  1  0.35825504  0.14970864  0.65635659  1
  O2-  O543  1  0.32034235  0.40347376  0.02501850  1
  O2-  O544  1  0.30349368  0.42728258  0.35043233  1
  O2-  O545  1  0.29407713  0.33123339  0.70870547  1
  O2-  O546  1  0.31680664  0.66024016  0.02501818  1
  O2-  O547  1  0.32239096  0.65506073  0.34918726  1
  O2-  O548  1  0.30960373  0.62088237  0.71032327  1
  O2-  O549  1  0.35447900  0.92943125  -0.00128590  1
  O2-  O550  1  0.29397132  0.84442700  0.37168228  1
  O2-  O551  1  0.32446236  0.92688220  0.69710579  1
  O2-  O552  1  0.58847257  0.20092647  0.02043388  1
  O2-  O553  1  0.54488690  0.10469456  0.36380674  1
  O2-  O554  1  0.55919837  0.18401081  0.69620137  1
  O2-  O555  1  0.65854812  0.49902129  0.01893805  1
  O2-  O556  1  0.53108452  0.46258589  0.36927060  1
  O2-  O557  1  0.57500942  0.42796479  0.70000135  1
  O2-  O558  1  0.55398216  0.64598230  0.02641594  1
  O2-  O559  1  0.58625109  0.67456263  0.35470050  1
  O2-  O560  1  0.59855769  0.68848732  0.67739478  1
  O2-  O561  1  0.57945043  0.91876641  0.00799500  1
  O2-  O562  1  0.57133221  0.90955394  0.34657127  1
  O2-  O563  1  0.55410094  0.89653105  0.72376658  1
  O2-  O564  1  0.82241693  0.16452281  0.04713248  1
  O2-  O565  1  0.82445316  0.15882060  0.33626546  1
  O2-  O566  1  0.85237643  0.17368222  0.69221664  1
  O2-  O567  1  0.78973154  0.40244079  -0.00447647  1
  O2-  O568  1  0.95676896  0.42958348  0.38992923  1
  O2-  O569  1  0.84168490  0.41451320  0.69492807  1
  O2-  O570  1  0.83270812  0.66187737  0.02597084  1
  O2-  O571  1  0.84131556  0.66454658  0.35222693  1
  O2-  O572  1  0.84530167  0.67304962  0.69110918  1
  O2-  O573  1  0.76422929  0.93328740  0.03753846  1
  O2-  O574  1  0.83220317  0.91746822  0.35068755  1
  O2-  O575  1  0.84706724  0.92688188  0.68893767  1
