# generated using pymatgen
data_H2O
_symmetry_space_group_name_H-M   'P 1'
_cell_length_a   17.99031066
_cell_length_b   17.98647963
_cell_length_c   22.00390092
_cell_angle_alpha   90.00226377
_cell_angle_beta   90.00119063
_cell_angle_gamma   119.97931256
_symmetry_Int_Tables_number   1
_chemical_formula_structural   H2O
_chemical_formula_sum   'H384 O192'
_cell_volume   6167.45003947
_cell_formula_units_Z   192
loop_
 _symmetry_equiv_pos_site_id
 _symmetry_equiv_pos_as_xyz
  1  'x, y, z'
loop_
 _atom_type_symbol
 _atom_type_oxidation_number
  H+  1.0
  O2-  -2.0
loop_
 _atom_site_type_symbol
 _atom_site_label
 _atom_site_symmetry_multiplicity
 _atom_site_fract_x
 _atom_site_fract_y
 _atom_site_fract_z
 _atom_site_occupancy
  H+  H0  1  0.27925408  0.63708360  0.67566021  1
  H+  H1  1  0.51628262  0.38361011  0.15190197  1
  H+  H2  1  0.97600802  0.11896990  0.66220054  1
  H+  H3  1  0.87918269  0.26795212  0.83545358  1
  H+  H4  1  0.60066024  0.46735969  1.00036366  1
  H+  H5  1  0.46808606  0.14158921  0.16588848  1
  H+  H6  1  0.36731594  0.21679895  0.66635024  1
  H+  H7  1  0.86211274  0.39550722  0.82518864  1
  H+  H8  1  0.72017192  0.11982148  0.51504529  1
  H+  H9  1  0.87770376  0.85261192  0.17656786  1
  H+  H10  1  0.13453626  0.35578717  0.19323363  1
  H+  H11  1  0.88726496  0.85034914  0.71212265  1
  H+  H12  1  0.13699237  0.61190049  0.17508000  1
  H+  H13  1  0.36505471  0.72442875  0.16397016  1
  H+  H14  1  0.82798656  0.41714966  0.73877972  1
  H+  H15  1  0.52385311  0.88426902  0.34165369  1
  H+  H16  1  1.01989799  0.39367346  0.67757839  1
  H+  H17  1  0.11774626  0.63606008  0.34815997  1
  H+  H18  1  0.87844348  0.26907436  0.47742255  1
  H+  H19  1  0.25186707  0.87845938  0.00371197  1
  H+  H20  1  0.35254894  0.47597765  0.83620849  1
  H+  H21  1  0.39289436  0.11843931  0.82602053  1
  H+  H22  1  0.09718734  0.37021140  0.82702789  1
  H+  H23  1  0.79070958  0.90778896  0.81221538  1
  H+  H24  1  0.02196111  0.89282558  0.83151601  1
  H+  H25  1  0.63533978  0.27854200  0.50534423  1
  H+  H26  1  0.25650519  0.14899965  0.48748531  1
  H+  H27  1  0.32246604  0.54588067  0.49326983  1
  H+  H28  1  0.38639336  0.85980547  0.32572586  1
  H+  H29  1  0.63116784  0.73412912  1.01511995  1
  H+  H30  1  0.65496244  0.10272658  0.57123134  1
  H+  H31  1  0.88795044  0.11231447  0.17828859  1
  H+  H32  1  0.11347265  0.64192648  0.67968125  1
  H+  H33  1  1.01896454  0.13785880  0.16525478  1
  H+  H34  1  0.64191618  0.51807160  0.32907713  1
  H+  H35  1  0.88078386  0.26818995  -0.00856320  1
  H+  H36  1  0.58994124  0.72528993  -0.00039161  1
  H+  H37  1  0.60007263  0.45709016  0.82827599  1
  H+  H38  1  0.16692157  0.09121501  0.59727931  1
  H+  H39  1  0.14077025  0.53131596  0.66776253  1
  H+  H40  1  0.63034742  0.12830165  0.00341909  1
  H+  H41  1  0.37290666  0.49997695  0.33220152  1
  H+  H42  1  0.23417001  0.61868744  0.84359909  1
  H+  H43  1  0.60543007  0.47257305  0.15098621  1
  H+  H44  1  0.66318579  0.57027102  0.57569931  1
  H+  H45  1  0.52253061  0.13362566  0.33826892  1
  H+  H46  1  0.44952384  0.58304893  0.84987943  1
  H+  H47  1  0.37854726  0.84148066  0.50259344  1
  H+  H48  1  0.37218089  0.60349533  0.17779418  1
  H+  H49  1  0.41287684  0.82145401  0.59919965  1
  H+  H50  1  0.97623477  0.86665382  0.48781932  1
  H+  H51  1  0.48240201  0.57875691  1.02801298  1
  H+  H52  1  0.22764142  0.11432712  0.83229964  1
  H+  H53  1  0.85705451  0.13611153  1.00991575  1
  H+  H54  1  0.52234598  0.38981755  0.34032411  1
  H+  H55  1  0.89698037  0.55593064  0.84446829  1
  H+  H56  1  0.85464671  0.13375724  0.49902849  1
  H+  H57  1  0.78826374  0.37896204  0.16896431  1
  H+  H58  1  0.88577776  0.03149937  0.66074563  1
  H+  H59  1  0.12507883  0.37349306  0.98963246  1
  H+  H60  1  0.88058852  0.51484068  0.66441576  1
  H+  H61  1  0.48616790  0.86232303  0.17607215  1
  H+  H62  1  0.35564412  0.24894155  0.48468262  1
  H+  H63  1  0.36565003  0.96994109  0.66611899  1
  H+  H64  1  0.61310343  0.91573761  0.66946635  1
  H+  H65  1  0.96723281  0.59849571  1.00044960  1
  H+  H66  1  0.72310509  0.36886717  0.50657679  1
  H+  H67  1  0.61410833  0.12846660  0.81970569  1
  H+  H68  1  0.87168609  0.97101582  0.16119614  1
  H+  H69  1  0.88475203  0.52383340  0.50805209  1
  H+  H70  1  0.11067831  0.23055929  0.67492361  1
  H+  H71  1  0.20860579  0.33980636  0.34400603  1
  H+  H72  1  0.57579578  1.00314409  0.02492039  1
  H+  H73  1  0.13553536  0.26808643  0.18216179  1
  H+  H74  1  0.21705331  0.59511005  0.51420293  1
  H+  H75  1  0.37925190  0.24170212  0.00932886  1
  H+  H76  1  0.65128157  0.61914179  0.17825553  1
  H+  H77  1  0.02450498  0.62513125  0.15866539  1
  H+  H78  1  0.12642634  0.26946967  0.83979292  1
  H+  H79  1  0.40298174  0.86835479  0.16835773  1
  H+  H80  1  0.68354524  0.72828551  0.11568944  1
  H+  H81  1  0.67281818  0.65365630  0.96675572  1
  H+  H82  1  0.35656944  0.22645888  0.82450503  1
  H+  H83  1  0.35334086  0.43715579  0.49442108  1
  H+  H84  1  0.72399285  0.12808375  0.84542964  1
  H+  H85  1  0.23498128  0.86922868  0.64312184  1
  H+  H86  1  0.21013041  0.37234458  0.50848308  1
  H+  H87  1  0.61104614  0.37827949  0.68002869  1
  H+  H88  1  0.86799650  0.22350743  0.34688079  1
  H+  H89  1  0.85851151  0.90250743  0.63612492  1
  H+  H90  1  0.47481293  0.86067487  0.50692961  1
  H+  H91  1  0.60722136  -0.01278743  0.50119786  1
  H+  H92  1  0.87969493  0.85638858  0.33085277  1
  H+  H93  1  0.25930272  0.38384819  0.16297077  1
  H+  H94  1  0.26750689  0.87302552  0.48707490  1
  H+  H95  1  0.86007882  0.14113027  0.83057408  1
  H+  H96  1  0.63575300  0.27048179  0.32963700  1
  H+  H97  1  0.97196260  0.11686848  0.50822344  1
  H+  H98  1  0.71587617  0.59539861  0.66629390  1
  H+  H99  1  0.62357583  0.51031672  0.66799050  1
  H+  H100  1  0.50679743  0.37264092  0.82694272  1
  H+  H101  1  1.02225987  0.63504661  0.68266946  1
  H+  H102  1  0.66586073  0.60245298  0.84083622  1
  H+  H103  1  0.67159560  0.79411374  0.82401500  1
  H+  H104  1  0.61349689  0.14645202  0.49313597  1
  H+  H105  1  0.10711233  0.38898653  0.67744133  1
  H+  H106  1  0.27602574  0.87799338  0.19686708  1
  H+  H107  1  0.26242969  0.38260335  0.82618708  1
  H+  H108  1  0.09681499  0.96858893  0.16452400  1
  H+  H109  1  0.54984700  0.83280213  -0.01095952  1
  H+  H110  1  0.61701026  0.23571562  0.02423436  1
  H+  H111  1  0.34792093  0.47325597  1.00702190  1
  H+  H112  1  0.88642770  0.36643306  0.33659538  1
  H+  H113  1  0.77318356  0.12096779  0.16524974  1
  H+  H114  1  0.26423197  0.84078493  0.17598323  1
  H+  H115  1  0.16305343  0.33581756  0.60659569  1
  H+  H116  1  0.91967995  0.13189946  0.34075405  1
  H+  H117  1  0.68624845  0.07083193  0.23140732  1
  H+  H118  1  0.91291325  0.32699914  0.24467492  1
  H+  H119  1  0.58122917  0.91628839  0.40190476  1
  H+  H120  1  0.13799800  0.02970832  0.65574035  1
  H+  H121  1  0.63886594  0.77782031  0.66548868  1
  H+  H122  1  0.35234325  0.49070177  0.16483195  1
  H+  H123  1  0.11442682  0.13834631  0.82670924  1
  H+  H124  1  0.61104094  0.88690704  0.81177817  1
  H+  H125  1  0.76753045  0.38100302  0.67843116  1
  H+  H126  1  0.65933061  0.10323872  0.90279187  1
  H+  H127  1  0.98084775  0.12407333  0.84379355  1
  H+  H128  1  0.35664191  0.61509682  0.83385934  1
  H+  H129  1  0.10484173  0.37938366  0.34385448  1
  H+  H130  1  0.27287002  0.13455184  0.66893637  1
  H+  H131  1  0.82577698  0.42821206  0.43043073  1
  H+  H132  1  0.38187423  0.28165839  0.32638229  1
  H+  H133  1  0.91408145  0.08746714  0.56846918  1
  H+  H134  1  0.64384731  0.02000606  0.33271516  1
  H+  H135  1  0.38057802  0.59244229  0.32802884  1
  H+  H136  1  0.89887622  1.03033891  -0.00224748  1
  H+  H137  1  0.15028604  0.82027893  0.27583077  1
  H+  H138  1  0.36823833  0.63592340  0.67418839  1
  H+  H139  1  0.85849490  0.72493887  0.48509392  1
  H+  H140  1  1.01760688  0.88252973  0.34134694  1
  H+  H141  1  0.51589784  0.12230395  0.80872231  1
  H+  H142  1  0.89223866  0.36027776  0.18169114  1
  H+  H143  1  0.03435638  0.89045400  0.67904510  1
  H+  H144  1  0.38484642  0.10695001  0.50594289  1
  H+  H145  1  0.08241525  0.16752255  0.76777122  1
  H+  H146  1  0.38928780  0.76843306  0.66182469  1
  H+  H147  1  0.85339312  0.37689127  1.00882674  1
  H+  H148  1  0.15220836  0.83285574  0.93148730  1
  H+  H149  1  0.06702342  0.91137413  0.07657314  1
  H+  H150  1  0.63611384  0.35673633  0.84376001  1
  H+  H151  1  0.88956865  0.60415092  0.17423860  1
  H+  H152  1  0.89138657  0.51432047  0.17398797  1
  H+  H153  1  0.61464151  0.90231165  0.50113274  1
  H+  H154  1  0.96437087  0.83956010  0.99583133  1
  H+  H155  1  0.11428567  0.10531345  0.32419799  1
  H+  H156  1  0.49657199  0.62961737  0.51058831  1
  H+  H157  1  0.58359083  0.66266985  0.83632790  1
  H+  H158  1  0.68997989  0.92274000  0.96587446  1
  H+  H159  1  0.63705073  0.79427571  0.49094532  1
  H+  H160  1  0.71323335  0.92849080  0.20182277  1
  H+  H161  1  0.72834072  0.87307643  0.50579676  1
  H+  H162  1  0.44941257  0.86871416  0.00460357  1
  H+  H163  1  0.63496613  0.35959945  0.32901361  1
  H+  H164  1  0.02668962  0.63504283  0.49715074  1
  H+  H165  1  0.52299753  0.62232218  0.31380556  1
  H+  H166  1  0.44765741  0.58500949  0.61337066  1
  H+  H167  1  0.37732877  0.09917912  0.97386862  1
  H+  H168  1  0.62465333  0.98039262  0.16715625  1
  H+  H169  1  0.27255738  0.88481208  0.33678815  1
  H+  H170  1  0.22062938  0.87315982  0.83894923  1
  H+  H171  1  0.39068997  0.10673436  0.65994682  1
  H+  H172  1  0.56601484  0.68481571  0.55778786  1
  H+  H173  1  0.80051846  0.90616629  0.00556913  1
  H+  H174  1  0.36347313  0.00469040  0.97438219  1
  H+  H175  1  0.60373736  0.58871688  0.01312681  1
  H+  H176  1  0.01639141  0.37634742  0.18440520  1
  H+  H177  1  0.88015254  0.76336251  0.17799376  1
  H+  H178  1  0.76235070  0.62575955  1.01580589  1
  H+  H179  1  0.97934824  0.36747043  0.33626832  1
  H+  H180  1  0.61959125  0.63638518  0.67896138  1
  H+  H181  1  0.25195932  0.10855448  0.98599713  1
  H+  H182  1  0.85372117  0.61291004  0.67399394  1
  H+  H183  1  0.34988855  0.97861934  0.81390784  1
  H+  H184  1  0.13374332  0.77434110  0.49682503  1
  H+  H185  1  0.88479262  0.85285713  -0.00261343  1
  H+  H186  1  0.48092492  0.10562922  0.65489286  1
  H+  H187  1  0.37220180  0.72291726  0.33703273  1
  H+  H188  1  0.12315476  0.73751929  0.83000997  1
  H+  H189  1  0.10603001  0.23216723  0.49279180  1
  H+  H190  1  0.88586973  0.86467422  0.48768290  1
  H+  H191  1  0.17137622  0.01688343  0.98579740  1
  H+  H192  1  0.58099381  0.14459701  0.74391358  1
  H+  H193  1  0.77620194  0.62844189  0.16572885  1
  H+  H194  1  0.60274932  0.05159722  0.66894322  1
  H+  H195  1  0.37358500  0.36191952  -0.00302776  1
  H+  H196  1  0.47116953  0.27652471  0.60510400  1
  H+  H197  1  0.47400655  0.84849327  0.84834317  1
  H+  H198  1  0.05536792  0.96248225  0.02204234  1
  H+  H199  1  0.99759074  0.36698414  0.82802591  1
  H+  H200  1  0.14888898  0.62764185  0.84291557  1
  H+  H201  1  0.15007027  0.87545988  0.64421550  1
  H+  H202  1  0.38132751  0.26551972  0.17605650  1
  H+  H203  1  0.85965958  0.46868218  0.01602669  1
  H+  H204  1  0.46638892  0.36757361  -0.00732045  1
  H+  H205  1  0.56676522  0.83865041  1.02112110  1
  H+  H206  1  0.85443889  0.72721798  0.34281151  1
  H+  H207  1  0.01900956  0.14385561  0.00782042  1
  H+  H208  1  1.00724622  0.87854567  0.16521494  1
  H+  H209  1  0.35231243  0.38493449  0.68508299  1
  H+  H210  1  0.27288300  0.63749692  0.16570206  1
  H+  H211  1  0.77004135  0.88250352  0.66571476  1
  H+  H212  1  0.11720601  0.35794367  0.52682118  1
  H+  H213  1  0.25793317  0.38527834  1.00679146  1
  H+  H214  1  0.86108668  0.23281999  0.68061809  1
  H+  H215  1  0.92218118  0.33430994  0.42348716  1
  H+  H216  1  0.20989788  0.10295991  0.17319444  1
  H+  H217  1  0.11067997  0.98114082  0.82373506  1
  H+  H218  1  0.39524132  0.52312636  0.66905419  1
  H+  H219  1  0.34357018  0.12263217  0.16129452  1
  H+  H220  1  0.10223857  0.71964194  0.00418780  1
  H+  H221  1  0.63393862  0.36298541  -0.00158643  1
  H+  H222  1  0.10317017  0.97430646  0.33673590  1
  H+  H223  1  0.36253397  0.93969652  0.08528806  1
  H+  H224  1  0.91954880  0.08845294  0.93701043  1
  H+  H225  1  0.71222623  0.11555086  -0.00016573  1
  H+  H226  1  0.85602618  0.38909947  0.48066195  1
  H+  H227  1  0.89444110  0.03580343  0.84012585  1
  H+  H228  1  0.56560423  0.12898126  0.18925405  1
  H+  H229  1  0.11124337  0.49502949  -0.01151213  1
  H+  H230  1  0.64020193  0.85717214  0.32584504  1
  H+  H231  1  0.64087355  0.75400273  0.16537545  1
  H+  H232  1  0.89375963  0.87825840  0.84400328  1
  H+  H233  1  0.63919007  0.60649771  0.31576601  1
  H+  H234  1  0.11927679  0.89741648  0.48926657  1
  H+  H235  1  0.37195231  0.35962107  0.83950637  1
  H+  H236  1  0.12362962  0.10815060  0.17352088  1
  H+  H237  1  0.38953299  0.75658062  0.85260369  1
  H+  H238  1  0.82718947  0.92337688  0.43420745  1
  H+  H239  1  0.22134314  0.36799651  0.66707805  1
  H+  H240  1  0.77131968  0.38551658  0.33956659  1
  H+  H241  1  0.37848190  0.02236996  0.32680740  1
  H+  H242  1  0.85189374  0.71162655  0.00888116  1
  H+  H243  1  0.64791787  0.11975943  0.17158029  1
  H+  H244  1  0.60690017  0.47219911  0.49743238  1
  H+  H245  1  0.94996515  0.85198835  0.76225691  1
  H+  H246  1  0.87736831  0.59507640  0.00126537  1
  H+  H247  1  0.88707940  0.61282115  0.50971144  1
  H+  H248  1  0.36220610  0.87947702  0.66871456  1
  H+  H249  1  0.49240634  0.34850874  0.65296805  1
  H+  H250  1  0.11195993  0.15227407  0.00846833  1
  H+  H251  1  0.76940707  0.63510435  0.49568523  1
  H+  H252  1  0.25945226  0.13629957  0.33724074  1
  H+  H253  1  0.11703536  0.72401214  0.34914878  1
  H+  H254  1  0.12294011  0.28291615  -0.00518510  1
  H+  H255  1  0.46877884  0.36644383  0.49547844  1
  H+  H256  1  0.61133146  0.71461629  0.31271466  1
  H+  H257  1  0.96706695  0.36087912  0.98364150  1
  H+  H258  1  0.13793200  0.86145791  0.33559467  1
  H+  H259  1  0.10144263  0.83939760  0.18409523  1
  H+  H260  1  0.52319597  0.14185866  0.49127800  1
  H+  H261  1  0.86280777  0.14582695  0.67801525  1
  H+  H262  1  0.11656315  0.85459234  -0.00786247  1
  H+  H263  1  0.66853205  0.26404443  0.18341299  1
  H+  H264  1  0.62243764  0.59715941  0.52424740  1
  H+  H265  1  0.39800358  0.72124159  0.49319427  1
  H+  H266  1  0.13335380  0.12105372  0.49923152  1
  H+  H267  1  0.13802676  0.52365028  0.18367342  1
  H+  H268  1  0.77592672  0.89194278  0.33712970  1
  H+  H269  1  0.64686080  0.10986800  0.32887679  1
  H+  H270  1  0.92764536  0.09072428  0.23760591  1
  H+  H271  1  0.51718945  0.89649801  0.66698161  1
  H+  H272  1  0.60576413  0.38299789  0.49585117  1
  H+  H273  1  0.63388169  0.26004623  0.65928689  1
  H+  H274  1  0.10593807  0.75247862  0.18325138  1
  H+  H275  1  0.41429636  0.04015413  0.15623408  1
  H+  H276  1  0.88186611  0.37119480  0.66715005  1
  H+  H277  1  0.35510654  0.72337680  0.00894361  1
  H+  H278  1  0.14157034  1.03424854  0.49830009  1
  H+  H279  1  0.37524973  0.60433650  0.99386625  1
  H+  H280  1  0.23156153  0.60909903  0.33184739  1
  H+  H281  1  0.34865682  0.13413263  0.33910268  1
  H+  H282  1  0.85905818  0.98203308  0.49479935  1
  H+  H283  1  0.72445262  0.36458999  0.00368290  1
  H+  H284  1  0.22268822  0.61311205  -0.00868644  1
  H+  H285  1  0.86665241  0.72184328  0.74457742  1
  H+  H286  1  -0.01187442  0.63511208  0.84106917  1
  H+  H287  1  0.86184650  0.21583475  0.16685339  1
  H+  H288  1  0.07874465  0.17279807  0.10547137  1
  H+  H289  1  0.84691537  0.92031518  0.07118292  1
  H+  H290  1  0.41633402  0.07789030  0.56401959  1
  H+  H291  1  0.58034813  0.41516099  0.40015798  1
  H+  H292  1  0.41617080  0.07716061  0.88151866  1
  H+  H293  1  0.08519958  0.66019792  0.09983678  1
  H+  H294  1  0.82201755  0.66215448  0.40572874  1
  H+  H295  1  0.55634298  0.93995709  0.08245368  1
  H+  H296  1  0.69588527  0.86429373  0.87630496  1
  H+  H297  1  0.56980327  0.40124960  0.73760577  1
  H+  H298  1  0.56716866  0.91903230  0.76492792  1
  H+  H299  1  0.10245166  0.92863896  0.72857815  1
  H+  H300  1  0.86075267  0.94181055  0.75989874  1
  H+  H301  1  0.86948732  0.97914166  0.34070765  1
  H+  H302  1  0.58208381  0.16496168  0.39705079  1
  H+  H303  1  0.90974141  0.32809037  0.89564295  1
  H+  H304  1  0.82260679  0.15292917  0.43684819  1
  H+  H305  1  0.33295328  0.91129182  0.39533616  1
  H+  H306  1  0.35901578  0.95778150  0.49273629  1
  H+  H307  1  0.67220868  0.57415066  0.23271819  1
  H+  H308  1  0.91350902  0.83169984  0.89918317  1
  H+  H309  1  0.42766274  0.19682687  0.03665315  1
  H+  H310  1  0.07973747  0.39628017  0.12842137  1
  H+  H311  1  0.91214628  0.57699071  0.60529369  1
  H+  H312  1  0.32069619  0.17780294  0.42286003  1
  H+  H313  1  0.09272349  0.67491286  0.77160350  1
  H+  H314  1  0.17373857  0.08260797  0.89349092  1
  H+  H315  1  0.11170093  0.14187944  0.67127660  1
  H+  H316  1  0.16857927  0.58792539  0.60757367  1
  H+  H317  1  0.90530027  0.82147526  0.27168140  1
  H+  H318  1  0.11288803  0.47246810  0.34107415  1
  H+  H319  1  0.32425124  0.16222241  0.10344734  1
  H+  H320  1  0.06238693  0.44090539  0.04661667  1
  H+  H321  1  0.40858224  0.08379928  0.26881260  1
  H+  H322  1  0.33973032  0.65771736  0.77360948  1
  H+  H323  1  0.66268041  0.83381320  0.60443298  1
  H+  H324  1  0.61786793  0.67852540  0.76832774  1
  H+  H325  1  0.85794095  0.47510812  0.33035066  1
  H+  H326  1  0.87694851  0.75014236  0.61732030  1
  H+  H327  1  0.88836331  0.78000121  0.59052734  1
  H+  H328  1  0.65427074  0.55735983  0.90403808  1
  H+  H329  1  0.32791650  0.66244408  0.06749487  1
  H+  H330  1  0.66275515  0.32762962  0.60422200  1
  H+  H331  1  0.17161436  0.58537317  0.27346918  1
  H+  H332  1  0.39467667  0.55950851  0.23560819  1
  H+  H333  1  0.33109116  0.16783929  0.76370925  1
  H+  H334  1  0.84408937  0.40785326  0.10735503  1
  H+  H335  1  0.40828142  0.82384222  0.93900353  1
  H+  H336  1  0.17127954  0.59290122  0.92499015  1
  H+  H337  1  0.61568989  0.88670750  0.15816021  1
  H+  H338  1  0.78453017  0.13026023  0.34175135  1
  H+  H339  1  0.77354535  0.39476868  0.82943451  1
  H+  H340  1  0.41188877  0.33269393  0.55398104  1
  H+  H341  1  0.12871313  0.86677411  0.84045619  1
  H+  H342  1  0.15178245  0.08181087  0.26597938  1
  H+  H343  1  0.45900485  0.97011619  0.09388225  1
  H+  H344  1  0.08877093  0.92863482  0.43168267  1
  H+  H345  1  0.17050522  0.84136123  0.55222875  1
  H+  H346  1  0.77479595  0.88887185  0.16425699  1
  H+  H347  1  0.40065683  0.32906405  0.89919493  1
  H+  H348  1  0.54115300  0.69727964  0.42762083  1
  H+  H349  1  1.00972367  0.38014876  0.50752665  1
  H+  H350  1  0.68051687  0.84277978  0.26425775  1
  H+  H351  1  0.09269630  0.46534967  0.53052745  1
  H+  H352  1  0.32639939  0.41911356  0.74418920  1
  H+  H353  1  0.06829111  0.40584774  0.76454437  1
  H+  H354  1  0.66816524  0.82807298  0.97308376  1
  H+  H355  1  0.38134052  0.36947567  0.32716792  1
  H+  H356  1  0.54576375  0.61707064  0.08560048  1
  H+  H357  1  0.53344500  0.63987908  0.68702402  1
  H+  H358  1  0.15221790  0.33321754  0.89794150  1
  H+  H359  1  0.11058552  0.63533266  0.00175330  1
  H+  H360  1  0.31455769  0.41944489  0.09723631  1
  H+  H361  1  0.33913670  0.87449819  -0.00100711  1
  H+  H362  1  0.41948994  0.83231066  0.26708706  1
  H+  H363  1  0.08566082  0.66218779  0.43657614  1
  H+  H364  1  0.41786204  0.33294177  0.22982639  1
  H+  H365  1  0.13635252  0.61258196  0.51021348  1
  H+  H366  1  0.56986415  0.41406256  0.06308958  1
  H+  H367  1  0.39793265  0.56440969  0.93398449  1
  H+  H368  1  0.31292858  0.91139283  0.75980758  1
  H+  H369  1  0.30911718  0.43198857  0.42941347  1
  H+  H370  1  0.06607071  0.16921367  0.43433061  1
  H+  H371  1  0.58646492  0.70491580  0.42835261  1
  H+  H372  1  0.83422430  0.65994574  0.10630458  1
  H+  H373  1  0.76004988  0.62819088  0.33965044  1
  H+  H374  1  0.68620264  0.33071894  0.23668805  1
  H+  H375  1  0.07181126  0.20741066  0.33545739  1
  H+  H376  1  0.67266962  0.33849221  0.90402433  1
  H+  H377  1  0.60186087  0.17655791  0.08343823  1
  H+  H378  1  0.92118297  0.34875154  0.60885365  1
  H+  H379  1  0.82931653  0.16867207  0.76944300  1
  H+  H380  1  0.30863800  0.34571155  0.39075044  1
  H+  H381  1  0.83117191  0.16556637  0.07046734  1
  H+  H382  1  0.15945833  0.31648118  0.28017347  1
  H+  H383  1  0.35717100  0.66640997  0.39629786  1
  O2-  O384  1  0.08051274  0.16919212  0.15050646  1
  O2-  O385  1  0.07644140  0.17055998  0.47855159  1
  O2-  O386  1  0.08307646  0.16853058  0.81325178  1
  O2-  O387  1  0.08046291  0.40724535  0.17174126  1
  O2-  O388  1  0.05859611  0.40203351  0.53634250  1
  O2-  O389  1  0.06266018  0.39750658  0.81112719  1
  O2-  O390  1  0.08606295  0.65757007  0.14528611  1
  O2-  O391  1  0.08727884  0.66441356  0.48322475  1
  O2-  O392  1  0.09817628  0.67653569  0.81736210  1
  O2-  O393  1  0.06674572  0.90920986  0.14720236  1
  O2-  O394  1  0.09259352  0.93301149  0.47721150  1
  O2-  O395  1  0.07873241  0.92032134  0.80927225  1
  O2-  O396  1  0.31265626  0.15269573  0.14771389  1
  O2-  O397  1  0.32057963  0.18420135  0.46994993  1
  O2-  O398  1  0.32933050  0.16584893  0.80908741  1
  O2-  O399  1  0.31691957  0.42280340  0.14347604  1
  O2-  O400  1  0.31173386  0.45019310  0.47596141  1
  O2-  O401  1  0.32338319  0.41300392  0.81330532  1
  O2-  O402  1  0.33317453  0.66336538  0.14991374  1
  O2-  O403  1  0.39558768  0.66810875  0.47508701  1
  O2-  O404  1  0.33564154  0.65478259  0.81848690  1
  O2-  O405  1  0.40740925  0.96067333  0.11781782  1
  O2-  O406  1  0.33039228  0.89917596  0.47556561  1
  O2-  O407  1  0.30806297  0.91803693  0.80412227  1
  O2-  O408  1  0.61575003  0.15650063  0.16303430  1
  O2-  O409  1  0.58306462  0.17556469  0.47566579  1
  O2-  O410  1  0.57699999  0.14688347  0.79243219  1
  O2-  O411  1  0.57304348  0.41605294  0.13095932  1
  O2-  O412  1  0.57486348  0.41281222  0.48006116  1
  O2-  O413  1  0.56596269  0.39816231  0.80999400  1
  O2-  O414  1  0.63407664  0.70332006  0.14278823  1
  O2-  O415  1  0.53072190  0.62568933  0.54389785  1
  O2-  O416  1  0.63634337  0.68813786  0.81266153  1
  O2-  O417  1  0.58352735  0.91756324  0.15054813  1
  O2-  O418  1  0.58046432  0.92733378  0.48497198  1
  O2-  O419  1  0.56730392  0.90413172  0.80806779  1
  O2-  O420  1  0.83734342  0.15769771  0.14901840  1
  O2-  O421  1  0.82109415  0.15965770  0.48193720  1
  O2-  O422  1  0.82890072  0.17023453  0.81580870  1
  O2-  O423  1  0.85005898  0.41128732  0.15279784  1
  O2-  O424  1  0.82603542  0.42271592  0.47596405  1
  O2-  O425  1  0.83243192  0.42524141  0.80984688  1
  O2-  O426  1  0.83740392  0.66199247  0.15169335  1
  O2-  O427  1  0.82646659  0.66118731  0.47563302  1
  O2-  O428  1  0.82520706  0.65892836  0.74749818  1
  O2-  O429  1  0.83795191  0.91197640  0.14483987  1
  O2-  O430  1  0.82529668  0.92136564  0.47972609  1
  O2-  O431  1  0.85491524  0.93950883  0.80426302  1
  O2-  O432  1  0.14995614  0.07439288  0.18972743  1
  O2-  O433  1  0.17094214  0.09700219  0.51181951  1
  O2-  O434  1  0.16715895  0.08528668  0.84888533  1
  O2-  O435  1  0.16923607  0.32715349  0.20029654  1
  O2-  O436  1  0.15463828  0.33016071  0.52772416  1
  O2-  O437  1  0.15129320  0.33112749  0.85243727  1
  O2-  O438  1  0.17038258  0.58564628  0.19339996  1
  O2-  O439  1  0.15951445  0.57774506  0.53019966  1
  O2-  O440  1  0.17484787  0.59406587  0.86032931  1
  O2-  O441  1  0.10928315  0.79887872  0.20958218  1
  O2-  O442  1  0.16631706  0.83742668  0.50577465  1
  O2-  O443  1  0.16128674  0.84106741  0.85862899  1
  O2-  O444  1  0.41857604  0.08987918  0.18172033  1
  O2-  O445  1  0.41530290  0.07707120  0.51802510  1
  O2-  O446  1  0.42288622  0.08611347  0.83599834  1
  O2-  O447  1  0.41873740  0.32685283  0.18533037  1
  O2-  O448  1  0.40691526  0.33772662  0.50930746  1
  O2-  O449  1  0.40094419  0.32716390  0.85391198  1
  O2-  O450  1  0.39368817  0.56340902  0.18994632  1
  O2-  O451  1  0.32400662  0.59935221  0.50953035  1
  O2-  O452  1  0.39074642  0.55520083  0.86421366  1
  O2-  O453  1  0.42325145  0.83233905  0.18824775  1
  O2-  O454  1  0.41454499  0.81756640  0.51854081  1
  O2-  O455  1  0.41924675  0.81474796  0.87109549  1
  O2-  O456  1  0.68506380  0.06925561  0.18669108  1
  O2-  O457  1  0.65840474  0.09361025  0.52702276  1
  O2-  O458  1  0.66325871  0.10501794  0.85765236  1
  O2-  O459  1  0.69474386  0.32624504  0.19269342  1
  O2-  O460  1  0.66304651  0.33777643  0.52303137  1
  O2-  O461  1  0.67753066  0.34053707  0.85904913  1
  O2-  O462  1  0.67178356  0.57859564  0.18754806  1
  O2-  O463  1  0.66139044  0.57413705  0.52996301  1
  O2-  O464  1  0.66274941  0.55197282  0.86053430  1
  O2-  O465  1  0.69573852  0.86847567  0.19348151  1
  O2-  O466  1  0.66625775  0.84052394  0.52060139  1
  O2-  O467  1  0.69272062  0.85645412  0.83163002  1
  O2-  O468  1  0.92172561  0.08406982  0.19310012  1
  O2-  O469  1  0.91136663  0.08473736  0.52293013  1
  O2-  O470  1  0.92070121  0.09369672  0.85976071  1
  O2-  O471  1  0.91989134  0.32737170  0.19983575  1
  O2-  O472  1  0.91158691  0.33194994  0.46750603  1
  O2-  O473  1  0.91378481  0.33025087  0.84986922  1
  O2-  O474  1  0.92396127  0.57671523  0.18556277  1
  O2-  O475  1  0.91633475  0.58276485  0.52607905  1
  O2-  O476  1  0.92801704  0.61799211  0.85128423  1
  O2-  O477  1  0.90788976  0.82356988  0.19475225  1
  O2-  O478  1  0.91306023  0.82866382  0.48783544  1
  O2-  O479  1  0.92236540  0.84535257  0.85506458  1
  O2-  O480  1  0.15302566  0.08378559  0.31183875  1
  O2-  O481  1  0.16731852  0.09143701  0.64227904  1
  O2-  O482  1  0.19146924  0.07637585  0.97347801  1
  O2-  O483  1  0.14829727  0.30908811  0.32468697  1
  O2-  O484  1  0.16090214  0.33600933  0.65220714  1
  O2-  O485  1  0.15413462  0.34122031  0.97628546  1
  O2-  O486  1  0.17069251  0.58012111  0.31861887  1
  O2-  O487  1  0.17456073  0.59117004  0.65289729  1
  O2-  O488  1  0.16403142  0.58673198  0.97319875  1
  O2-  O489  1  0.16833388  0.83210327  0.32018942  1
  O2-  O490  1  0.17936521  0.85011096  0.62187611  1
  O2-  O491  1  0.14819774  0.82678951  0.97759254  1
  O2-  O492  1  0.40580685  0.08427004  0.31369434  1
  O2-  O493  1  0.41926354  0.07825398  0.63970966  1
  O2-  O494  1  0.39392336  0.06159196  0.95333118  1
  O2-  O495  1  0.41557792  0.34244957  0.31375364  1
  O2-  O496  1  0.44442353  0.30626373  0.62436820  1
  O2-  O497  1  0.40416327  0.33299750  0.97992624  1
  O2-  O498  1  0.40396424  0.55649736  0.31157758  1
  O2-  O499  1  0.43161935  0.58445366  0.65620235  1
  O2-  O500  1  0.40022845  0.56812235  0.98123884  1
  O2-  O501  1  0.41838553  0.83025929  0.31260523  1
  O2-  O502  1  0.41651841  0.82796265  0.64421760  1
  O2-  O503  1  0.39547572  0.82507604  0.98460484  1
  O2-  O504  1  0.67977338  0.08074666  0.31883022  1
  O2-  O505  1  0.62956273  0.11078837  0.65195373  1
  O2-  O506  1  0.65289817  0.09162188  0.98440182  1
  O2-  O507  1  0.66842922  0.33172948  0.31655139  1
  O2-  O508  1  0.66023518  0.32292729  0.64941151  1
  O2-  O509  1  0.66514904  0.33281449  0.98611155  1
  O2-  O510  1  0.67620326  0.57784650  0.31222137  1
  O2-  O511  1  0.65437662  0.57045980  0.65191707  1
  O2-  O512  1  0.65510949  0.59848126  0.98601780  1
  O2-  O513  1  0.67474503  0.83209964  0.31040049  1
  O2-  O514  1  0.66804709  0.83785306  0.64928297  1
  O2-  O515  1  0.71144881  0.88380618  0.95632784  1
  O2-  O516  1  0.95123856  0.10311160  0.32308525  1
  O2-  O517  1  0.91586814  0.09125945  0.64589424  1
  O2-  O518  1  0.92126882  0.09023245  0.98271970  1
  O2-  O519  1  0.91444695  0.33097281  0.32900083  1
  O2-  O520  1  0.91714388  0.34402899  0.65302088  1
  O2-  O521  1  0.90597332  0.32566671  0.97109139  1
  O2-  O522  1  0.89017172  0.56313625  0.28638679  1
  O2-  O523  1  0.90960579  0.57623897  0.65071171  1
  O2-  O524  1  0.90537171  0.56158530  0.99098293  1
  O2-  O525  1  0.90578493  0.82137742  0.31754161  1
  O2-  O526  1  0.92660910  0.82904336  0.72195417  1
  O2-  O527  1  0.90511751  0.81476855  0.97979217  1
  O2-  O528  1  0.07972095  0.17843722  0.02464550  1
  O2-  O529  1  0.03813963  0.14525916  0.35122057  1
  O2-  O530  1  0.07966412  0.16903359  0.68863010  1
  O2-  O531  1  0.07386525  0.43154567  0.00497614  1
  O2-  O532  1  0.07599234  0.41211753  0.35506395  1
  O2-  O533  1  0.07913146  0.41992663  0.69551464  1
  O2-  O534  1  0.07798726  0.66074878  0.02124153  1
  O2-  O535  1  0.08771308  0.66465686  0.36557998  1
  O2-  O536  1  0.08157218  0.66786732  0.69792823  1
  O2-  O537  1  0.06677669  0.91574423  0.02974609  1
  O2-  O538  1  0.07816253  0.91633961  0.35539899  1
  O2-  O539  1  0.09686945  0.92864254  0.68354278  1
  O2-  O540  1  0.36960845  0.18498444  0.02716160  1
  O2-  O541  1  0.31935647  0.16586998  0.35405702  1
  O2-  O542  1  0.33229305  0.15961496  0.68567018  1
  O2-  O543  1  0.31691285  0.41228296  0.02435742  1
  O2-  O544  1  0.30572683  0.39185283  0.36960975  1
  O2-  O545  1  0.32786772  0.42048339  0.69672995  1
  O2-  O546  1  0.32659708  0.66147558  0.02232720  1
  O2-  O547  1  0.34454186  0.66243921  0.35224526  1
  O2-  O548  1  0.34037771  0.66739599  0.69017727  1
  O2-  O549  1  0.31445217  0.91072898  0.01369116  1
  O2-  O550  1  0.33472142  0.91687872  0.35008223  1
  O2-  O551  1  0.33061703  0.90978052  0.68047114  1
  O2-  O552  1  0.58745468  0.17557870  0.03992783  1
  O2-  O553  1  0.58325418  0.16221028  0.35164737  1
  O2-  O554  1  0.58086930  0.14995268  0.67866696  1
  O2-  O555  1  0.56760510  0.40873337  0.01565113  1
  O2-  O556  1  0.58286109  0.41601285  0.35482450  1
  O2-  O557  1  0.57560998  0.40493007  0.69128166  1
  O2-  O558  1  0.52702331  0.57472314  0.05262431  1
  O2-  O559  1  0.58621607  0.65147178  0.31094065  1
  O2-  O560  1  0.59642727  0.67271364  0.69624109  1
  O2-  O561  1  0.52900002  0.95537153  0.04881586  1
  O2-  O562  1  0.58429361  0.91327417  0.35697811  1
  O2-  O563  1  0.57650117  0.93934552  0.68146482  1
  O2-  O564  1  0.82811819  0.16720800  0.02492854  1
  O2-  O565  1  0.84438835  0.16199290  0.35893985  1
  O2-  O566  1  0.83317673  0.17373119  0.69693286  1
  O2-  O567  1  0.82753908  0.40634213  0.03107846  1
  O2-  O568  1  0.83248451  0.41960561  0.35383486  1
  O2-  O569  1  0.82843374  0.41357363  0.69209118  1
  O2-  O570  1  0.82322576  0.65361309  0.02819101  1
  O2-  O571  1  0.82217837  0.66506757  0.35874800  1
  O2-  O572  1  0.81497398  0.63899588  0.68269218  1
  O2-  O573  1  0.85670545  0.92582579  0.02531709  1
  O2-  O574  1  0.83530488  0.91980292  0.35585803  1
  O2-  O575  1  0.83460726  0.91164586  0.67336547  1
