# generated using pymatgen
data_H2O
_symmetry_space_group_name_H-M   'P 1'
_cell_length_a   17.99771378
_cell_length_b   18.00031653
_cell_length_c   22.00383142
_cell_angle_alpha   90.00583824
_cell_angle_beta   90.01658340
_cell_angle_gamma   120.02668539
_symmetry_Int_Tables_number   1
_chemical_formula_structural   H2O
_chemical_formula_sum   'H384 O192'
_cell_volume   6171.76730275
_cell_formula_units_Z   192
loop_
 _symmetry_equiv_pos_site_id
 _symmetry_equiv_pos_as_xyz
  1  'x, y, z'
loop_
 _atom_type_symbol
 _atom_type_oxidation_number
  H+  1.0
  O2-  -2.0
loop_
 _atom_site_type_symbol
 _atom_site_label
 _atom_site_symmetry_multiplicity
 _atom_site_fract_x
 _atom_site_fract_y
 _atom_site_fract_z
 _atom_site_occupancy
  H+  H0  1  0.39347290  0.02472930  0.17340036  1
  H+  H1  1  0.11866004  0.23928519  0.49407789  1
  H+  H2  1  0.91782671  0.58652316  0.23855376  1
  H+  H3  1  0.10649155  0.47693837  0.49292651  1
  H+  H4  1  0.67776284  0.59055995  0.92335558  1
  H+  H5  1  0.49731136  0.87672731  0.00659553  1
  H+  H6  1  0.11465887  -0.01004695  0.17214336  1
  H+  H7  1  0.61989455  0.13889954  0.84088813  1
  H+  H8  1  0.13448186  0.36284726  -0.00426379  1
  H+  H9  1  0.63507432  0.36384692  0.98463061  1
  H+  H10  1  0.36208412  0.35708657  0.34437239  1
  H+  H11  1  0.11946166  0.14317435  0.48727871  1
  H+  H12  1  0.11309358  0.62202464  0.84254438  1
  H+  H13  1  0.77288474  0.88815460  0.67012825  1
  H+  H14  1  1.02518107  0.64302299  0.50181726  1
  H+  H15  1  0.73167200  0.13459044  1.01103730  1
  H+  H16  1  0.72108274  0.36551211  0.17116059  1
  H+  H17  1  0.60906762  0.71689310  1.00524336  1
  H+  H18  1  0.85617545  0.22242248  0.34747871  1
  H+  H19  1  0.47783570  0.09927431  0.83181599  1
  H+  H20  1  0.08395712  0.67290278  0.41150227  1
  H+  H21  1  0.13646310  0.02634081  0.33438263  1
  H+  H22  1  0.13819659  0.76972201  0.98654373  1
  H+  H23  1  0.35894322  0.64174582  0.32888066  1
  H+  H24  1  0.14668796  0.03163621  0.98514216  1
  H+  H25  1  0.60873327  0.85749981  0.52899580  1
  H+  H26  1  0.88626271  0.02985662  0.65362089  1
  H+  H27  1  0.39701415  0.29387849  0.97400178  1
  H+  H28  1  0.84291190  0.42642431  0.07049311  1
  H+  H29  1  0.34498735  0.09894955  0.33862700  1
  H+  H30  1  0.67209525  0.34358577  0.33672586  1
  H+  H31  1  0.13533213  0.86189272  0.54131325  1
  H+  H32  1  0.96762545  0.35360045  0.32341130  1
  H+  H33  1  0.10663444  0.74255628  0.16588856  1
  H+  H34  1  0.32168492  0.14803272  0.76663168  1
  H+  H35  1  0.15866389  1.07018595  0.88921071  1
  H+  H36  1  0.22190881  0.87201618  0.33222741  1
  H+  H37  1  0.88496561  0.36859943  0.65906505  1
  H+  H38  1  0.37592752  0.34907686  0.65857121  1
  H+  H39  1  0.64715075  0.61933931  -0.01630241  1
  H+  H40  1  0.27248991  0.38296604  0.00190007  1
  H+  H41  1  0.12869641  0.76306666  0.53197782  1
  H+  H42  1  0.36821183  0.47650261  0.16292691  1
  H+  H43  1  0.64135889  0.01696099  0.31421587  1
  H+  H44  1  0.40372077  0.28293293  0.17491556  1
  H+  H45  1  0.62631909  0.62572958  0.81330565  1
  H+  H46  1  0.12221671  0.35651518  0.33264926  1
  H+  H47  1  0.30617791  0.89006714  0.75456599  1
  H+  H48  1  0.35743284  0.98529203  -0.00507309  1
  H+  H49  1  0.37616072  0.85551648  0.65875307  1
  H+  H50  1  0.52469310  0.60514724  0.82013051  1
  H+  H51  1  0.40142523  0.26850865  0.82288354  1
  H+  H52  1  0.36916843  0.47639111  1.00390529  1
  H+  H53  1  0.91308725  0.31943093  0.91760486  1
  H+  H54  1  0.51971732  0.13977858  0.00488775  1
  H+  H55  1  0.86612644  0.63574220  0.16405036  1
  H+  H56  1  0.10505558  0.47490656  0.34218584  1
  H+  H57  1  0.93084385  0.84769934  0.26828676  1
  H+  H58  1  0.36218242  0.63938702  0.66572169  1
  H+  H59  1  0.89989092  0.13427411  0.19119941  1
  H+  H60  1  0.02323889  0.14538590  0.49167638  1
  H+  H61  1  -0.02592517  0.31527496  0.17021980  1
  H+  H62  1  0.73246028  0.86710461  0.17310426  1
  H+  H63  1  0.27690486  0.37486024  0.82717613  1
  H+  H64  1  0.34001653  -0.03147941  0.48603196  1
  H+  H65  1  0.36836446  0.64195111  0.87197591  1
  H+  H66  1  0.40051513  0.36912976  0.15940709  1
  H+  H67  1  0.11995445  0.90528208  0.35750655  1
  H+  H68  1  0.87329366  0.34290790  0.97525041  1
  H+  H69  1  0.64247500  0.28487288  0.67560066  1
  H+  H70  1  0.36682187  0.77593576  0.50048310  1
  H+  H71  1  0.32970750  0.14809017  0.42860942  1
  H+  H72  1  0.11933673  0.39436976  0.82292770  1
  H+  H73  1  0.22134509  0.11696164  0.49183526  1
  H+  H74  1  0.40553483  0.49194132  0.83308777  1
  H+  H75  1  0.80427758  0.40286096  0.34309147  1
  H+  H76  1  0.96670437  0.36210092  0.50396476  1
  H+  H77  1  0.86482808  0.63615946  1.00660523  1
  H+  H78  1  0.10930126  0.03201783  0.64121433  1
  H+  H79  1  0.11575438  0.23433355  0.16721680  1
  H+  H80  1  0.03758200  0.88713811  0.51524614  1
  H+  H81  1  0.10881543  0.65564635  0.15473454  1
  H+  H82  1  0.36887124  0.77899468  0.82854091  1
  H+  H83  1  0.14090203  0.27004390  0.83833763  1
  H+  H84  1  0.35785961  0.46409571  0.67252199  1
  H+  H85  1  0.63303299  0.76541793  0.83107865  1
  H+  H86  1  0.12789380  -0.02960896  0.50048467  1
  H+  H87  1  0.98535911  0.62303358  0.66443107  1
  H+  H88  1  0.89411294  0.89043694  1.01740472  1
  H+  H89  1  1.01315901  0.12177940  1.00645060  1
  H+  H90  1  0.86566503  0.89446702  0.67152194  1
  H+  H91  1  0.27947041  0.15338146  -0.03619798  1
  H+  H92  1  0.06377395  0.08738502  0.04459974  1
  H+  H93  1  0.88463401  0.27940865  0.65937949  1
  H+  H94  1  0.61435022  0.11803223  0.34380085  1
  H+  H95  1  0.73635747  0.61064017  0.17553458  1
  H+  H96  1  0.58373566  0.65504632  0.75200240  1
  H+  H97  1  0.33093664  0.64877873  0.01983151  1
  H+  H98  1  0.98251430  0.62860347  0.33347135  1
  H+  H99  1  0.61349953  0.14383685  0.49683201  1
  H+  H100  1  0.63063444  0.36069544  0.51299461  1
  H+  H101  1  0.88776839  0.02384161  0.99431625  1
  H+  H102  1  0.38367018  1.01337783  0.82522686  1
  H+  H103  1  0.53128894  0.38791023  0.79826593  1
  H+  H104  1  0.60946802  0.88200325  0.33800093  1
  H+  H105  1  0.61215092  0.50965734  0.51600786  1
  H+  H106  1  0.86660512  0.69865590  0.81508345  1
  H+  H107  1  0.88582085  0.52768195  0.50947434  1
  H+  H108  1  0.86284977  0.14556675  0.03372780  1
  H+  H109  1  0.35114343  0.87827249  0.81518962  1
  H+  H110  1  0.09228420  0.46365974  0.00363047  1
  H+  H111  1  0.47362501  0.60305621  0.65926346  1
  H+  H112  1  0.70981562  0.58613921  0.34029800  1
  H+  H113  1  0.87641671  0.90210230  0.33785421  1
  H+  H114  1  0.31677614  0.87456669  0.48748053  1
  H+  H115  1  0.33549495  0.17598461  0.02183417  1
  H+  H116  1  0.62511613  0.48089748  0.16510102  1
  H+  H117  1  0.72568468  0.11147247  0.65623316  1
  H+  H118  1  0.30735020  0.07319028  0.67673204  1
  H+  H119  1  0.51089793  0.37027347  0.49308586  1
  H+  H120  1  0.40434442  0.61482938  0.17191484  1
  H+  H121  1  0.77597042  0.64357180  0.66485264  1
  H+  H122  1  0.85746285  0.22136089  0.49587317  1
  H+  H123  1  0.01809997  0.14663403  0.67237516  1
  H+  H124  1  0.86563666  0.73443789  0.66709628  1
  H+  H125  1  1.03480400  0.86892332  0.82882653  1
  H+  H126  1  0.86379781  0.14315004  0.66759275  1
  H+  H127  1  0.64005807  0.53044772  0.67386976  1
  H+  H128  1  0.97452720  0.62345344  0.99073227  1
  H+  H129  1  0.57497343  0.86038231  0.00168018  1
  H+  H130  1  0.97229943  0.61460704  0.17710962  1
  H+  H131  1  0.79108954  0.88664221  0.49265782  1
  H+  H132  1  0.86032745  0.46941373  0.17010999  1
  H+  H133  1  0.77335186  0.39651327  0.67517650  1
  H+  H134  1  0.03036760  0.13710868  0.82510549  1
  H+  H135  1  0.60505346  0.23245581  0.00500918  1
  H+  H136  1  0.02056694  0.39153205  0.67106060  1
  H+  H137  1  -0.01788582  0.87422274  0.65893141  1
  H+  H138  1  0.76415765  0.12151371  0.83249538  1
  H+  H139  1  0.02502184  0.89884367  0.16599240  1
  H+  H140  1  0.86604630  0.48332405  0.67306235  1
  H+  H141  1  0.23016940  0.86522700  0.98403298  1
  H+  H142  1  0.01038668  0.36945577  -0.00227686  1
  H+  H143  1  0.26783126  0.11972120  0.33810295  1
  H+  H144  1  0.13888477  0.11447207  0.97213217  1
  H+  H145  1  0.65354488  0.74489165  0.51127963  1
  H+  H146  1  0.09876488  0.63675144  0.00799773  1
  H+  H147  1  0.62183596  0.20681111  0.33978071  1
  H+  H148  1  0.92544771  0.44368413  0.03713290  1
  H+  H149  1  0.65114697  0.57311332  0.60660655  1
  H+  H150  1  0.51939399  0.88303306  0.66383919  1
  H+  H151  1  0.64097248  0.36087226  0.82393293  1
  H+  H152  1  0.61169441  0.72336945  0.67424252  1
  H+  H153  1  0.14450240  0.83330475  0.28716159  1
  H+  H154  1  0.22530198  0.37698604  0.50782378  1
  H+  H155  1  0.13625690  0.56892116  0.93460711  1
  H+  H156  1  0.15734551  0.09370008  0.54983601  1
  H+  H157  1  0.59994416  0.17338437  0.73974261  1
  H+  H158  1  0.62615674  0.15040004  0.67631297  1
  H+  H159  1  0.07530615  0.20890846  0.32958960  1
  H+  H160  1  0.25890051  0.38988910  0.34797164  1
  H+  H161  1  0.89620110  0.04042744  0.84049363  1
  H+  H162  1  0.61744966  0.50813035  0.32715587  1
  H+  H163  1  0.84750036  0.23776104  0.11274348  1
  H+  H164  1  0.35866974  0.20546739  0.48972170  1
  H+  H165  1  0.40176543  0.27687881  0.66633941  1
  H+  H166  1  0.58915449  0.99852830  0.47948491  1
  H+  H167  1  0.72686136  0.35711809  0.83200210  1
  H+  H168  1  0.12995145  0.62057334  0.33698521  1
  H+  H169  1  0.15707817  0.32849020  0.27560985  1
  H+  H170  1  0.88875449  0.54352484  0.33577169  1
  H+  H171  1  0.40799898  0.04640184  0.27297414  1
  H+  H172  1  0.86379468  0.46467901  0.82692104  1
  H+  H173  1  0.81235052  0.68442734  0.31334369  1
  H+  H174  1  0.87768847  0.65324093  0.33447677  1
  H+  H175  1  0.52651947  0.14451151  0.16563673  1
  H+  H176  1  0.15907215  0.97397055  0.68612282  1
  H+  H177  1  0.11639428  0.63557108  0.67711079  1
  H+  H178  1  0.90951831  0.79755272  0.33149802  1
  H+  H179  1  0.38998073  0.11722765  0.96790963  1
  H+  H180  1  0.61406813  0.63326434  0.67150253  1
  H+  H181  1  0.40171390  0.83082849  0.89219362  1
  H+  H182  1  0.09172985  0.45639828  0.15330427  1
  H+  H183  1  0.11512218  0.73436374  0.35386154  1
  H+  H184  1  0.41536657  0.56902683  0.60027654  1
  H+  H185  1  0.10799691  0.23612452  0.67291364  1
  H+  H186  1  0.61828212  0.39417983  0.70377306  1
  H+  H187  1  0.89835585  0.03513662  0.50020524  1
  H+  H188  1  0.13998544  0.27736484  0.99877477  1
  H+  H189  1  0.31956936  0.65278578  0.20882116  1
  H+  H190  1  0.84475603  0.37287491  0.15915002  1
  H+  H191  1  0.28954790  0.88011481  0.14621863  1
  H+  H192  1  0.51297208  0.64524262  0.49022924  1
  H+  H193  1  0.64027338  1.02918868  0.16451458  1
  H+  H194  1  0.23195625  0.66066047  0.79389012  1
  H+  H195  1  0.22032688  0.36388228  0.65980511  1
  H+  H196  1  0.90516647  0.83012843  0.80037022  1
  H+  H197  1  0.91993980  0.09104941  0.59486548  1
  H+  H198  1  0.60962195  0.22096546  0.83010799  1
  H+  H199  1  0.48721477  0.86503681  0.16638952  1
  H+  H200  1  0.19119171  0.60200236  1.00013372  1
  H+  H201  1  0.62478958  0.48954085  -0.00151797  1
  H+  H202  1  0.11112730  0.47835475  0.83339437  1
  H+  H203  1  0.64200527  0.13235674  0.00431145  1
  H+  H204  1  0.80085161  0.87424288  0.02099583  1
  H+  H205  1  0.88920584  0.77670145  0.17443908  1
  H+  H206  1  0.47420155  0.61362703  0.32482510  1
  H+  H207  1  0.63282440  0.85491233  0.65521040  1
  H+  H208  1  0.18984509  0.77205221  0.67764157  1
  H+  H209  1  0.13446096  0.52474866  0.65572133  1
  H+  H210  1  0.98036206  0.36140254  0.83378303  1
  H+  H211  1  0.34760244  0.18339764  0.25047293  1
  H+  H212  1  0.40893894  0.60389062  0.97291945  1
  H+  H213  1  0.62401723  0.38123805  0.16529020  1
  H+  H214  1  0.73287403  0.86907979  0.32601349  1
  H+  H215  1  0.04834666  0.90578797  0.02088197  1
  H+  H216  1  0.98147654  0.12524568  0.17856271  1
  H+  H217  1  0.88155383  -0.00791874  0.34264474  1
  H+  H218  1  1.03475079  0.90853565  0.34631582  1
  H+  H219  1  0.24024377  0.10759641  0.67371061  1
  H+  H220  1  0.65899975  0.32720622  0.92730229  1
  H+  H221  1  0.36330172  0.31984676  0.50953961  1
  H+  H222  1  0.18834095  0.82514099  0.59327761  1
  H+  H223  1  0.13705490  0.36150453  0.17469268  1
  H+  H224  1  0.78075163  0.64480975  0.00387492  1
  H+  H225  1  0.12988565  1.00257805  0.82876120  1
  H+  H226  1  0.38210715  0.52643010  0.32616180  1
  H+  H227  1  0.64910867  0.88865703  0.51196272  1
  H+  H228  1  0.63628878  0.02199014  0.65573930  1
  H+  H229  1  0.38424468  0.78298939  0.31573126  1
  H+  H230  1  0.70544651  0.86379276  0.83165954  1
  H+  H231  1  0.13325403  0.36979003  0.65912472  1
  H+  H232  1  0.22753245  0.36439929  0.17948012  1
  H+  H233  1  0.39045414  0.10959841  0.19323610  1
  H+  H234  1  0.88792325  0.86609429  0.17762931  1
  H+  H235  1  0.08315792  0.17544064  0.10740139  1
  H+  H236  1  0.35924079  0.64863242  0.48048066  1
  H+  H237  1  0.89671938  0.62362103  0.65932950  1
  H+  H238  1  0.37367625  0.38303541  -0.00450159  1
  H+  H239  1  0.90209904  0.76778390  1.00863292  1
  H+  H240  1  0.12524908  0.09809476  0.82513607  1
  H+  H241  1  0.76687851  0.38890235  0.50311578  1
  H+  H242  1  0.21461432  0.88633674  0.21066108  1
  H+  H243  1  0.88613864  0.59535259  0.83200083  1
  H+  H244  1  0.50930763  0.90064830  0.81988191  1
  H+  H245  1  0.48490865  0.38495377  0.98945620  1
  H+  H246  1  0.89146847  0.53094975  0.99511972  1
  H+  H247  1  0.47486445  0.10938519  0.50899176  1
  H+  H248  1  0.64087422  0.52091566  0.82168696  1
  H+  H249  1  0.20879673  0.59449997  0.86996073  1
  H+  H250  1  0.72355127  0.11191240  0.50433143  1
  H+  H251  1  0.54903361  0.98831494  0.78666519  1
  H+  H252  1  0.73207971  0.60579448  0.82321598  1
  H+  H253  1  0.14823273  0.57931949  0.10007006  1
  H+  H254  1  0.37415967  0.44127508  0.49811533  1
  H+  H255  1  0.41855252  0.07276287  0.91905344  1
  H+  H256  1  0.68778116  0.86507676  0.98449140  1
  H+  H257  1  0.61121337  0.63547144  0.33668272  1
  H+  H258  1  0.39460279  0.66045155  0.84331675  1
  H+  H259  1  0.86854825  0.23088091  0.00996954  1
  H+  H260  1  0.60798620  0.59612900  0.51466622  1
  H+  H261  1  0.13780619  0.75304470  0.84028440  1
  H+  H262  1  0.38302363  0.10168402  0.50582213  1
  H+  H263  1  0.36314135  0.36644941  0.81812493  1
  H+  H264  1  0.90298940  0.87633838  0.50541224  1
  H+  H265  1  0.84180283  0.90787829  0.82366684  1
  H+  H266  1  0.37545993  0.13786939  0.81937443  1
  H+  H267  1  0.11934691  0.12445561  0.64688986  1
  H+  H268  1  0.34516882  -0.01489161  0.65111080  1
  H+  H269  1  0.85503453  0.38737585  0.49721364  1
  H+  H270  1  0.07853859  0.68388655  0.06413251  1
  H+  H271  1  0.26901310  0.64187768  0.32911614  1
  H+  H272  1  0.28256647  0.15016337  0.19612510  1
  H+  H273  1  0.22080431  0.61484047  0.49901799  1
  H+  H274  1  0.22905357  0.84835885  0.83259262  1
  H+  H275  1  0.64367589  0.11849744  0.16777245  1
  H+  H276  1  0.35892082  0.77835492  0.99213550  1
  H+  H277  1  0.02685048  0.62721649  0.83155875  1
  H+  H278  1  0.86959887  0.98752666  0.17089907  1
  H+  H279  1  0.11447769  0.64227065  0.50021797  1
  H+  H280  1  0.62812155  0.27459311  0.16947145  1
  H+  H281  1  0.87407803  0.65114741  0.49420610  1
  H+  H282  1  0.57037724  0.37007666  0.32670318  1
  H+  H283  1  0.14087513  0.12241452  0.18083244  1
  H+  H284  1  0.37150657  0.87121105  0.98413337  1
  H+  H285  1  0.53703369  0.63352044  0.15985419  1
  H+  H286  1  0.12814491  0.87892988  0.18562968  1
  H+  H287  1  0.36599659  0.90514078  0.30644551  1
  H+  H288  1  0.14213478  0.58467913  0.27434650  1
  H+  H289  1  0.91407223  0.57687351  0.89698234  1
  H+  H290  1  0.89619298  0.12492610  0.84224451  1
  H+  H291  1  0.38122613  0.89032763  0.14943888  1
  H+  H292  1  0.82905130  0.44020298  0.41061661  1
  H+  H293  1  0.10719405  0.95321163  0.07661750  1
  H+  H294  1  0.59601423  0.43127500  0.05851972  1
  H+  H295  1  0.08631393  0.16561327  0.76329834  1
  H+  H296  1  0.89263886  0.12199283  0.50100839  1
  H+  H297  1  0.16470575  0.58421644  0.56107968  1
  H+  H298  1  0.42210658  0.57783025  0.86623559  1
  H+  H299  1  0.40852999  0.83590662  0.59644538  1
  H+  H300  1  0.16720051  0.32986466  0.89704310  1
  H+  H301  1  0.06926766  0.39718877  0.09509275  1
  H+  H302  1  0.16440810  0.08799703  0.24152280  1
  H+  H303  1  0.83359419  0.65047833  0.75222000  1
  H+  H304  1  0.95585497  0.83160915  0.95505200  1
  H+  H305  1  0.42630485  0.58131984  0.23226057  1
  H+  H306  1  0.67234320  0.81692197  0.60434253  1
  H+  H307  1  0.36764544  0.27014466  0.34458363  1
  H+  H308  1  0.91702202  0.08909000  0.93792647  1
  H+  H309  1  0.37365930  0.73805351  0.17086993  1
  H+  H310  1  0.57712203  0.91432457  0.72327929  1
  H+  H311  1  0.56525880  0.90329437  0.48147746  1
  H+  H312  1  0.17349244  0.82141487  0.91380715  1
  H+  H313  1  0.84606593  0.68461289  0.43681130  1
  H+  H314  1  0.67347037  0.83580337  0.26691604  1
  H+  H315  1  0.67430347  0.57782368  0.23511691  1
  H+  H316  1  0.92102849  0.58891536  0.56755898  1
  H+  H317  1  0.32664317  0.40251718  0.73066311  1
  H+  H318  1  0.52694909  0.38803486  0.15414956  1
  H+  H319  1  0.77617890  0.05889258  0.79102285  1
  H+  H320  1  0.91195584  0.30317105  0.26654841  1
  H+  H321  1  0.40639445  0.30959820  0.56942211  1
  H+  H322  1  0.49034846  0.60091464  1.00123427  1
  H+  H323  1  0.36041870  0.52060298  0.49847170  1
  H+  H324  1  0.67862589  0.10092463  0.92020348  1
  H+  H325  1  0.95314092  0.10593777  0.27534515  1
  H+  H326  1  0.83433549  0.41266757  0.76459642  1
  H+  H327  1  0.66227861  0.08282548  0.56307847  1
  H+  H328  1  0.21481420  0.61375914  0.15320271  1
  H+  H329  1  0.57767223  0.17716808  0.10208453  1
  H+  H330  1  0.13197746  0.11305476  0.32628867  1
  H+  H331  1  0.57779730  0.66380632  0.43286099  1
  H+  H332  1  0.82793140  0.16200426  0.43563946  1
  H+  H333  1  0.33014629  0.11915409  0.10058696  1
  H+  H334  1  0.09264949  0.66321036  0.74064411  1
  H+  H335  1  0.16378220  0.33706437  0.56580641  1
  H+  H336  1  0.35438376  0.10953887  0.07680734  1
  H+  H337  1  0.43977258  0.87478464  0.49743170  1
  H+  H338  1  0.47639010  0.86858100  0.31687747  1
  H+  H339  1  0.07424944  0.41501897  0.40075978  1
  H+  H340  1  0.08260610  0.42386824  0.72992123  1
  H+  H341  1  0.82627055  0.93398342  0.75803059  1
  H+  H342  1  0.64406911  0.81573959  0.92342290  1
  H+  H343  1  0.65849364  0.34315742  0.61700012  1
  H+  H344  1  0.77102685  0.13198547  0.34414299  1
  H+  H345  1  0.22415459  0.61404301  0.65157204  1
  H+  H346  1  0.57235888  0.92354623  0.38699767  1
  H+  H347  1  0.33397292  0.92634583  0.05602757  1
  H+  H348  1  0.12605711  0.87469349  0.82729822  1
  H+  H349  1  0.73642643  0.76053487  0.54538326  1
  H+  H350  1  0.67499273  0.32447575  0.26681463  1
  H+  H351  1  0.67480952  0.08398224  0.25896683  1
  H+  H352  1  0.33074355  0.41539977  0.10508684  1
  H+  H353  1  0.84392712  0.92617812  0.43091304  1
  H+  H354  1  0.58373909  0.16676730  0.43583437  1
  H+  H355  1  0.92212493  0.84471200  0.60037695  1
  H+  H356  1  0.30647633  0.68351863  0.74589731  1
  H+  H357  1  0.57038183  0.40599438  0.43468341  1
  H+  H358  1  0.32075866  0.43533533  0.40523841  1
  H+  H359  1  0.89741791  0.78366025  0.50801456  1
  H+  H360  1  0.38764537  0.06000038  0.60154180  1
  H+  H361  1  0.32433893  0.67732828  0.42306433  1
  H+  H362  1  0.59375748  0.66063587  0.06640820  1
  H+  H363  1  0.10535568  0.38742132  0.49380393  1
  H+  H364  1  0.43863772  0.33796107  0.87812772  1
  H+  H365  1  0.85186388  0.93179412  0.11043418  1
  H+  H366  1  0.57549590  0.90714857  0.09668714  1
  H+  H367  1  0.49049262  0.37945273  0.34272544  1
  H+  H368  1  0.88031385  0.81071682  0.86858301  1
  H+  H369  1  0.08819816  0.91557489  0.73065375  1
  H+  H370  1  0.61498520  0.88593656  0.15607390  1
  H+  H371  1  0.42454126  0.84257145  0.22577723  1
  H+  H372  1  0.63269769  0.27393487  0.51410204  1
  H+  H373  1  0.83654254  0.66517243  0.10370131  1
  H+  H374  1  0.61641483  0.72699470  0.33591003  1
  H+  H375  1  0.42464425  0.65068166  0.54774120  1
  H+  H376  1  0.31460239  0.67748927  0.08195129  1
  H+  H377  1  0.82815176  0.16369657  0.72781107  1
  H+  H378  1  0.91048036  0.33426986  0.56441024  1
  H+  H379  1  0.88816795  0.35354172  0.83270402  1
  H+  H380  1  0.63861817  0.03481430  0.86294743  1
  H+  H381  1  0.62601690  0.63432528  0.16060968  1
  H+  H382  1  0.36475314  0.73075288  0.65871691  1
  H+  H383  1  0.64712229  0.77489262  0.17062625  1
  O2-  O384  1  0.08320793  0.17299911  0.15208997  1
  O2-  O385  1  0.08679147  0.17793094  0.47752876  1
  O2-  O386  1  0.08983390  0.15922367  0.80876322  1
  O2-  O387  1  0.07200764  0.39696286  0.14065511  1
  O2-  O388  1  0.07407250  0.41595823  0.47830489  1
  O2-  O389  1  0.08793509  0.42321334  0.80909242  1
  O2-  O390  1  0.07671490  0.68562102  0.14530222  1
  O2-  O391  1  0.08758728  0.67821382  0.49012986  1
  O2-  O392  1  0.08926824  0.65724875  0.82095346  1
  O2-  O393  1  0.08720259  0.93023203  0.15445819  1
  O2-  O394  1  0.10052431  0.90981659  0.51223147  1
  O2-  O395  1  0.09412080  0.90471713  0.81415738  1
  O2-  O396  1  0.34548732  0.17989894  0.20588036  1
  O2-  O397  1  0.32192762  0.14637877  0.47354884  1
  O2-  O398  1  0.34977209  0.17292424  0.80633580  1
  O2-  O399  1  0.33395881  0.41493798  0.14967781  1
  O2-  O400  1  0.33087277  0.45573810  0.48588910  1
  O2-  O401  1  0.33519307  0.40143582  0.80814393  1
  O2-  O402  1  0.33633545  0.67164776  0.16677309  1
  O2-  O403  1  0.32189688  0.67388434  0.46805834  1
  O2-  O404  1  0.29332424  0.69691106  0.78723826  1
  O2-  O405  1  0.34869661  0.91925329  0.13407043  1
  O2-  O406  1  0.29747672  0.91199338  0.46957485  1
  O2-  O407  1  0.31356631  0.90103043  0.80035513  1
  O2-  O408  1  0.58451696  0.18151010  0.14761965  1
  O2-  O409  1  0.58204460  0.17254543  0.48139873  1
  O2-  O410  1  0.58391389  0.15885465  0.81938534  1
  O2-  O411  1  0.59509024  0.42016618  0.14704069  1
  O2-  O412  1  0.57144620  0.40590583  0.47957420  1
  O2-  O413  1  0.59426822  0.42259970  0.78687268  1
  O2-  O414  1  0.59668046  0.66412978  0.14327835  1
  O2-  O415  1  0.57490863  0.66256758  0.47791502  1
  O2-  O416  1  0.58678719  0.65007813  0.80067786  1
  O2-  O417  1  0.58160054  0.91319819  0.14234127  1
  O2-  O418  1  0.54875449  0.94086403  0.46064366  1
  O2-  O419  1  0.56424776  0.94646130  0.80131063  1
  O2-  O420  1  0.85501569  0.27474702  0.14888789  1
  O2-  O421  1  0.83088114  0.16036937  0.48258869  1
  O2-  O422  1  0.80695397  0.11879945  0.80400641  1
  O2-  O423  1  0.82305473  0.41257080  0.15018768  1
  O2-  O424  1  0.82660431  0.42122730  0.48631463  1
  O2-  O425  1  0.83102546  0.40549753  0.80993631  1
  O2-  O426  1  0.83636831  0.66692707  0.14911030  1
  O2-  O427  1  0.84958320  0.68744258  0.48125974  1
  O2-  O428  1  0.83052080  0.64096066  0.79781820  1
  O2-  O429  1  0.84281480  0.92755083  0.15498060  1
  O2-  O430  1  0.84844178  0.92833075  0.47650619  1
  O2-  O431  1  0.81916477  0.94040688  0.80338601  1
  O2-  O432  1  0.17016975  0.09137961  0.19552016  1
  O2-  O433  1  0.15962640  0.09464694  0.50418732  1
  O2-  O434  1  0.15428950  0.06516888  0.84230330  1
  O2-  O435  1  0.16683569  0.33323454  0.19366743  1
  O2-  O436  1  0.16480158  0.33618227  0.52004892  1
  O2-  O437  1  0.17179494  0.33075220  0.85225332  1
  O2-  O438  1  0.15243763  0.58353265  0.14449614  1
  O2-  O439  1  0.16082054  0.58273477  0.51555288  1
  O2-  O440  1  0.14682110  0.56863421  0.87453940  1
  O2-  O441  1  0.15418680  0.84458098  0.20354257  1
  O2-  O442  1  0.14158798  0.81215716  0.56138196  1
  O2-  O443  1  0.16940151  0.81659866  0.85396297  1
  O2-  O444  1  0.42328803  0.07883193  0.19700314  1
  O2-  O445  1  0.41460640  0.07537707  0.52413047  1
  O2-  O446  1  0.41593834  0.07060536  0.84479318  1
  O2-  O447  1  0.43579886  0.34091323  0.15566874  1
  O2-  O448  1  0.40660678  0.30615963  0.52292002  1
  O2-  O449  1  0.43300166  0.33325559  0.83373965  1
  O2-  O450  1  0.43024876  0.58090223  0.18626300  1
  O2-  O451  1  0.41884786  0.61423248  0.51328998  1
  O2-  O452  1  0.45173199  0.54800040  0.85205792  1
  O2-  O453  1  0.42408326  0.83601314  0.17993194  1
  O2-  O454  1  0.38933140  0.83280825  0.52089302  1
  O2-  O455  1  0.40775087  0.83647615  0.84711415  1
  O2-  O456  1  0.67291747  0.08770368  0.18158644  1
  O2-  O457  1  0.66220104  0.08582708  0.51764685  1
  O2-  O458  1  0.67654911  0.09574065  0.87312581  1
  O2-  O459  1  0.65941433  0.33753423  0.18554565  1
  O2-  O460  1  0.66155952  0.33354732  0.53156227  1
  O2-  O461  1  0.66516881  0.32965758  0.84533596  1
  O2-  O462  1  0.67456030  0.57706169  0.18973084  1
  O2-  O463  1  0.63258298  0.56530975  0.53682404  1
  O2-  O464  1  0.67134272  0.58086613  0.83859288  1
  O2-  O465  1  0.67132554  0.83432966  0.18636542  1
  O2-  O466  1  0.70473910  0.78981436  0.53550011  1
  O2-  O467  1  0.65125620  0.82091150  0.85081748  1
  O2-  O468  1  0.92295359  0.09560946  0.19770986  1
  O2-  O469  1  0.92898158  0.09595303  0.51508037  1
  O2-  O470  1  0.93040979  0.09892661  0.85787363  1
  O2-  O471  1  0.91894468  0.26616773  0.18572050  1
  O2-  O472  1  0.90637616  0.33127214  0.51907631  1
  O2-  O473  1  0.92041352  0.32614198  0.84881431  1
  O2-  O474  1  0.91288092  0.57946644  0.19307270  1
  O2-  O475  1  0.92043668  0.58933348  0.52218607  1
  O2-  O476  1  0.91950557  0.57192692  0.85223277  1
  O2-  O477  1  0.92034294  0.83680700  0.19003848  1
  O2-  O478  1  0.92712444  0.84382942  0.52615905  1
  O2-  O479  1  0.91956552  0.81100892  0.83783406  1
  O2-  O480  1  0.16735236  0.08731061  0.31500117  1
  O2-  O481  1  0.14169983  0.09076584  0.62499235  1
  O2-  O482  1  0.16908087  0.08448961  0.95714825  1
  O2-  O483  1  0.15121835  0.32331016  0.32053271  1
  O2-  O484  1  0.16045125  0.33647728  0.64326214  1
  O2-  O485  1  0.17038175  0.33634733  0.98331077  1
  O2-  O486  1  0.15708507  0.58875272  0.31723794  1
  O2-  O487  1  0.16237225  0.58459095  0.63916813  1
  O2-  O488  1  0.13112081  0.57019044  0.98661146  1
  O2-  O489  1  0.15826088  0.83711822  0.33103992  1
  O2-  O490  1  0.23346027  0.81020967  0.64709317  1
  O2-  O491  1  0.17166104  0.82722811  0.96443258  1
  O2-  O492  1  0.38401101  0.02243253  0.31412584  1
  O2-  O493  1  0.36924479  0.04775923  0.64475237  1
  O2-  O494  1  0.41539078  0.07986511  0.96451287  1
  O2-  O495  1  0.39401838  0.32888696  0.32883637  1
  O2-  O496  1  0.40843445  0.32320984  0.63996719  1
  O2-  O497  1  0.42516621  0.35826829  0.97103684  1
  O2-  O498  1  0.41477428  0.58477927  0.30730002  1
  O2-  O499  1  0.41293333  0.57078956  0.64507173  1
  O2-  O500  1  0.42840545  0.56522388  0.98667668  1
  O2-  O501  1  0.41649828  0.84292911  0.29987326  1
  O2-  O502  1  0.41498621  0.83406434  0.64164318  1
  O2-  O503  1  0.39489327  0.83336952  0.97128563  1
  O2-  O504  1  0.67358877  0.07908570  0.30453114  1
  O2-  O505  1  0.66514396  0.08250752  0.64145963  1
  O2-  O506  1  0.67649971  0.10712236  0.98892138  1
  O2-  O507  1  0.68947695  0.31393290  0.30811469  1
  O2-  O508  1  0.66453695  0.34669393  0.66197989  1
  O2-  O509  1  0.65711863  0.32590624  0.97237346  1
  O2-  O510  1  0.65917051  0.56914065  0.31477826  1
  O2-  O511  1  0.66485389  0.58599060  0.65208319  1
  O2-  O512  1  0.68049102  0.59228879  0.96847032  1
  O2-  O513  1  0.67223851  0.83395526  0.31230416  1
  O2-  O514  1  0.66580813  0.82406529  0.64876224  1
  O2-  O515  1  0.63874757  0.81248487  0.96957016  1
  O2-  O516  1  0.95915293  0.10617503  0.32062127  1
  O2-  O517  1  0.91701837  0.09091625  0.64034885  1
  O2-  O518  1  0.91658317  0.08535374  0.98328788  1
  O2-  O519  1  0.90795044  0.32056979  0.30827208  1
  O2-  O520  1  0.91648406  0.33951991  0.64386036  1
  O2-  O521  1  0.90930186  0.31801194  0.96491787  1
  O2-  O522  1  0.92368656  0.60202567  0.31523362  1
  O2-  O523  1  0.92613388  0.59144765  0.64743714  1
  O2-  O524  1  0.91378735  0.58916291  0.97642649  1
  O2-  O525  1  0.93378815  0.85559229  0.31342320  1
  O2-  O526  1  0.92111142  0.84454806  0.64662303  1
  O2-  O527  1  0.94085222  0.83122065  0.99760886  1
  O2-  O528  1  0.07282253  0.13885756  0.02302113  1
  O2-  O529  1  0.05181590  0.14543142  0.33099143  1
  O2-  O530  1  0.07846975  0.17517586  0.68810779  1
  O2-  O531  1  0.06933577  0.40214447  0.01632376  1
  O2-  O532  1  0.07651618  0.41423449  0.35522012  1
  O2-  O533  1  0.08218893  0.42183131  0.68444642  1
  O2-  O534  1  0.07927000  0.67942664  0.01889476  1
  O2-  O535  1  0.08417336  0.67219254  0.36586835  1
  O2-  O536  1  0.09532141  0.67246629  0.69583926  1
  O2-  O537  1  0.10493017  0.95511227  0.03139809  1
  O2-  O538  1  0.09274220  0.94067330  0.36492171  1
  O2-  O539  1  0.09650119  0.93209428  0.68738395  1
  O2-  O540  1  0.34048370  0.18640745  -0.02204007  1
  O2-  O541  1  0.33050891  0.14432422  0.34743121  1
  O2-  O542  1  0.26507058  0.08322721  0.70169056  1
  O2-  O543  1  0.33499510  0.41122501  0.01592359  1
  O2-  O544  1  0.32043236  0.42418138  0.36086859  1
  O2-  O545  1  0.32434086  0.40277025  0.68518368  1
  O2-  O546  1  0.30046407  0.67494162  0.03847042  1
  O2-  O547  1  0.33109939  0.67590347  0.33959814  1
  O2-  O548  1  0.32992408  0.66940741  0.67364375  1
  O2-  O549  1  0.32463498  0.92438273  0.01118124  1
  O2-  O550  1  0.32870475  0.93103998  0.29862345  1
  O2-  O551  1  0.30608967  0.88066263  0.68055627  1
  O2-  O552  1  0.57554224  0.17423132  0.02568739  1
  O2-  O553  1  0.58792424  0.15106062  0.36025018  1
  O2-  O554  1  0.60748800  0.18772784  0.69588033  1
  O2-  O555  1  0.58675640  0.42991629  0.01429605  1
  O2-  O556  1  0.55584732  0.40721324  0.34982044  1
  O2-  O557  1  0.59330342  0.42984569  0.72004708  1
  O2-  O558  1  0.58814887  0.65742178  0.02069985  1
  O2-  O559  1  0.58104983  0.66603308  0.34986535  1
  O2-  O560  1  0.58093461  0.66143875  0.68830124  1
  O2-  O561  1  0.55469686  0.89426348  0.02360163  1
  O2-  O562  1  0.57660511  0.91252773  0.34299724  1
  O2-  O563  1  0.58055527  0.90943670  0.67854709  1
  O2-  O564  1  0.84159209  0.18526795  0.04199978  1
  O2-  O565  1  0.82680790  0.16399443  0.36591200  1
  O2-  O566  1  0.83179442  0.17139764  0.68302241  1
  O2-  O567  1  0.86891409  0.43633926  0.02906834  1
  O2-  O568  1  0.82801835  0.45574284  0.36704971  1
  O2-  O569  1  0.83534215  0.42252670  0.68722909  1
  O2-  O570  1  0.83817045  0.66959665  0.02398471  1
  O2-  O571  1  0.84592493  0.68455353  0.34813636  1
  O2-  O572  1  0.83670866  0.67283008  0.67964609  1
  O2-  O573  1  0.85999697  0.91847286  0.02910083  1
  O2-  O574  1  0.84447598  0.93062127  0.35323142  1
  O2-  O575  1  0.83339367  0.92371879  0.68515769  1
