# generated using pymatgen
data_H2O
_symmetry_space_group_name_H-M   'P 1'
_cell_length_a   17.99479950
_cell_length_b   17.99354073
_cell_length_c   22.00531947
_cell_angle_alpha   90.01643436
_cell_angle_beta   89.99063351
_cell_angle_gamma   119.98394712
_symmetry_Int_Tables_number   1
_chemical_formula_structural   H2O
_chemical_formula_sum   'H384 O192'
_cell_volume   6171.52032452
_cell_formula_units_Z   192
loop_
 _symmetry_equiv_pos_site_id
 _symmetry_equiv_pos_as_xyz
  1  'x, y, z'
loop_
 _atom_type_symbol
 _atom_type_oxidation_number
  H+  1.0
  O2-  -2.0
loop_
 _atom_site_type_symbol
 _atom_site_label
 _atom_site_symmetry_multiplicity
 _atom_site_fract_x
 _atom_site_fract_y
 _atom_site_fract_z
 _atom_site_occupancy
  H+  H0  1  0.52232431  0.91074916  0.16735469  1
  H+  H1  1  0.63758281  0.77219839  0.65378631  1
  H+  H2  1  0.88631314  0.13937192  0.15263734  1
  H+  H3  1  0.10250427  0.21178133  0.33595275  1
  H+  H4  1  1.02152199  0.62538903  0.50180419  1
  H+  H5  1  0.60876184  0.21199747  0.48715756  1
  H+  H6  1  0.26442230  0.12662579  0.16034288  1
  H+  H7  1  0.62027719  0.63875666  0.33752738  1
  H+  H8  1  0.61590114  0.49461428  0.50542925  1
  H+  H9  1  0.78305247  0.70906110  0.50055516  1
  H+  H10  1  0.37430590  0.51506779  0.50812986  1
  H+  H11  1  0.73029076  0.86963541  0.32949492  1
  H+  H12  1  0.73906920  0.09139220  0.46765903  1
  H+  H13  1  0.13966985  0.61088811  1.00234951  1
  H+  H14  1  0.59101163  0.41240801  0.73489098  1
  H+  H15  1  0.53283660  0.38015635  0.33550874  1
  H+  H16  1  0.59630123  0.71834064  1.01314162  1
  H+  H17  1  0.25693645  0.15667163  0.34785618  1
  H+  H18  1  -0.00614754  0.85006165  0.83001981  1
  H+  H19  1  0.34953704  0.67864292  0.39363377  1
  H+  H20  1  0.10352233  0.98997421  0.88696040  1
  H+  H21  1  0.28384829  0.89878633  0.00052358  1
  H+  H22  1  0.11478637  0.85552578  0.65300235  1
  H+  H23  1  0.39915042  0.84004120  0.56198219  1
  H+  H24  1  0.46665671  0.11066228  0.49841142  1
  H+  H25  1  0.62771265  0.59311231  0.83559839  1
  H+  H26  1  0.71329944  0.10728532  0.66543068  1
  H+  H27  1  0.37738775  0.60602884  0.99911313  1
  H+  H28  1  0.28781049  0.64575871  0.33840288  1
  H+  H29  1  0.38718531  0.78283083  0.17094048  1
  H+  H30  1  0.87806289  0.27346069  0.70143077  1
  H+  H31  1  0.35105926  0.21990543  0.15832853  1
  H+  H32  1  0.00419978  0.62719764  0.81845516  1
  H+  H33  1  0.39871813  0.62960867  0.31696184  1
  H+  H34  1  0.59386467  0.25355430  0.99019976  1
  H+  H35  1  0.29443889  0.29052420  0.37802164  1
  H+  H36  1  0.11504035  -0.03105278  1.01298827  1
  H+  H37  1  0.16894452  0.39954040  0.86965605  1
  H+  H38  1  0.39935632  0.78930773  0.32328988  1
  H+  H39  1  0.27252793  0.13709160  0.49990674  1
  H+  H40  1  0.37814683  0.02170130  0.50164282  1
  H+  H41  1  0.27610141  0.86932381  0.80525838  1
  H+  H42  1  0.11681808  0.63795107  0.50258524  1
  H+  H43  1  0.25218340  0.16062985  0.84041363  1
  H+  H44  1  0.37459844  0.80428963  0.64963011  1
  H+  H45  1  0.86563285  0.93827771  0.15754472  1
  H+  H46  1  0.36740051  0.67226340  0.64961936  1
  H+  H47  1  0.01208525  0.15882548  0.84190384  1
  H+  H48  1  0.14035391  0.18924860  0.82318545  1
  H+  H49  1  0.49131544  0.34910324  0.66716357  1
  H+  H50  1  0.76914892  0.64264049  0.64196695  1
  H+  H51  1  0.91870584  0.71855977  0.16634119  1
  H+  H52  1  1.11356241  0.47674461  0.67885894  1
  H+  H53  1  0.96768588  0.35969372  0.69285286  1
  H+  H54  1  0.46212573  0.85552013  0.50559564  1
  H+  H55  1  0.94700333  1.06203528  0.84472232  1
  H+  H56  1  0.69610398  0.84432223  0.81885006  1
  H+  H57  1  0.37670730  0.08504536  0.65945129  1
  H+  H58  1  0.85597294  0.11454708  0.83731358  1
  H+  H59  1  0.16788387  0.95794456  0.67907705  1
  H+  H60  1  0.91281400  0.13318285  0.21914151  1
  H+  H61  1  0.58308064  0.11402895  0.49582337  1
  H+  H62  1  0.34375408  0.38901870  0.36275027  1
  H+  H63  1  0.89233650  0.98511102  0.00730574  1
  H+  H64  1  0.57360943  0.13197933  -0.02402227  1
  H+  H65  1  0.38726026  0.62641819  0.84074189  1
  H+  H66  1  0.12703436  0.76550110  0.50060570  1
  H+  H67  1  0.07326509  0.40108352  0.10324738  1
  H+  H68  1  0.45604168  0.34840505  0.15878611  1
  H+  H69  1  0.06284680  0.42118181  0.77049310  1
  H+  H70  1  0.10699735  0.75066448  0.64741479  1
  H+  H71  1  0.86584659  0.62553666  0.35172830  1
  H+  H72  1  0.78555804  0.22934398  0.10684396  1
  H+  H73  1  0.98223391  0.60745427  0.33978306  1
  H+  H74  1  0.37994961  0.49332251  0.82685460  1
  H+  H75  1  0.64450556  0.77649783  0.17464213  1
  H+  H76  1  0.87200527  0.26493336  0.31372381  1
  H+  H77  1  0.22597029  0.35407263  0.55378914  1
  H+  H78  1  0.36279057  0.19704211  0.67107376  1
  H+  H79  1  0.71215709  0.35499840  0.85331454  1
  H+  H80  1  0.37537407  0.23260003  0.81787003  1
  H+  H81  1  0.89424212  0.56666494  0.76859700  1
  H+  H82  1  0.60557792  0.13170904  0.68265841  1
  H+  H83  1  0.91550907  0.12512336  0.50022643  1
  H+  H84  1  0.13844745  1.02120047  0.32606228  1
  H+  H85  1  0.38304366  0.86997403  0.17173605  1
  H+  H86  1  0.92809128  0.96683401  0.24260896  1
  H+  H87  1  0.07121978  0.59861134  0.80363018  1
  H+  H88  1  0.11421132  0.63796214  0.15135882  1
  H+  H89  1  0.50950776  0.62551316  0.01102174  1
  H+  H90  1  0.10368384  0.37306403  0.16317548  1
  H+  H91  1  0.13985307  0.10879264  0.16772382  1
  H+  H92  1  0.89593787  0.90826589  0.67329301  1
  H+  H93  1  0.03494224  0.90159081  0.49039578  1
  H+  H94  1  0.91606652  0.86580058  0.83001913  1
  H+  H95  1  0.42298594  0.32305282  0.57317092  1
  H+  H96  1  -0.00453650  0.44648036  0.78182474  1
  H+  H97  1  0.84157883  0.46768697  0.82901547  1
  H+  H98  1  0.13228661  0.51838917  0.15628670  1
  H+  H99  1  0.14248171  0.86421653  -0.01037510  1
  H+  H100  1  0.86496129  0.45754318  0.49131942  1
  H+  H101  1  0.12008411  0.21799495  0.14535938  1
  H+  H102  1  0.36372723  0.89532662  0.33545571  1
  H+  H103  1  0.71624397  0.34109613  0.31765307  1
  H+  H104  1  0.82622422  0.93820116  0.82910177  1
  H+  H105  1  0.60424435  0.16211719  0.17879488  1
  H+  H106  1  0.88557734  0.59262555  0.50935531  1
  H+  H107  1  0.53546941  0.64503900  0.33330342  1
  H+  H108  1  0.39044863  0.28155378  0.32049290  1
  H+  H109  1  0.35560345  0.37341049  0.51674650  1
  H+  H110  1  -0.13288014  0.00999309  0.31474880  1
  H+  H111  1  0.78540216  0.36352360  0.09173242  1
  H+  H112  1  0.73378679  0.14830551  0.14999967  1
  H+  H113  1  0.57941216  0.39820231  0.43507423  1
  H+  H114  1  0.90763378  0.25745849  0.18441443  1
  H+  H115  1  0.46541662  0.36016478  -0.00908225  1
  H+  H116  1  0.14283057  0.84653267  0.82879976  1
  H+  H117  1  0.13743774  1.01816826  0.17476060  1
  H+  H118  1  0.52335585  0.38269519  0.82592029  1
  H+  H119  1  0.97761869  0.37066842  0.99907678  1
  H+  H120  1  0.36662025  0.64547409  0.15721516  1
  H+  H121  1  0.71208408  0.13502399  0.96406879  1
  H+  H122  1  0.13079248  0.27092922  0.82327444  1
  H+  H123  1  0.60499638  0.69784164  0.81221421  1
  H+  H124  1  0.86714910  0.51312406  0.66543084  1
  H+  H125  1  0.14087351  0.27846719  0.65073500  1
  H+  H126  1  0.75851494  0.09519751  0.84096641  1
  H+  H127  1  0.42250645  0.12950013  1.00289664  1
  H+  H128  1  0.84680151  0.67338063  0.21399652  1
  H+  H129  1  0.87263879  0.35672524  0.31510463  1
  H+  H130  1  0.80611813  0.09293758  0.00585629  1
  H+  H131  1  1.00516174  0.62658433  0.67194680  1
  H+  H132  1  0.31587089  0.18688940  0.40953068  1
  H+  H133  1  0.60775321  0.96494876  0.67841211  1
  H+  H134  1  0.11331456  0.63118317  0.35782369  1
  H+  H135  1  0.36970933  0.22296174  0.00684833  1
  H+  H136  1  0.76610403  0.88498215  0.49979095  1
  H+  H137  1  0.63681656  0.11956052  0.85519901  1
  H+  H138  1  0.11801879  0.21796660  0.49115218  1
  H+  H139  1  0.39852284  0.54201398  0.31783485  1
  H+  H140  1  0.51895180  0.36727782  0.49500922  1
  H+  H141  1  0.59732332  0.61329245  0.15853581  1
  H+  H142  1  0.81302280  0.13531839  0.73934536  1
  H+  H143  1  0.89374316  0.00639534  0.66710182  1
  H+  H144  1  0.60011934  0.87488115  0.49618335  1
  H+  H145  1  0.47785544  0.67106557  0.87597334  1
  H+  H146  1  0.84670262  0.18583156  0.48031491  1
  H+  H147  1  0.89499562  0.88328557  0.50707406  1
  H+  H148  1  0.98719284  0.10207391  0.50791838  1
  H+  H149  1  0.61721636  0.37575207  0.34041409  1
  H+  H150  1  0.16030206  0.62314068  0.86171788  1
  H+  H151  1  0.39571324  0.32720079  0.67863632  1
  H+  H152  1  0.62329909  0.35607169  0.84632596  1
  H+  H153  1  0.76215553  0.89414485  0.15061176  1
  H+  H154  1  0.38275535  0.86179455  0.98974739  1
  H+  H155  1  0.64146120  0.34682561  0.50535635  1
  H+  H156  1  0.37755825  0.55266521  0.65714350  1
  H+  H157  1  0.11712458  0.15047688  0.67416489  1
  H+  H158  1  0.36842106  0.14101400  0.82913968  1
  H+  H159  1  0.14279564  0.02375501  0.50989584  1
  H+  H160  1  0.78158898  0.36530365  0.49140498  1
  H+  H161  1  0.76629840  0.14744144  0.34421157  1
  H+  H162  1  0.70268153  0.58374205  0.50948343  1
  H+  H163  1  0.85335336  0.38608160  0.69587495  1
  H+  H164  1  0.57073047  0.97252439  0.00890873  1
  H+  H165  1  0.85699100  0.63512310  -0.00818106  1
  H+  H166  1  0.35639794  0.71184914  0.81923443  1
  H+  H167  1  0.12516321  0.60838161  0.66769554  1
  H+  H168  1  0.09340416  0.68121767  0.09771668  1
  H+  H169  1  0.38465665  0.26700125  0.51278266  1
  H+  H170  1  0.47078795  0.12547326  0.17595256  1
  H+  H171  1  0.61989486  0.90717750  0.34014854  1
  H+  H172  1  0.13541223  0.50925804  0.35919028  1
  H+  H173  1  0.35356555  0.38452946  0.15247591  1
  H+  H174  1  0.26800978  0.88582253  0.49053865  1
  H+  H175  1  0.85978982  0.36144195  0.85543573  1
  H+  H176  1  0.23701116  0.63154190  0.51480330  1
  H+  H177  1  0.47338217  0.11476159  0.84109896  1
  H+  H178  1  0.18922479  0.57490072  0.41136039  1
  H+  H179  1  0.35875658  0.63807650  0.48848608  1
  H+  H180  1  0.84948768  0.87630079  0.23713667  1
  H+  H181  1  0.27168322  0.89465063  0.15759438  1
  H+  H182  1  0.60937183  0.35427016  -0.00583723  1
  H+  H183  1  0.76767409  0.63480810  0.83269222  1
  H+  H184  1  0.63167760  0.77045141  0.50817335  1
  H+  H185  1  0.86226857  0.73137069  0.64548209  1
  H+  H186  1  0.86050184  0.35837645  0.12360580  1
  H+  H187  1  0.61898229  1.04422565  0.18529784  1
  H+  H188  1  0.11305039  0.38749636  0.67579603  1
  H+  H189  1  0.68116371  0.83647260  0.23430065  1
  H+  H190  1  0.89044021  0.58124218  0.15724680  1
  H+  H191  1  0.60544967  0.21851626  0.83242014  1
  H+  H192  1  0.90593474  0.80083820  0.51135859  1
  H+  H193  1  0.85485633  0.72054682  -0.02164996  1
  H+  H194  1  0.35911538  0.72217350  0.00324617  1
  H+  H195  1  0.63162051  0.26281961  0.66290524  1
  H+  H196  1  0.98148938  0.35687517  0.17320666  1
  H+  H197  1  0.51572677  0.61450688  0.81708117  1
  H+  H198  1  0.13932801  0.39790997  0.53649130  1
  H+  H199  1  0.72210737  0.60667684  0.98071569  1
  H+  H200  1  0.93392682  0.26199879  0.45813446  1
  H+  H201  1  0.86593034  0.88796460  1.00736545  1
  H+  H202  1  0.57112531  0.40561697  0.06257730  1
  H+  H203  1  0.14346126  0.76077493  0.84064433  1
  H+  H204  1  0.07671368  0.00700290  0.87329250  1
  H+  H205  1  0.57398034  0.91104033  0.43735270  1
  H+  H206  1  0.85857135  0.46472327  0.33917846  1
  H+  H207  1  0.59284030  0.44265900  0.16102869  1
  H+  H208  1  0.36873507  0.43086918  0.66445765  1
  H+  H209  1  0.13126986  0.85887560  0.50030908  1
  H+  H210  1  0.51992550  0.63738549  0.66019295  1
  H+  H211  1  0.46465954  0.60305528  0.49969846  1
  H+  H212  1  0.37844147  0.98309479  0.00458194  1
  H+  H213  1  0.61692606  0.47202909  0.67475803  1
  H+  H214  1  0.58060784  0.34781648  0.15465245  1
  H+  H215  1  0.35670327  0.88688916  0.48911444  1
  H+  H216  1  0.37464047  0.84297686  0.82168668  1
  H+  H217  1  0.27503147  0.66085660  0.66193652  1
  H+  H218  1  0.63270624  0.60589561  0.99458076  1
  H+  H219  1  0.12420900  0.13206344  0.49350494  1
  H+  H220  1  0.62285062  0.04003227  0.34269610  1
  H+  H221  1  0.97409143  0.86134089  0.99549153  1
  H+  H222  1  0.11872434  0.47314498  0.01661880  1
  H+  H223  1  0.60674400  0.47098318  1.00459774  1
  H+  H224  1  1.02307194  0.39469169  0.48257493  1
  H+  H225  1  0.61519084  0.46899605  0.82909268  1
  H+  H226  1  0.95165428  0.36385741  0.85308408  1
  H+  H227  1  0.58997875  0.86493225  0.82545669  1
  H+  H228  1  0.88179700  0.35279929  1.01614556  1
  H+  H229  1  0.98682698  0.12929543  0.66005550  1
  H+  H230  1  0.85596542  0.13611069  0.67669453  1
  H+  H231  1  0.59627324  0.61950433  0.49295206  1
  H+  H232  1  0.86015604  0.72223554  0.83246573  1
  H+  H233  1  0.92881616  0.38016201  0.46394544  1
  H+  H234  1  0.37134639  0.95390706  0.65226366  1
  H+  H235  1  0.82335289  0.67989796  0.55327255  1
  H+  H236  1  0.14101229  0.77412155  0.32867792  1
  H+  H237  1  0.63398425  0.25012389  0.32544008  1
  H+  H238  1  0.99860243  0.88098816  0.65857024  1
  H+  H239  1  0.76185116  0.37829259  0.67962342  1
  H+  H240  1  0.15709845  0.53891504  0.52451097  1
  H+  H241  1  0.24492239  0.10623178  0.99918505  1
  H+  H242  1  0.85559305  0.97655427  0.49873602  1
  H+  H243  1  0.24945644  0.39208314  0.84872839  1
  H+  H244  1  0.51664884  0.12957533  0.67801301  1
  H+  H245  1  0.64172943  0.78358498  0.32690245  1
  H+  H246  1  0.91334321  0.57046742  0.06203179  1
  H+  H247  1  0.10679761  0.11020662  0.99500425  1
  H+  H248  1  0.16319529  0.08105160  0.26509801  1
  H+  H249  1  0.78922663  0.99246053  0.79948395  1
  H+  H250  1  0.63699991  0.86021822  0.65845946  1
  H+  H251  1  0.46498489  0.85155107  0.98234171  1
  H+  H252  1  0.45599079  0.26800676  0.28681426  1
  H+  H253  1  0.27458169  0.61792027  0.82647333  1
  H+  H254  1  0.39215485  0.37000173  0.83582880  1
  H+  H255  1  0.02649578  0.88448239  0.16736996  1
  H+  H256  1  0.62305625  0.86206836  0.99954179  1
  H+  H257  1  0.39622459  0.14452686  0.33972508  1
  H+  H258  1  0.11282552  0.87849767  0.16567878  1
  H+  H259  1  0.69696531  0.58038389  0.16658254  1
  H+  H260  1  0.58449670  -0.00995736  0.52050617  1
  H+  H261  1  0.82749045  0.39882903  0.39424160  1
  H+  H262  1  0.62956324  0.60440300  0.65719991  1
  H+  H263  1  0.12608422  0.02886532  0.66239531  1
  H+  H264  1  1.03443794  0.64696463  1.01218446  1
  H+  H265  1  0.38273085  0.51660671  0.16270419  1
  H+  H266  1  0.86442824  0.87956279  0.35306307  1
  H+  H267  1  0.92488336  0.82692570  0.28590998  1
  H+  H268  1  0.12100449  0.52449429  0.84525698  1
  H+  H269  1  0.52859912  0.90151475  0.33845344  1
  H+  H270  1  0.37219340  0.11536360  0.16852013  1
  H+  H271  1  0.22172909  0.60840853  0.15359471  1
  H+  H272  1  0.12904700  0.39061965  0.01625530  1
  H+  H273  1  0.20290367  0.33039680  0.33448128  1
  H+  H274  1  0.22053927  0.10956203  0.66479345  1
  H+  H275  1  0.12664855  0.88961274  0.33971681  1
  H+  H276  1  0.16466331  0.08374132  0.57035072  1
  H+  H277  1  0.36049508  0.13542576  0.49190330  1
  H+  H278  1  0.66476725  1.00112798  0.02434955  1
  H+  H279  1  0.22077105  0.36041493  0.16926747  1
  H+  H280  1  0.01761034  0.37868970  0.31968917  1
  H+  H281  1  0.38061274  1.02419344  0.16565719  1
  H+  H282  1  0.13787901  0.77242759  0.17217128  1
  H+  H283  1  0.75349794  0.07482408  0.49442564  1
  H+  H284  1  0.86846436  0.61271686  0.81817787  1
  H+  H285  1  0.14195048  0.81469374  0.58344002  1
  H+  H286  1  0.72641063  0.60216367  0.32493900  1
  H+  H287  1  0.49843448  0.61278521  0.15910624  1
  H+  H288  1  0.11156895  0.12020466  0.33479091  1
  H+  H289  1  0.17611110  0.83785517  0.92951845  1
  H+  H290  1  0.66141528  0.83078568  0.56828037  1
  H+  H291  1  0.20284130  0.64073071  0.26394506  1
  H+  H292  1  0.85150416  0.17660424  0.38441096  1
  H+  H293  1  0.57959400  0.16012098  0.77262458  1
  H+  H294  1  0.80811824  0.39900787  0.77747971  1
  H+  H295  1  0.63769442  0.06820609  0.61450097  1
  H+  H296  1  0.03615745  0.88591828  0.34641284  1
  H+  H297  1  0.42496621  0.84807537  0.26428406  1
  H+  H298  1  0.39781424  0.81702327  0.88675291  1
  H+  H299  1  0.94232329  0.29470587  0.57724697  1
  H+  H300  1  0.16697172  0.57206924  0.94684872  1
  H+  H301  1  0.82649008  0.65190477  0.40720677  1
  H+  H302  1  0.89353820  0.76345965  0.34240697  1
  H+  H303  1  0.27083261  0.40241489  0.66829375  1
  H+  H304  1  0.63864489  0.51323833  0.32699924  1
  H+  H305  1  0.62098984  0.27831059  0.22861303  1
  H+  H306  1  0.35930827  0.72865427  0.49073907  1
  H+  H307  1  0.07978761  0.66637451  0.40911684  1
  H+  H308  1  0.42545952  0.09954738  0.90326352  1
  H+  H309  1  0.87260576  0.60480345  0.64720304  1
  H+  H310  1  0.97985242  0.59373113  0.14152240  1
  H+  H311  1  0.90968130  0.32617836  0.23753076  1
  H+  H312  1  0.81209041  0.62477001  0.09939102  1
  H+  H313  1  0.07907216  0.90452038  0.06857901  1
  H+  H314  1  0.03452502  0.38044521  0.38776317  1
  H+  H315  1  0.91014235  0.56255195  0.56980603  1
  H+  H316  1  0.90372563  0.34445531  0.92507090  1
  H+  H317  1  0.33907391  0.43665552  0.76769051  1
  H+  H318  1  0.65572646  0.56964367  0.89934267  1
  H+  H319  1  0.21862779  0.35945420  0.95229326  1
  H+  H320  1  0.09507760  0.19551662  0.72948323  1
  H+  H321  1  0.12045836  0.94813518  0.81110317  1
  H+  H322  1  0.66935053  0.31638311  0.56436315  1
  H+  H323  1  0.84135670  0.93578470  0.72630529  1
  H+  H324  1  0.92394834  0.58455628  0.28083939  1
  H+  H325  1  0.41409270  0.33265122  0.89479589  1
  H+  H326  1  0.32832714  0.14744896  0.73298940  1
  H+  H327  1  0.65469819  0.10629661  0.24449026  1
  H+  H328  1  0.33894103  0.67609681  0.09851365  1
  H+  H329  1  0.34197632  0.16437705  0.06725593  1
  H+  H330  1  0.40924886  0.57968045  0.93965441  1
  H+  H331  1  0.31974932  0.41352919  0.09439946  1
  H+  H332  1  0.41085097  0.59595839  0.59237113  1
  H+  H333  1  0.41551846  0.07430021  0.59735308  1
  H+  H334  1  0.65373460  0.56439699  0.23263457  1
  H+  H335  1  0.76639415  0.61531639  0.09725082  1
  H+  H336  1  0.58006556  0.90395961  0.73499873  1
  H+  H337  1  0.83052758  0.91568037  0.40561804  1
  H+  H338  1  0.46152133  0.12747725  0.30502914  1
  H+  H339  1  0.15656378  0.60605295  0.26306657  1
  H+  H340  1  0.92677681  0.09249210  0.59982219  1
  H+  H341  1  0.16934133  0.83163613  0.23258202  1
  H+  H342  1  0.16528102  0.58722718  0.61115383  1
  H+  H343  1  0.63638616  0.35378779  0.65895899  1
  H+  H344  1  0.09373826  0.89723271  0.74782297  1
  H+  H345  1  0.12558858  0.73355177  0.00077273  1
  H+  H346  1  0.08630861  0.15258540  0.08928121  1
  H+  H347  1  0.65531657  0.80915050  0.88423747  1
  H+  H348  1  0.09898039  0.92635303  0.43291663  1
  H+  H349  1  0.94001847  0.86510745  0.60022282  1
  H+  H350  1  0.16447874  0.43875955  0.47198051  1
  H+  H351  1  0.70767679  0.85780851  0.99753015  1
  H+  H352  1  0.98864527  0.32741484  0.58244015  1
  H+  H353  1  0.32905901  0.91949739  0.39418090  1
  H+  H354  1  0.41830968  0.58150089  0.22278636  1
  H+  H355  1  0.15983136  0.31789191  0.22688986  1
  H+  H356  1  0.83016291  0.93108090  0.08364708  1
  H+  H357  1  0.51027694  0.87681431  0.82208380  1
  H+  H358  1  0.64162921  0.32099994  0.92961439  1
  H+  H359  1  0.40695958  0.32459545  0.22104660  1
  H+  H360  1  0.89517449  0.53513511  0.94147565  1
  H+  H361  1  0.59818890  0.13913450  0.39497549  1
  H+  H362  1  0.33035225  0.88453828  0.74413339  1
  H+  H363  1  0.58814355  0.95115839  0.11278079  1
  H+  H364  1  0.98126158  0.09693501  0.93886826  1
  H+  H365  1  0.64918465  0.56320324  0.59984659  1
  H+  H366  1  0.08599301  0.15474161  0.40026419  1
  H+  H367  1  0.11760388  0.33776592  0.32695247  1
  H+  H368  1  0.37211075  0.35119784  0.98920806  1
  H+  H369  1  0.33288174  0.92499547  0.09781075  1
  H+  H370  1  0.27169190  0.63231991  0.01158397  1
  H+  H371  1  0.30089927  0.37881412  0.46304177  1
  H+  H372  1  0.92431574  0.84255310  0.93295510  1
  H+  H373  1  0.18547693  0.05980102  0.94221250  1
  H+  H374  1  0.66715555  0.07795340  0.52394349  1
  H+  H375  1  0.76663142  0.12508566  0.05935838  1
  H+  H376  1  0.57101349  0.65024762  0.09556201  1
  H+  H377  1  0.57310105  0.64909437  0.72095282  1
  H+  H378  1  0.33937439  0.46654067  0.00043867  1
  H+  H379  1  0.23150026  0.86388025  0.32604985  1
  H+  H380  1  0.57910469  0.65976599  0.43372000  1
  H+  H381  1  0.85878730  0.09138615  0.30625379  1
  H+  H382  1  0.21552762  0.18222115  0.89997525  1
  H+  H383  1  0.06995045  0.66960917  0.72843403  1
  O2-  O384  1  0.10016585  0.15809404  0.13295486  1
  O2-  O385  1  0.09299790  0.16032255  0.47368196  1
  O2-  O386  1  0.10349552  0.21205125  0.80584610  1
  O2-  O387  1  0.07042779  0.40120842  0.14896767  1
  O2-  O388  1  0.13008197  0.43574115  0.50717962  1
  O2-  O389  1  0.03708026  0.43791938  0.80507477  1
  O2-  O390  1  0.08516059  0.67292109  0.14262518  1
  O2-  O391  1  0.08073516  0.66136192  0.48557964  1
  O2-  O392  1  0.06748419  0.65028421  0.81026089  1
  O2-  O393  1  0.08371015  0.91074093  0.14956905  1
  O2-  O394  1  0.09636254  0.92599756  0.47858260  1
  O2-  O395  1  0.08856736  0.88975256  0.79505991  1
  O2-  O396  1  0.32589751  0.15828263  0.14501016  1
  O2-  O397  1  0.33092589  0.16907225  0.48117645  1
  O2-  O398  1  0.33980395  0.17072715  0.80750602  1
  O2-  O399  1  0.32716070  0.41985220  0.13958335  1
  O2-  O400  1  0.31553021  0.39549050  0.50615853  1
  O2-  O401  1  0.34459365  0.43394967  0.81263713  1
  O2-  O402  1  0.33847368  0.67762771  0.14418090  1
  O2-  O403  1  0.32990791  0.66917693  0.47232351  1
  O2-  O404  1  0.33298628  0.64880878  0.80948133  1
  O2-  O405  1  0.33272379  0.92903627  0.14321849  1
  O2-  O406  1  0.32785188  0.91935626  0.47525220  1
  O2-  O407  1  0.33437772  0.89149693  0.78876500  1
  O2-  O408  1  0.56804078  0.18749239  0.16278849  1
  O2-  O409  1  0.57244280  0.15326709  0.46972282  1
  O2-  O410  1  0.58037448  0.15851093  0.81821459  1
  O2-  O411  1  0.56061235  0.38740768  0.13925011  1
  O2-  O412  1  0.57974058  0.39688925  0.48046039  1
  O2-  O413  1  0.58470143  0.40825416  0.81275685  1
  O2-  O414  1  0.56839533  0.64570196  0.14312310  1
  O2-  O415  1  0.57135454  0.65478601  0.47862008  1
  O2-  O416  1  0.57363054  0.63638075  0.79922301  1
  O2-  O417  1  0.58339215  0.95195457  0.15734866  1
  O2-  O418  1  0.56575890  0.90173245  0.48211837  1
  O2-  O419  1  0.57258336  0.90610733  0.81244665  1
  O2-  O420  1  0.78025992  0.17383730  0.11877838  1
  O2-  O421  1  0.89781641  0.19721647  0.45726892  1
  O2-  O422  1  0.80076708  0.08962652  0.81503941  1
  O2-  O423  1  0.82370066  0.34001250  0.08735887  1
  O2-  O424  1  0.83980097  0.39960392  0.47266518  1
  O2-  O425  1  0.81197546  0.40380919  0.82329211  1
  O2-  O426  1  0.90518316  0.68692491  0.20460716  1
  O2-  O427  1  0.81965432  0.68392090  0.50728442  1
  O2-  O428  1  0.82592707  0.66475271  0.81401110  1
  O2-  O429  1  0.82058067  0.93956308  0.13100979  1
  O2-  O430  1  0.82748938  0.91596742  0.48448207  1
  O2-  O431  1  0.79496323  0.93953876  0.79322489  1
  O2-  O432  1  0.16759812  0.07864204  0.18960425  1
  O2-  O433  1  0.16873015  0.08467999  0.52496444  1
  O2-  O434  1  0.19970485  0.15756685  0.85942961  1
  O2-  O435  1  0.15986171  0.32458435  0.18233491  1
  O2-  O436  1  0.16458225  0.32907240  0.56834998  1
  O2-  O437  1  0.19312389  0.36168227  0.87105628  1
  O2-  O438  1  0.15872095  0.58084189  0.15073486  1
  O2-  O439  1  0.17754726  0.60073545  0.53223431  1
  O2-  O440  1  0.16942635  0.57424743  0.86642306  1
  O2-  O441  1  0.16789861  0.83386044  0.18701057  1
  O2-  O442  1  0.15887160  0.82613770  0.51607254  1
  O2-  O443  1  0.17489674  0.82232740  0.85056629  1
  O2-  O444  1  0.40607973  0.08548932  0.18341984  1
  O2-  O445  1  0.40827076  0.08264212  0.51704301  1
  O2-  O446  1  0.41611066  0.09705922  0.85911538  1
  O2-  O447  1  0.39689595  0.32434919  0.17623397  1
  O2-  O448  1  0.41736976  0.32768255  0.52853212  1
  O2-  O449  1  0.42012127  0.33737025  0.84958727  1
  O2-  O450  1  0.42010520  0.57903290  0.17712142  1
  O2-  O451  1  0.40420598  0.57801325  0.51485074  1
  O2-  O452  1  0.43245755  0.61345250  0.86453352  1
  O2-  O453  1  0.41536874  0.84262089  0.18741473  1
  O2-  O454  1  0.40023967  0.82859362  0.51733992  1
  O2-  O455  1  0.40130562  0.81085418  0.84247309  1
  O2-  O456  1  0.64862287  0.10676975  0.19987946  1
  O2-  O457  1  0.60746120  0.04960237  0.53789892  1
  O2-  O458  1  0.67038198  0.10147718  0.88215195  1
  O2-  O459  1  0.61238701  0.27869751  0.18354705  1
  O2-  O460  1  0.67167841  0.31610112  0.51891153  1
  O2-  O461  1  0.65061381  0.32456055  0.86656965  1
  O2-  O462  1  0.64161684  0.55824701  0.18732938  1
  O2-  O463  1  0.64186166  0.55564165  0.52103413  1
  O2-  O464  1  0.66116633  0.56817866  0.85415102  1
  O2-  O465  1  0.69260364  0.82961190  0.19042974  1
  O2-  O466  1  0.66177733  0.83127156  0.52105067  1
  O2-  O467  1  0.64460330  0.79956319  0.84038421  1
  O2-  O468  1  0.92236027  0.17414559  0.18618301  1
  O2-  O469  1  0.92843839  0.08456963  0.52250657  1
  O2-  O470  1  0.95621263  0.11579239  0.86225929  1
  O2-  O471  1  0.91758042  0.31858845  0.18794971  1
  O2-  O472  1  0.97401894  0.36538490  0.45399728  1
  O2-  O473  1  0.89489025  0.33615362  0.87418915  1
  O2-  O474  1  0.91689023  0.55411138  0.13387602  1
  O2-  O475  1  0.91478104  0.56279808  0.52414740  1
  O2-  O476  1  0.89834729  0.57535652  0.81262384  1
  O2-  O477  1  0.90654860  0.91317031  0.21970126  1
  O2-  O478  1  0.93467552  0.86234344  0.52196582  1
  O2-  O479  1  0.93746393  0.83253672  0.85086167  1
  O2-  O480  1  0.16054065  0.08185230  0.31117144  1
  O2-  O481  1  0.16049683  0.08933991  0.64911103  1
  O2-  O482  1  0.18349214  0.07375136  0.98492642  1
  O2-  O483  1  0.14650463  0.30534644  0.31315455  1
  O2-  O484  1  0.17150185  0.34053351  0.63531385  1
  O2-  O485  1  0.21925262  0.36599332  0.99733187  1
  O2-  O486  1  0.17042037  0.57136560  0.36936804  1
  O2-  O487  1  0.15799977  0.57959789  0.65604712  1
  O2-  O488  1  0.16788406  0.57638925  0.99182886  1
  O2-  O489  1  0.16880402  0.83267782  0.31123165  1
  O2-  O490  1  0.13299487  0.81015912  0.62983189  1
  O2-  O491  1  0.17866177  0.84019562  0.97498007  1
  O2-  O492  1  0.44341199  0.16970058  0.31068756  1
  O2-  O493  1  0.41467246  0.06496446  0.64216667  1
  O2-  O494  1  0.45113165  0.09864568  0.98462163  1
  O2-  O495  1  0.43998481  0.31313897  0.29260263  1
  O2-  O496  1  0.42964041  0.31159466  0.65268248  1
  O2-  O497  1  0.40585760  0.32483823  0.97469773  1
  O2-  O498  1  0.42823425  0.59880032  0.29923657  1
  O2-  O499  1  0.41649633  0.60769210  0.63711318  1
  O2-  O500  1  0.40497567  0.57199117  0.98479067  1
  O2-  O501  1  0.42855628  0.84997246  0.30985777  1
  O2-  O502  1  0.40232779  0.86707274  0.63693777  1
  O2-  O503  1  0.40416119  0.82416141  0.97229420  1
  O2-  O504  1  0.65557605  0.10325967  0.33139550  1
  O2-  O505  1  0.65035413  0.07734815  0.65869187  1
  O2-  O506  1  0.67807049  0.15209812  0.93748807  1
  O2-  O507  1  0.65419905  0.30784712  0.30763995  1
  O2-  O508  1  0.66568379  0.32217933  0.64496405  1
  O2-  O509  1  0.63323499  0.31588296  0.97845097  1
  O2-  O510  1  0.66678400  0.57274616  0.30908423  1
  O2-  O511  1  0.66225749  0.57477630  0.64410490  1
  O2-  O512  1  0.65667516  0.57135082  0.97793161  1
  O2-  O513  1  0.67184292  0.84331206  0.31100602  1
  O2-  O514  1  0.66706102  0.83173536  0.63839619  1
  O2-  O515  1  0.64678935  0.82532208  0.98604566  1
  O2-  O516  1  0.88104398  0.05749528  0.28602037  1
  O2-  O517  1  0.92595562  0.09168125  0.64559925  1
  O2-  O518  1  0.98649180  0.06593519  0.97473005  1
  O2-  O519  1  0.90282959  0.32647371  0.29743881  1
  O2-  O520  1  0.90830876  0.33662434  0.70759239  1
  O2-  O521  1  0.91821577  0.34846640  0.98400324  1
  O2-  O522  1  0.92017427  0.57737116  0.32495213  1
  O2-  O523  1  0.90332948  0.57144801  0.64631531  1
  O2-  O524  1  0.89221944  0.51223392  0.98235148  1
  O2-  O525  1  0.92492885  0.82552706  0.33035446  1
  O2-  O526  1  0.93814572  0.85882595  0.64562919  1
  O2-  O527  1  0.91534297  0.83771778  0.97760257  1
  O2-  O528  1  0.06588415  0.13079710  0.00492596  1
  O2-  O529  1  0.07986261  0.15096384  0.35406270  1
  O2-  O530  1  0.08924944  0.18511458  0.68435099  1
  O2-  O531  1  0.08832866  0.41040670  0.02709565  1
  O2-  O532  1  0.06580604  0.39438789  0.34827867  1
  O2-  O533  1  0.08600554  0.41693367  0.69604431  1
  O2-  O534  1  0.09768120  0.67488906  0.01905950  1
  O2-  O535  1  0.08120874  0.66234640  0.36364920  1
  O2-  O536  1  0.06726901  0.66114345  0.68377467  1
  O2-  O537  1  0.07961601  0.90691036  0.02338002  1
  O2-  O538  1  0.09834499  0.92230491  0.35576429  1
  O2-  O539  1  0.10679520  0.91490394  0.68056312  1
  O2-  O540  1  0.34899508  0.16348596  0.02222181  1
  O2-  O541  1  0.30625085  0.20594599  0.36847318  1
  O2-  O542  1  0.32184916  0.13947848  0.68740668  1
  O2-  O543  1  0.31085975  0.40446168  0.01455994  1
  O2-  O544  1  0.29027362  0.34465465  0.38080195  1
  O2-  O545  1  0.32797735  0.43996002  0.68787145  1
  O2-  O546  1  0.33452545  0.66420477  0.02232436  1
  O2-  O547  1  0.34977270  0.67756009  0.34799443  1
  O2-  O548  1  0.33477162  0.70301188  0.65165755  1
  O2-  O549  1  0.34265494  0.92306589  0.01877094  1
  O2-  O550  1  0.32654289  0.91833465  0.34899631  1
  O2-  O551  1  0.33935759  0.89021808  0.65912797  1
  O2-  O552  1  0.54182705  0.14968532  0.00447496  1
  O2-  O553  1  0.59999014  0.13886584  0.34905223  1
  O2-  O554  1  0.57561841  0.16412788  0.69519071  1
  O2-  O555  1  0.57180876  0.40869294  0.01707455  1
  O2-  O556  1  0.59069745  0.40985331  0.35501590  1
  O2-  O557  1  0.58961304  0.41112881  0.68930080  1
  O2-  O558  1  0.56981850  0.65747180  0.02752952  1
  O2-  O559  1  0.59308911  0.67177009  0.35229913  1
  O2-  O560  1  0.57881457  0.65628180  0.67604286  1
  O2-  O561  1  0.60485814  0.94992133  0.02716823  1
  O2-  O562  1  0.58738466  0.93333791  0.35748133  1
  O2-  O563  1  0.58708509  0.90478481  0.68991578  1
  O2-  O564  1  0.75450503  0.09381213  0.01793206  1
  O2-  O565  1  0.82947423  0.17117125  0.34209808  1
  O2-  O566  1  0.82104033  0.15712911  0.69697918  1
  O2-  O567  1  0.92310471  0.59216046  0.01779559  1
  O2-  O568  1  0.82619013  0.40233988  0.34881754  1
  O2-  O569  1  0.81857024  0.41580442  0.70055839  1
  O2-  O570  1  0.82351137  0.65781280  -0.02858109  1
  O2-  O571  1  0.83378559  0.65620637  0.36299713  1
  O2-  O572  1  0.83127226  0.67274247  0.62833518  1
  O2-  O573  1  0.84444035  0.92780027  0.02077815  1
  O2-  O574  1  0.83334701  0.91119728  0.36037865  1
  O2-  O575  1  0.86517826  0.94216306  0.68406962  1
