# generated using pymatgen
data_H2O
_symmetry_space_group_name_H-M   'P 1'
_cell_length_a   17.99015190
_cell_length_b   17.98100116
_cell_length_c   21.98966587
_cell_angle_alpha   90.00240521
_cell_angle_beta   89.98315880
_cell_angle_gamma   119.97729257
_symmetry_Int_Tables_number   1
_chemical_formula_structural   H2O
_chemical_formula_sum   'H384 O192'
_cell_volume   6161.65342930
_cell_formula_units_Z   192
loop_
 _symmetry_equiv_pos_site_id
 _symmetry_equiv_pos_as_xyz
  1  'x, y, z'
loop_
 _atom_type_symbol
 _atom_type_oxidation_number
  H+  1.0
  O2-  -2.0
loop_
 _atom_site_type_symbol
 _atom_site_label
 _atom_site_symmetry_multiplicity
 _atom_site_fract_x
 _atom_site_fract_y
 _atom_site_fract_z
 _atom_site_occupancy
  H+  H0  1  0.88943585  -0.06503086  0.47089116  1
  H+  H1  1  0.86655959  0.34341597  0.83030396  1
  H+  H2  1  0.63051679  0.11210729  0.98956738  1
  H+  H3  1  0.39252088  0.46956904  0.16071362  1
  H+  H4  1  0.89198923  0.77289159  0.17912706  1
  H+  H5  1  0.85697455  0.63603031  0.34715210  1
  H+  H6  1  0.26919888  0.36951289  -0.00420796  1
  H+  H7  1  0.60330743  0.48154586  0.02034462  1
  H+  H8  1  0.87241037  0.22391991  0.16802812  1
  H+  H9  1  0.10009010  0.87421185  0.34933349  1
  H+  H10  1  0.57781670  0.16169195  0.16813851  1
  H+  H11  1  0.47737927  0.62256088  0.84815457  1
  H+  H12  1  0.66527417  0.94273702  0.68696877  1
  H+  H13  1  0.56475503  1.04009481  0.67538169  1
  H+  H14  1  0.63342841  -0.01987894  0.16826364  1
  H+  H15  1  0.51825095  0.63060630  1.01220095  1
  H+  H16  1  0.59747139  0.13034505  0.81782392  1
  H+  H17  1  0.37457347  0.58490174  1.00198015  1
  H+  H18  1  0.62753459  0.03382569  0.52247155  1
  H+  H19  1  0.92221700  0.31990649  0.70622810  1
  H+  H20  1  0.36072465  0.88564347  0.34329600  1
  H+  H21  1  0.73143016  0.61695721  0.50296052  1
  H+  H22  1  0.53963721  0.86683588  0.83668414  1
  H+  H23  1  0.64626874  0.51468875  0.83995734  1
  H+  H24  1  0.72314150  0.36783885  -0.00387671  1
  H+  H25  1  0.36230485  0.71555687  0.66129519  1
  H+  H26  1  0.11311320  0.37648325  0.49239367  1
  H+  H27  1  0.82509812  0.86544068  0.32678641  1
  H+  H28  1  0.45709463  0.84619225  0.65547681  1
  H+  H29  1  0.59873725  0.72371556  0.32972463  1
  H+  H30  1  0.84339539  0.13771885  0.71650786  1
  H+  H31  1  0.15844743  0.89041777  0.64533259  1
  H+  H32  1  0.42250972  0.77959067  0.04133821  1
  H+  H33  1  0.08779719  0.12842936  0.99901855  1
  H+  H34  1  0.34563037  0.60761986  0.24687444  1
  H+  H35  1  0.61301822  0.23016570  0.00245094  1
  H+  H36  1  0.21851752  0.59123269  0.19023928  1
  H+  H37  1  0.53411876  0.89010864  0.49255446  1
  H+  H38  1  0.33858270  0.92123810  0.40213724  1
  H+  H39  1  0.38089611  0.54889648  0.17706875  1
  H+  H40  1  0.10450718  0.92874635  0.72580146  1
  H+  H41  1  0.85814346  0.38904528  0.00487068  1
  H+  H42  1  0.63680717  0.26490532  0.33731403  1
  H+  H43  1  0.18417751  0.09235550  0.97718045  1
  H+  H44  1  0.86877368  0.38604707  0.34486565  1
  H+  H45  1  0.11785960  0.33949358  0.83111444  1
  H+  H46  1  0.63193316  0.34656250  0.65212779  1
  H+  H47  1  0.38714605  0.62110632  0.84178577  1
  H+  H48  1  0.34261448  0.45502706  0.46864669  1
  H+  H49  1  1.01287207  0.12639893  0.15615684  1
  H+  H50  1  0.11336357  0.88382511  0.82574369  1
  H+  H51  1  0.88339094  0.27138364  0.33495319  1
  H+  H52  1  0.36015887  0.45902456  0.00113476  1
  H+  H53  1  0.31656321  0.91674957  0.50903824  1
  H+  H54  1  0.92551881  0.86933259  0.26626187  1
  H+  H55  1  0.25792398  0.57812934  0.80524345  1
  H+  H56  1  0.65953669  0.08200479  0.76079202  1
  H+  H57  1  0.66189891  0.82621564  0.92713081  1
  H+  H58  1  0.28072820  0.63661411  0.48250234  1
  H+  H59  1  0.22563610  0.36458616  0.32289981  1
  H+  H60  1  0.40545901  0.78732243  0.84887527  1
  H+  H61  1  0.75333746  0.11323218  0.18379705  1
  H+  H62  1  0.96978610  0.61308912  0.64769086  1
  H+  H63  1  0.63147887  0.85353039  0.18062038  1
  H+  H64  1  0.10595731  0.21494375  0.82367828  1
  H+  H65  1  0.30478017  0.14786438  0.02365177  1
  H+  H66  1  0.36254413  0.98479370  0.01126891  1
  H+  H67  1  0.90043622  0.89231451  0.84288879  1
  H+  H68  1  0.95975374  0.18586525  0.28359233  1
  H+  H69  1  0.51463322  0.13131245  0.33963810  1
  H+  H70  1  0.96448573  0.60560187  0.82980552  1
  H+  H71  1  0.39075599  0.32263495  0.90107197  1
  H+  H72  1  0.35809111  0.12368876  0.18419864  1
  H+  H73  1  0.94960671  0.25417157  0.95180955  1
  H+  H74  1  0.77759251  0.38192829  0.34756533  1
  H+  H75  1  0.74545536  0.64110201  0.65862276  1
  H+  H76  1  0.10658470  0.96773728  0.82191509  1
  H+  H77  1  -0.01684828  0.60511997  0.18001391  1
  H+  H78  1  0.34763505  0.39245971  0.82711734  1
  H+  H79  1  -0.02474927  0.86837642  0.83973035  1
  H+  H80  1  0.13516319  0.79703963  0.62295874  1
  H+  H81  1  0.45043787  0.13753147  0.17138638  1
  H+  H82  1  0.37238554  0.67061373  0.19225658  1
  H+  H83  1  0.36086154  0.48724301  0.82453810  1
  H+  H84  1  0.15229987  0.11803674  0.50728448  1
  H+  H85  1  0.33545714  0.21775665  0.81025236  1
  H+  H86  1  0.34052793  0.67273453  0.05044581  1
  H+  H87  1  0.66505824  0.80319685  0.48010142  1
  H+  H88  1  0.63105485  0.39787372  0.34528368  1
  H+  H89  1  0.44349746  0.63478926  0.33001089  1
  H+  H90  1  0.59790234  0.92519110  0.07163490  1
  H+  H91  1  0.10762571  0.88707377  0.01724439  1
  H+  H92  1  0.62396072  0.74606309  0.67040696  1
  H+  H93  1  0.06680940  0.87882771  0.45616821  1
  H+  H94  1  0.21260189  0.11637085  0.17261603  1
  H+  H95  1  0.14468525  0.06690713  0.88550024  1
  H+  H96  1  0.83728521  0.67125671  0.10508091  1
  H+  H97  1  0.97621502  0.36052629  0.17532390  1
  H+  H98  1  0.17029688  0.03948257  0.51779235  1
  H+  H99  1  0.52185650  0.57947413  0.70171189  1
  H+  H100  1  0.62333464  0.46673883  0.64776830  1
  H+  H101  1  0.22008370  0.86088711  0.33253723  1
  H+  H102  1  0.19858752  0.94260666  0.48498558  1
  H+  H103  1  0.59787274  0.21955212  0.82272824  1
  H+  H104  1  0.01996385  0.12162444  0.81571977  1
  H+  H105  1  0.63036534  0.65441824  0.48189254  1
  H+  H106  1  0.87324633  0.39511168  0.49650125  1
  H+  H107  1  0.65867136  0.57154785  0.94645734  1
  H+  H108  1  0.10560649  0.88847837  0.16356057  1
  H+  H109  1  0.87189309  0.25542708  0.82589360  1
  H+  H110  1  0.65139516  0.32307466  0.89599444  1
  H+  H111  1  0.89043457  0.50878525  0.17803296  1
  H+  H112  1  0.10985903  0.63070447  0.16695349  1
  H+  H113  1  0.88822396  0.04721615  0.50985700  1
  H+  H114  1  0.10390649  0.63569446  1.01367934  1
  H+  H115  1  0.77704440  0.89033360  0.00474627  1
  H+  H116  1  0.38847495  0.36025025  0.49237678  1
  H+  H117  1  0.86407365  0.37920977  0.16170904  1
  H+  H118  1  0.63216715  0.52639182  0.18243432  1
  H+  H119  1  0.96217168  0.10996211  0.97309111  1
  H+  H120  1  0.52378106  0.61558409  0.15704972  1
  H+  H121  1  0.76900712  0.14979405  0.50870051  1
  H+  H122  1  0.88541258  0.61967641  0.83630724  1
  H+  H123  1  0.86378520  0.88971438  -0.00180208  1
  H+  H124  1  0.76808777  0.13581321  0.35200752  1
  H+  H125  1  0.53633062  0.90466520  0.16516035  1
  H+  H126  1  0.58902855  0.38053709  0.16829668  1
  H+  H127  1  0.38943943  0.14511381  0.00997013  1
  H+  H128  1  0.22077864  0.34902598  0.49580337  1
  H+  H129  1  0.11839881  0.39245003  0.00217893  1
  H+  H130  1  0.62671232  0.76214581  0.18297588  1
  H+  H131  1  0.78408823  0.65128697  0.82878471  1
  H+  H132  1  0.49111479  0.11823343  0.64140690  1
  H+  H133  1  -0.03062004  0.85667456  -0.00590337  1
  H+  H134  1  0.61744848  0.60038264  0.69778959  1
  H+  H135  1  0.86288823  0.47987974  0.00539550  1
  H+  H136  1  0.76783972  0.86874000  0.17037342  1
  H+  H137  1  0.39667634  0.77527809  0.49208147  1
  H+  H138  1  0.63151203  0.90503025  0.48587955  1
  H+  H139  1  0.40597421  0.86817424  0.50356289  1
  H+  H140  1  0.11233032  0.21987113  0.50013613  1
  H+  H141  1  0.70774017  0.35014393  0.83636040  1
  H+  H142  1  0.89420786  0.13253769  0.33311434  1
  H+  H143  1  0.63006179  0.11043459  0.33345572  1
  H+  H144  1  0.66641473  0.11217416  0.17893069  1
  H+  H145  1  0.12737945  0.25183423  0.33841548  1
  H+  H146  1  0.64193798  0.53153091  0.33179353  1
  H+  H147  1  0.29238507  0.14743201  0.48971319  1
  H+  H148  1  0.88478051  0.10108170  0.17109398  1
  H+  H149  1  0.79705968  0.92438700  0.47010238  1
  H+  H150  1  0.39670391  0.77095491  0.32493694  1
  H+  H151  1  0.77827386  0.64134233  0.16338865  1
  H+  H152  1  0.63931514  1.01432308  0.81304728  1
  H+  H153  1  0.63412217  0.36653510  0.00064250  1
  H+  H154  1  0.29325833  0.28075768  0.88663690  1
  H+  H155  1  0.12780681  1.02155626  0.17515112  1
  H+  H156  1  0.61551621  0.35910756  0.50721853  1
  H+  H157  1  1.00085911  0.35181500  0.80751816  1
  H+  H158  1  0.88137123  0.60875065  0.50345687  1
  H+  H159  1  0.12699295  0.51086173  0.17476029  1
  H+  H160  1  0.23498434  0.37436167  0.65197038  1
  H+  H161  1  0.45237302  0.10709200  0.55714584  1
  H+  H162  1  0.47932120  0.11489090  0.98545152  1
  H+  H163  1  1.03375634  0.15597305  0.34085433  1
  H+  H164  1  0.11602857  0.49688141  0.86199882  1
  H+  H165  1  0.86464825  0.77300927  0.65236579  1
  H+  H166  1  0.65093294  0.86315710  0.85238409  1
  H+  H167  1  0.62867911  0.61131952  0.00177855  1
  H+  H168  1  0.59674980  0.25461968  0.15904953  1
  H+  H169  1  0.02816407  0.38566632  0.49316295  1
  H+  H170  1  0.96764716  0.89386445  0.33143032  1
  H+  H171  1  0.88398122  0.85755816  0.17537239  1
  H+  H172  1  0.75932429  0.15320394  1.01874291  1
  H+  H173  1  0.63015092  0.75031852  0.70423381  1
  H+  H174  1  0.28225218  0.88598764  0.65212033  1
  H+  H175  1  0.64587251  0.77006511  0.85608431  1
  H+  H176  1  0.11421542  0.46838644  0.34257251  1
  H+  H177  1  0.11030276  0.65750913  0.81112803  1
  H+  H178  1  0.35039019  0.48178112  0.32797931  1
  H+  H179  1  0.63088736  0.98337583  0.01092645  1
  H+  H180  1  0.37447460  0.64733052  0.49148586  1
  H+  H181  1  0.38101683  0.77890470  1.03356325  1
  H+  H182  1  0.77220376  0.63558269  0.01009173  1
  H+  H183  1  0.12584744  0.10276417  0.82487370  1
  H+  H184  1  0.43265367  0.80488807  0.59000548  1
  H+  H185  1  0.38403502  0.27340552  0.22706320  1
  H+  H186  1  0.21518699  0.36204652  0.83375191  1
  H+  H187  1  0.86888725  0.49073551  0.49646684  1
  H+  H188  1  0.10217853  0.00300281  0.98937089  1
  H+  H189  1  0.10771028  0.37804543  0.15523691  1
  H+  H190  1  0.11194629  0.63405247  0.33252109  1
  H+  H191  1  0.31755298  0.61226960  0.66386543  1
  H+  H192  1  0.21010431  0.61989483  0.64785873  1
  H+  H193  1  0.12156623  0.51453769  0.83026332  1
  H+  H194  1  0.61993266  0.47852026  0.49989800  1
  H+  H195  1  0.39733350  0.27677050  0.49821347  1
  H+  H196  1  0.97609427  0.35696698  0.33201177  1
  H+  H197  1  0.00882187  0.59668841  0.48237616  1
  H+  H198  1  0.22587149  0.60116985  0.32692393  1
  H+  H199  1  0.88184721  0.61162665  0.99254780  1
  H+  H200  1  0.39932397  0.81031332  0.16847628  1
  H+  H201  1  0.08083974  0.75484964  0.89350720  1
  H+  H202  1  0.38379379  0.15019351  0.48283825  1
  H+  H203  1  0.97614049  0.61105774  0.32440825  1
  H+  H204  1  0.27777441  0.89298548  0.01848382  1
  H+  H205  1  0.86114505  0.72405791  1.00269034  1
  H+  H206  1  0.22664463  0.96182272  0.74769926  1
  H+  H207  1  0.23715048  0.67438463  0.84824409  1
  H+  H208  1  0.52134507  0.40666792  0.80067049  1
  H+  H209  1  0.76989593  0.63932955  0.35012853  1
  H+  H210  1  0.50657746  0.38679278  0.18373497  1
  H+  H211  1  0.85847895  0.14907851  0.50654749  1
  H+  H212  1  0.89126102  0.87166811  0.65091625  1
  H+  H213  1  0.41569393  0.92996767  0.68520799  1
  H+  H214  1  0.02651881  0.38123043  -0.00307739  1
  H+  H215  1  0.15211892  0.51888641  0.49891063  1
  H+  H216  1  0.35269789  0.98922227  0.16538928  1
  H+  H217  1  0.25840790  0.34550441  0.15172582  1
  H+  H218  1  0.39545921  0.28936463  0.31675287  1
  H+  H219  1  0.07891199  0.15891548  0.44334643  1
  H+  H220  1  0.49610939  0.37824584  1.01138263  1
  H+  H221  1  0.86684803  0.74557724  0.82610024  1
  H+  H222  1  0.22164889  0.86413740  0.17701438  1
  H+  H223  1  0.40339257  0.99966764  0.49078119  1
  H+  H224  1  0.84225363  0.42245486  0.43258916  1
  H+  H225  1  0.40033005  0.52493396  0.66276029  1
  H+  H226  1  0.85466001  0.95650585  0.16306637  1
  H+  H227  1  0.10282424  0.64482897  0.64515998  1
  H+  H228  1  0.59468303  0.25263265  0.50662381  1
  H+  H229  1  0.88211968  0.52021893  0.65529626  1
  H+  H230  1  0.85387114  0.37702477  0.66898121  1
  H+  H231  1  0.40554243  0.12624691  0.63531931  1
  H+  H232  1  0.63130714  0.86161816  0.00064988  1
  H+  H233  1  0.78494660  0.83354510  0.60657838  1
  H+  H234  1  0.50426812  0.91124979  0.98853622  1
  H+  H235  1  0.12161176  0.25902396  0.16796214  1
  H+  H236  1  0.21198907  0.60454037  0.99996522  1
  H+  H237  1  0.12770961  0.15152370  0.33774947  1
  H+  H238  1  0.71084034  0.86512902  0.26808165  1
  H+  H239  1  0.35595432  0.88869713  0.83901987  1
  H+  H240  1  0.11747436  0.23405472  0.66534075  1
  H+  H241  1  0.36907012  0.14967490  0.33380898  1
  H+  H242  1  0.52539835  0.39160692  0.49544129  1
  H+  H243  1  0.78020630  0.11839885  0.80545082  1
  H+  H244  1  0.36718926  0.39218989  0.66700353  1
  H+  H245  1  0.73695861  0.37559069  0.17491636  1
  H+  H246  1  0.90629803  1.01369915  0.67995951  1
  H+  H247  1  0.13134356  0.27111371  0.99051404  1
  H+  H248  1  0.51921688  0.88942116  0.34671865  1
  H+  H249  1  0.13512431  0.59452559  0.48927674  1
  H+  H250  1  0.62829644  0.89737370  0.68931560  1
  H+  H251  1  0.62436783  0.76506934  0.00138378  1
  H+  H252  1  0.62012476  0.63806883  0.16168122  1
  H+  H253  1  0.47635199  0.36585895  0.64721123  1
  H+  H254  1  0.25631764  0.12468596  0.80901930  1
  H+  H255  1  0.39489898  0.89351250  0.17953221  1
  H+  H256  1  0.09609967  0.76999734  0.47183193  1
  H+  H257  1  1.01574141  0.63671141  1.01275976  1
  H+  H258  1  0.13669128  0.77710988  0.01735737  1
  H+  H259  1  0.61424469  0.63602241  0.85733436  1
  H+  H260  1  0.40320570  0.27494385  0.00502162  1
  H+  H261  1  0.39533143  0.91025352  0.81921115  1
  H+  H262  1  0.13344996  0.12051461  0.65984356  1
  H+  H263  1  0.69670803  0.68666657  0.63250486  1
  H+  H264  1  0.88671257  0.52065882  0.32923019  1
  H+  H265  1  0.14618644  0.37511097  0.64853298  1
  H+  H266  1  0.97522055  0.13165495  0.51938080  1
  H+  H267  1  0.13275773  0.36142713  0.33138433  1
  H+  H268  1  0.16942474  0.76243447  0.87872460  1
  H+  H269  1  0.10401000  0.74954275  0.49902178  1
  H+  H270  1  0.61137254  0.98544270  0.34533670  1
  H+  H271  1  0.84862737  0.46582587  0.82237913  1
  H+  H272  1  0.23163571  0.13505414  0.32586617  1
  H+  H273  1  0.13401574  0.77370899  0.17859521  1
  H+  H274  1  0.86728263  0.11519681  0.81240204  1
  H+  H275  1  0.88335964  0.27997721  0.51117563  1
  H+  H276  1  0.41364905  0.90578843  0.98316346  1
  H+  H277  1  0.43549629  0.56474379  0.51569202  1
  H+  H278  1  0.15380599  1.00857355  0.67791461  1
  H+  H279  1  0.10907008  0.48285081  0.65627676  1
  H+  H280  1  0.38075103  0.02287143  0.32790748  1
  H+  H281  1  0.43848060  0.62669664  0.67687136  1
  H+  H282  1  0.72258304  0.52986472  0.88246127  1
  H+  H283  1  0.55342924  0.67188523  0.49261546  1
  H+  H284  1  0.37429746  0.12124345  0.83532861  1
  H+  H285  1  0.63062863  0.61462204  0.32868532  1
  H+  H286  1  0.10309384  0.13043281  0.15631593  1
  H+  H287  1  0.85142803  0.23506032  1.01498834  1
  H+  H288  1  0.67225326  0.59553340  0.56075942  1
  H+  H289  1  0.91045774  0.05521273  0.88480648  1
  H+  H290  1  0.91337039  0.58193852  0.93340718  1
  H+  H291  1  0.58396298  0.92702921  0.41306208  1
  H+  H292  1  0.64729849  0.31534869  0.56646817  1
  H+  H293  1  0.56350137  0.15390180  0.40288369  1
  H+  H294  1  0.40707706  0.08364469  0.26862817  1
  H+  H295  1  0.16313429  0.09639461  0.27103256  1
  H+  H296  1  0.45542183  0.10844786  0.83441404  1
  H+  H297  1  0.06912134  0.38909131  0.75174330  1
  H+  H298  1  0.11021985  0.72337221  0.33610695  1
  H+  H299  1  0.16259115  0.83426590  0.27222921  1
  H+  H300  1  0.58064918  0.66402603  0.07148439  1
  H+  H301  1  0.06093168  0.62338168  0.42014310  1
  H+  H302  1  0.16214226  0.32932974  0.93002922  1
  H+  H303  1  0.87231975  0.76047194  0.54240612  1
  H+  H304  1  0.44992548  0.61570487  0.57534444  1
  H+  H305  1  0.59109668  0.42445748  0.71217085  1
  H+  H306  1  0.15865869  0.56770168  0.27210187  1
  H+  H307  1  0.36318356  0.39862896  0.31665103  1
  H+  H308  1  0.01494750  0.88600740  0.16488398  1
  H+  H309  1  0.30187620  0.99333301  0.79770395  1
  H+  H310  1  0.83690490  0.41481562  0.10230990  1
  H+  H311  1  0.17275586  0.33410836  0.56104154  1
  H+  H312  1  0.59950805  0.42747077  0.40219470  1
  H+  H313  1  0.06815758  0.16297669  0.06022581  1
  H+  H314  1  0.56456533  0.41783009  0.08089965  1
  H+  H315  1  0.76779508  0.37946417  0.66321391  1
  H+  H316  1  0.07824927  0.41202079  0.09751220  1
  H+  H317  1  0.29877117  0.91073692  0.72188380  1
  H+  H318  1  0.08310280  0.17250213  0.72285591  1
  H+  H319  1  0.41130244  0.57582847  0.93786059  1
  H+  H320  1  0.37344385  0.22702342  0.65588102  1
  H+  H321  1  0.31604895  0.25784178  0.14408305  1
  H+  H322  1  0.17665400  0.64016063  0.90666261  1
  H+  H323  1  0.91803152  0.33214079  0.23643147  1
  H+  H324  1  0.32305260  0.39788792  0.41178841  1
  H+  H325  1  0.33733686  0.15704609  0.70797391  1
  H+  H326  1  0.88691608  0.95935562  0.74028899  1
  H+  H327  1  0.90482655  0.57382041  0.56461469  1
  H+  H328  1  0.58946626  0.64520744  0.79081847  1
  H+  H329  1  0.08488161  0.40782887  0.40190341  1
  H+  H330  1  0.76831644  0.90324113  0.63219242  1
  H+  H331  1  0.38644015  0.35939359  1.00025094  1
  H+  H332  1  0.84003840  0.67395355  0.73250970  1
  H+  H333  1  0.67144412  0.08338278  0.27764348  1
  H+  H334  1  0.15725611  0.90314733  0.54889539  1
  H+  H335  1  0.18117341  0.09943275  0.60666664  1
  H+  H336  1  0.92182707  0.34403510  0.56712994  1
  H+  H337  1  0.45255412  0.84465881  0.90699097  1
  H+  H338  1  0.81958358  0.40895794  0.76224671  1
  H+  H339  1  0.07501174  0.65950456  0.10901217  1
  H+  H340  1  0.41377623  0.33918292  0.59062687  1
  H+  H341  1  0.08792418  0.72757564  0.79601251  1
  H+  H342  1  0.31107949  0.65221853  0.75932857  1
  H+  H343  1  0.33595852  0.42279047  0.72702828  1
  H+  H344  1  0.91723717  0.57060497  0.24540690  1
  H+  H345  1  0.42385436  0.84038428  0.27130219  1
  H+  H346  1  0.63787446  0.25923995  0.65277214  1
  H+  H347  1  0.69443097  0.41668892  0.21365912  1
  H+  H348  1  0.57299973  0.67455713  0.39152136  1
  H+  H349  1  0.86312855  0.63672018  0.67184710  1
  H+  H350  1  0.67268648  0.32387347  0.27831989  1
  H+  H351  1  0.12392650  0.52384284  0.98651629  1
  H+  H352  1  0.57835104  0.15850472  0.72933064  1
  H+  H353  1  0.91474967  0.07207183  0.22981231  1
  H+  H354  1  0.55820272  0.49680504  0.76479543  1
  H+  H355  1  0.16266364  0.58600194  0.58381058  1
  H+  H356  1  0.82695158  0.16977029  0.41140712  1
  H+  H357  1  0.34755075  0.65241833  0.39189898  1
  H+  H358  1  0.91854481  0.30938267  0.91722615  1
  H+  H359  1  0.59611142  0.88663724  0.77470073  1
  H+  H360  1  0.16658264  0.83281027  0.95796704  1
  H+  H361  1  0.31489185  0.36947526  0.09133609  1
  H+  H362  1  0.40991578  0.08793112  0.93018355  1
  H+  H363  1  0.34686505  0.18615627  0.39188369  1
  H+  H364  1  0.34315279  0.19711131  0.11094929  1
  H+  H365  1  0.83036386  0.17179073  0.10755605  1
  H+  H366  1  0.90003762  0.10963271  0.60812779  1
  H+  H367  1  0.64171596  0.09109543  0.58189870  1
  H+  H368  1  0.48323259  0.93615502  0.73406348  1
  H+  H369  1  0.83496680  0.66688669  0.43564340  1
  H+  H370  1  0.66827553  0.08498769  0.93388720  1
  H+  H371  1  0.02919833  0.38660052  0.65610778  1
  H+  H372  1  0.07788161  0.67692769  0.70429965  1
  H+  H373  1  0.88228015  0.24481741  0.66015056  1
  H+  H374  1  0.70836036  0.86159149  0.53827646  1
  H+  H375  1  0.87869834  0.01802828  0.97434106  1
  H+  H376  1  0.15629758  0.32139121  0.22630085  1
  H+  H377  1  0.33619832  0.92966018  0.10696159  1
  H+  H378  1  0.57674686  0.17158367  0.06056363  1
  H+  H379  1  0.28937142  0.58242676  0.08186668  1
  H+  H380  1  0.07127141  0.91735388  0.07214944  1
  H+  H381  1  0.91438661  0.83337331  0.93201328  1
  H+  H382  1  0.57553968  0.12370003  0.50726015  1
  H+  H383  1  0.66955706  0.59058206  0.23883296  1
  O2-  O384  1  0.07318369  0.16079136  0.14007743  1
  O2-  O385  1  0.08051879  0.15774402  0.48796524  1
  O2-  O386  1  0.08186320  0.15803127  0.80367391  1
  O2-  O387  1  0.07817607  0.41055289  0.14289925  1
  O2-  O388  1  0.08716596  0.41101994  0.47654326  1
  O2-  O389  1  0.05339602  0.35587781  0.78991023  1
  O2-  O390  1  0.07666531  0.65925580  0.15476369  1
  O2-  O391  1  0.05111134  0.59003915  0.45820209  1
  O2-  O392  1  0.06878414  0.66719359  0.78736754  1
  O2-  O393  1  0.07681078  0.91958182  0.14820910  1
  O2-  O394  1  0.03111767  0.84311696  0.42177387  1
  O2-  O395  1  0.07521084  0.90459457  0.81206007  1
  O2-  O396  1  0.32004057  0.20431734  0.14979563  1
  O2-  O397  1  0.35149733  0.17905254  0.47054535  1
  O2-  O398  1  0.31706652  0.16003893  0.79459445  1
  O2-  O399  1  0.31360158  0.35399517  0.13476749  1
  O2-  O400  1  0.32221525  0.39549641  0.45750659  1
  O2-  O401  1  0.32901016  0.42895674  0.80579758  1
  O2-  O402  1  0.32892742  0.61283662  0.20436058  1
  O2-  O403  1  0.34188701  0.66779572  0.46713082  1
  O2-  O404  1  0.30402561  0.63802780  0.80399356  1
  O2-  O405  1  0.33300336  0.92910285  0.15283657  1
  O2-  O406  1  0.36616953  0.93594036  0.48229441  1
  O2-  O407  1  0.25750553  0.94302377  0.77604042  1
  O2-  O408  1  0.55987000  0.19546258  0.14397451  1
  O2-  O409  1  0.54647402  0.15288062  0.48626141  1
  O2-  O410  1  0.56684054  0.16004433  0.80405755  1
  O2-  O411  1  0.55810087  0.41047323  0.15646121  1
  O2-  O412  1  0.58863612  0.41682385  0.48636211  1
  O2-  O413  1  0.57336942  0.45496621  0.78390096  1
  O2-  O414  1  0.58319068  0.66103725  0.14541978  1
  O2-  O415  1  0.60467438  0.68887803  0.46701332  1
  O2-  O416  1  0.59011853  0.66490890  0.83368477  1
  O2-  O417  1  0.59475820  0.92285521  0.14969038  1
  O2-  O418  1  0.59331440  0.93074137  0.47616799  1
  O2-  O419  1  0.59951031  0.90402175  0.81725141  1
  O2-  O420  1  0.84210517  0.16406418  0.15161313  1
  O2-  O421  1  0.82712485  0.17908512  0.49070901  1
  O2-  O422  1  0.84250640  0.15014116  0.79590717  1
  O2-  O423  1  0.83596703  0.41294574  0.14783160  1
  O2-  O424  1  0.84184341  0.42444623  0.47928061  1
  O2-  O425  1  0.81839430  0.40570130  0.80752541  1
  O2-  O426  1  0.83879312  0.67147846  0.14992025  1
  O2-  O427  1  0.83595119  0.66499609  0.48440427  1
  O2-  O428  1  0.84211324  0.68434931  0.81134708  1
  O2-  O429  1  0.82582271  0.89495944  0.15250833  1
  O2-  O430  1  0.85928035  0.96674332  0.46500152  1
  O2-  O431  1  0.87541103  0.96574414  0.81679830  1
  O2-  O432  1  0.15425344  0.08274468  0.18997674  1
  O2-  O433  1  0.19563471  0.10280412  0.52139208  1
  O2-  O434  1  0.15527413  0.07119711  0.84113187  1
  O2-  O435  1  0.15611175  0.32126594  0.18139803  1
  O2-  O436  1  0.16382809  0.32536270  0.51547595  1
  O2-  O437  1  0.15846800  0.32412977  0.85238228  1
  O2-  O438  1  0.15615585  0.56987672  0.19338219  1
  O2-  O439  1  0.17849955  0.58123234  0.50874944  1
  O2-  O440  1  0.18991107  0.67661609  0.86961048  1
  O2-  O441  1  0.16195996  0.83398977  0.19306124  1
  O2-  O442  1  0.15247303  0.93439115  0.51227854  1
  O2-  O443  1  0.13994468  0.79676818  0.88293827  1
  O2-  O444  1  0.39412783  0.09746356  0.19008987  1
  O2-  O445  1  0.45485653  0.10535340  0.50519454  1
  O2-  O446  1  0.39842213  0.08697608  0.85369372  1
  O2-  O447  1  0.41981395  0.33588305  0.23288015  1
  O2-  O448  1  0.42257884  0.33805613  0.51302478  1
  O2-  O449  1  0.34973253  0.30771152  0.86731023  1
  O2-  O450  1  0.42389326  0.53114910  0.17134550  1
  O2-  O451  1  0.44835428  0.62112586  0.53018001  1
  O2-  O452  1  0.41542988  0.59043685  0.85896101  1
  O2-  O453  1  0.42698467  0.86285367  0.19257030  1
  O2-  O454  1  0.43186141  0.83171985  0.51287961  1
  O2-  O455  1  0.45708088  0.80794763  0.87343731  1
  O2-  O456  1  0.69138059  0.08234944  0.20015795  1
  O2-  O457  1  0.64580727  0.09281056  0.53691226  1
  O2-  O458  1  0.66590739  0.07722355  0.80497998  1
  O2-  O459  1  0.68085501  0.36159158  0.19537944  1
  O2-  O460  1  0.63544864  0.31425793  0.52031410  1
  O2-  O461  1  0.64765422  0.31923730  0.85126524  1
  O2-  O462  1  0.66847593  0.58746252  0.19306227  1
  O2-  O463  1  0.66952745  0.58622629  0.51619657  1
  O2-  O464  1  0.68854634  0.55597812  0.87009327  1
  O2-  O465  1  0.65681440  0.82147180  0.19978674  1
  O2-  O466  1  0.69142953  0.86344490  0.49462975  1
  O2-  O467  1  0.67328631  0.82878311  0.87450769  1
  O2-  O468  1  0.91396399  0.06927882  0.18507810  1
  O2-  O469  1  0.91378685  0.10512609  0.53114287  1
  O2-  O470  1  0.91694457  0.05592675  0.83771165  1
  O2-  O471  1  0.91577398  0.33062461  0.19095674  1
  O2-  O472  1  0.91912644  0.34319829  0.52261884  1
  O2-  O473  1  0.89926853  0.31466601  0.84310892  1
  O2-  O474  1  0.92169474  0.56838283  0.19674115  1
  O2-  O475  1  0.90524060  0.57158147  0.51848331  1
  O2-  O476  1  0.90782784  0.58156089  0.85004561  1
  O2-  O477  1  0.92231612  0.83502173  0.19142741  1
  O2-  O478  1  0.89239556  0.75581876  0.50157822  1
  O2-  O479  1  0.91508812  0.84640173  0.85444390  1
  O2-  O480  1  0.16994184  0.11043713  0.31532109  1
  O2-  O481  1  0.16742543  0.09122852  0.65030044  1
  O2-  O482  1  0.12373398  0.05975052  0.96685269  1
  O2-  O483  1  0.16195514  0.32929228  0.31411585  1
  O2-  O484  1  0.17617725  0.34406687  0.63455071  1
  O2-  O485  1  0.16777721  0.33201129  0.97559851  1
  O2-  O486  1  0.16374301  0.57137167  0.31743155  1
  O2-  O487  1  0.15238586  0.58632302  0.62894981  1
  O2-  O488  1  0.15680863  0.58737261  0.97954295  1
  O2-  O489  1  0.15999014  0.82937458  0.31758587  1
  O2-  O490  1  0.17165722  0.85847040  0.61305600  1
  O2-  O491  1  0.16923690  0.83802875  1.00315422  1
  O2-  O492  1  0.41283464  0.08383506  0.31359516  1
  O2-  O493  1  0.43877036  0.09904267  0.61633846  1
  O2-  O494  1  0.41683393  0.08903845  0.97597780  1
  O2-  O495  1  0.41851420  0.34863013  0.29875809  1
  O2-  O496  1  0.41513313  0.34091523  0.63621196  1
  O2-  O497  1  0.42821461  0.33646576  0.98933519  1
  O2-  O498  1  0.37977301  0.60182828  0.32150788  1
  O2-  O499  1  0.44704724  0.58639225  0.65224621  1
  O2-  O500  1  0.41182771  0.56547286  0.98252917  1
  O2-  O501  1  0.42325197  0.83338088  0.31638284  1
  O2-  O502  1  0.43802217  0.79145613  0.63314475  1
  O2-  O503  1  0.46231294  0.91068064  0.95909997  1
  O2-  O504  1  0.66269123  0.08037084  0.32264620  1
  O2-  O505  1  0.61977719  0.09817371  0.67312673  1
  O2-  O506  1  0.66424446  0.08365094  0.97816277  1
  O2-  O507  1  0.67434252  0.32544532  0.32307837  1
  O2-  O508  1  0.66328130  0.31835339  0.63493822  1
  O2-  O509  1  0.66188692  0.33625287  0.98286755  1
  O2-  O510  1  0.66817014  0.59220725  0.31579254  1
  O2-  O511  1  0.68774007  0.62908873  0.64061646  1
  O2-  O512  1  0.65524039  0.57494709  0.99125985  1
  O2-  O513  1  0.74225494  0.90088063  0.30402594  1
  O2-  O514  1  0.74149082  0.85269242  0.60578506  1
  O2-  O515  1  0.65541529  0.82511266  0.98358859  1
  O2-  O516  1  0.94126660  0.13394583  0.30768676  1
  O2-  O517  1  0.90156505  0.11166244  0.65385950  1
  O2-  O518  1  0.90620407  0.07580579  0.95283234  1
  O2-  O519  1  0.91570337  0.33039774  0.31677547  1
  O2-  O520  1  0.90822722  0.30969374  0.66291270  1
  O2-  O521  1  0.93454963  0.29879294  0.95908898  1
  O2-  O522  1  0.91439544  0.57852228  0.30954059  1
  O2-  O523  1  0.90610657  0.57920796  0.63838635  1
  O2-  O524  1  0.91287194  0.58050254  0.97868706  1
  O2-  O525  1  0.92533793  0.89750520  0.30523998  1
  O2-  O526  1  0.86992018  0.81909568  0.62517183  1
  O2-  O527  1  0.91006453  0.82525787  0.97725284  1
  O2-  O528  1  0.06930935  0.16832749  0.01488043  1
  O2-  O529  1  0.09504855  0.18431672  0.35619328  1
  O2-  O530  1  0.08523856  0.17338159  0.67790062  1
  O2-  O531  1  0.08380370  0.41901827  0.01565513  1
  O2-  O532  1  0.08352130  0.40663893  0.35588075  1
  O2-  O533  1  0.08832337  0.42282722  0.67104576  1
  O2-  O534  1  0.07417612  0.66503128  0.03157315  1
  O2-  O535  1  0.07685815  0.66006971  0.34485920  1
  O2-  O536  1  0.07366794  0.67675580  0.65939818  1
  O2-  O537  1  0.07221803  0.91428731  0.02624972  1
  O2-  O538  1  0.07070029  0.90175838  0.37022891  1
  O2-  O539  1  0.15078154  0.95364182  0.69537799  1
  O2-  O540  1  0.36613527  0.18072867  0.03192439  1
  O2-  O541  1  0.34521916  0.18692334  0.34639801  1
  O2-  O542  1  0.36018468  0.16827065  0.66622786  1
  O2-  O543  1  0.33008155  0.39632055  0.01207134  1
  O2-  O544  1  0.32687385  0.42011305  0.33675781  1
  O2-  O545  1  0.34056344  0.42675764  0.68167748  1
  O2-  O546  1  0.30487730  0.61080316  0.04224853  1
  O2-  O547  1  0.34537148  0.65529578  0.34569732  1
  O2-  O548  1  0.31296335  0.65961748  0.68144323  1
  O2-  O549  1  0.33968756  0.92723202  0.03033191  1
  O2-  O550  1  0.33206914  0.91748223  0.35715378  1
  O2-  O551  1  0.32027048  0.89156062  0.68614676  1
  O2-  O552  1  0.58192126  0.16860695  0.01609663  1
  O2-  O553  1  0.57357599  0.15850177  0.35837555  1
  O2-  O554  1  0.58529456  0.15743147  0.68307665  1
  O2-  O555  1  0.56959370  0.41887990  0.03497694  1
  O2-  O556  1  0.60568924  0.43302195  0.35765504  1
  O2-  O557  1  0.59019800  0.41120850  0.66795959  1
  O2-  O558  1  0.57949141  0.66491423  0.02504384  1
  O2-  O559  1  0.55769990  0.66806855  0.34726865  1
  O2-  O560  1  0.56836169  0.58129151  0.72737774  1
  O2-  O561  1  0.59825165  0.92311968  0.02606193  1
  O2-  O562  1  0.57958780  0.92471922  0.36368813  1
  O2-  O563  1  0.47944107  0.94483436  0.69065049  1
  O2-  O564  1  0.80504627  0.19910720  0.04370133  1
  O2-  O565  1  0.82886989  0.16831929  0.36597919  1
  O2-  O566  1  0.84030478  0.13978034  0.67078336  1
  O2-  O567  1  0.83092488  0.41942756  0.02256950  1
  O2-  O568  1  0.83918869  0.41711775  0.36068994  1
  O2-  O569  1  0.82681753  0.41108469  0.68075937  1
  O2-  O570  1  0.83426772  0.66350169  0.01884765  1
  O2-  O571  1  0.82682002  0.66009710  0.36990239  1
  O2-  O572  1  0.83531207  0.66932901  0.68724767  1
  O2-  O573  1  0.83930228  0.92701148  0.00785503  1
  O2-  O574  1  0.76234687  0.84247692  0.33777636  1
  O2-  O575  1  0.89148069  0.95618315  0.69467864  1
