# generated using pymatgen
data_H2O
_symmetry_space_group_name_H-M   'P 1'
_cell_length_a   17.96113273
_cell_length_b   17.96655958
_cell_length_c   21.98032709
_cell_angle_alpha   90.00087596
_cell_angle_beta   90.03191941
_cell_angle_gamma   119.98546429
_symmetry_Int_Tables_number   1
_chemical_formula_structural   H2O
_chemical_formula_sum   'H384 O192'
_cell_volume   6143.65652787
_cell_formula_units_Z   192
loop_
 _symmetry_equiv_pos_site_id
 _symmetry_equiv_pos_as_xyz
  1  'x, y, z'
loop_
 _atom_type_symbol
 _atom_type_oxidation_number
  H+  1.0
  O2-  -2.0
loop_
 _atom_site_type_symbol
 _atom_site_label
 _atom_site_symmetry_multiplicity
 _atom_site_fract_x
 _atom_site_fract_y
 _atom_site_fract_z
 _atom_site_occupancy
  H+  H0  1  0.63210202  0.59437650  0.82418544  1
  H+  H1  1  0.10606938  0.21127227  0.16396603  1
  H+  H2  1  0.14764106  0.74555847  0.66766911  1
  H+  H3  1  0.16896536  0.16473500  0.52393110  1
  H+  H4  1  0.88343243  0.28168160  0.49662067  1
  H+  H5  1  0.01343274  0.61412759  0.83647797  1
  H+  H6  1  -0.04017529  0.09670164  -0.00534384  1
  H+  H7  1  0.38101146  0.53023933  0.31934020  1
  H+  H8  1  0.37286579  0.50806937  0.17289024  1
  H+  H9  1  0.70105968  0.96458768  0.14616185  1
  H+  H10  1  0.45693421  0.31501225  0.63267782  1
  H+  H11  1  0.35502329  0.72953981  0.34586530  1
  H+  H12  1  0.10520217  0.89387548  -0.00984621  1
  H+  H13  1  0.64628921  0.36252948  0.31630739  1
  H+  H14  1  0.78725990  0.15634117  0.33262010  1
  H+  H15  1  0.51374149  0.37587787  0.47101885  1
  H+  H16  1  0.32376225  0.45678703  0.00912609  1
  H+  H17  1  0.77252542  0.15661595  0.48085982  1
  H+  H18  1  0.66001481  0.30971911  0.26333267  1
  H+  H19  1  0.87822292  0.59323114  0.99768297  1
  H+  H20  1  0.35533796  -0.00224948  0.85425654  1
  H+  H21  1  0.29572888  0.39988359  0.33929968  1
  H+  H22  1  0.39500336  0.86040596  0.50705659  1
  H+  H23  1  0.87388636  0.73680269  0.15670066  1
  H+  H24  1  0.10637246  0.88050935  0.66405167  1
  H+  H25  1  0.08934799  0.17734701  0.44207634  1
  H+  H26  1  0.40724572  0.06426020  0.65517488  1
  H+  H27  1  0.86809070  0.97827867  0.17011582  1
  H+  H28  1  0.63699079  1.00642178  -0.02622963  1
  H+  H29  1  0.11967655  0.76830295  0.98101483  1
  H+  H30  1  0.15866310  0.29823140  0.36080471  1
  H+  H31  1  0.24296783  0.14311005  0.51792941  1
  H+  H32  1  0.33124171  0.22132818  0.68930343  1
  H+  H33  1  0.92071710  0.08838056  0.24019522  1
  H+  H34  1  0.86508471  0.71024029  0.66432729  1
  H+  H35  1  0.09925302  0.11767020  0.16120103  1
  H+  H36  1  0.78135337  0.88156689  0.67138053  1
  H+  H37  1  0.21382107  0.58617829  0.16458043  1
  H+  H38  1  0.67381713  0.66717236  0.69206056  1
  H+  H39  1  0.18600868  0.70235638  0.71083943  1
  H+  H40  1  0.97776955  0.37019647  0.49836389  1
  H+  H41  1  0.10637448  0.26046057  0.83970771  1
  H+  H42  1  0.45259830  0.10589954  0.00284410  1
  H+  H43  1  0.47793380  0.62654285  0.68537495  1
  H+  H44  1  0.38719522  0.31515360  0.94277590  1
  H+  H45  1  0.24801078  0.11693282  0.83226864  1
  H+  H46  1  0.67298575  0.39879517  0.67192762  1
  H+  H47  1  0.47507791  1.02553193  0.72674227  1
  H+  H48  1  0.37738663  0.96513082  0.73525194  1
  H+  H49  1  0.61592204  0.60098940  0.32082594  1
  H+  H50  1  0.23182816  0.86940163  0.29470913  1
  H+  H51  1  0.64797431  0.17016423  0.82783392  1
  H+  H52  1  0.11249837  0.10125182  0.83718405  1
  H+  H53  1  0.00592487  0.10038557  0.51445025  1
  H+  H54  1  0.79574437  0.39415166  0.32065465  1
  H+  H55  1  0.10138828  0.38268142  0.49828756  1
  H+  H56  1  0.68402252  0.66020231  0.72393637  1
  H+  H57  1  0.37366782  0.14072881  0.36539301  1
  H+  H58  1  0.08989288  0.21327415  0.67896124  1
  H+  H59  1  0.24844960  0.60455173  0.67824779  1
  H+  H60  1  0.96887426  0.85242178  0.84151147  1
  H+  H61  1  0.47205459  0.36317176  0.16069884  1
  H+  H62  1  0.08841700  0.12356845  0.67883935  1
  H+  H63  1  0.37055826  0.49365868  0.65459030  1
  H+  H64  1  0.95120185  0.10256748  0.66471486  1
  H+  H65  1  0.10085657  0.96346005  0.83365918  1
  H+  H66  1  0.22761810  0.88261957  0.62784916  1
  H+  H67  1  0.61744186  0.99443824  0.49710562  1
  H+  H68  1  0.62997448  0.25699644  0.15603211  1
  H+  H69  1  0.59324555  0.34264659  0.89747230  1
  H+  H70  1  0.53173911  0.49539762  0.72161634  1
  H+  H71  1  0.59798645  0.82488845  0.89482671  1
  H+  H72  1  0.10103471  0.96587121  0.67160348  1
  H+  H73  1  0.86530622  0.71740113  0.00284766  1
  H+  H74  1  0.86108280  0.47305015  0.81941468  1
  H+  H75  1  0.75260256  0.33069983  0.99420109  1
  H+  H76  1  0.45428959  0.59459138  1.00551965  1
  H+  H77  1  0.89165944  0.27837914  0.65234478  1
  H+  H78  1  0.05202981  0.41530986  0.30402574  1
  H+  H79  1  0.13356924  0.61888709  0.99275527  1
  H+  H80  1  0.34548485  0.71511880  0.00931194  1
  H+  H81  1  0.49147667  0.12998670  0.34618315  1
  H+  H82  1  0.80273350  0.99584646  0.64193177  1
  H+  H83  1  0.26678491  0.12621918  0.17676129  1
  H+  H84  1  0.90428357  0.82022097  0.89857069  1
  H+  H85  1  0.46375073  0.32552586  0.86649405  1
  H+  H86  1  0.62503782  0.15036158  0.35581529  1
  H+  H87  1  0.61564495  0.48545355  0.15156708  1
  H+  H88  1  0.95296671  0.63370746  0.31962093  1
  H+  H89  1  0.74315305  0.57599805  0.64667078  1
  H+  H90  1  0.30501928  0.86751472  0.16299634  1
  H+  H91  1  0.87604534  0.38935082  0.66031079  1
  H+  H92  1  0.12085554  0.47657226  0.82796529  1
  H+  H93  1  0.10040677  0.97891055  -0.00740077  1
  H+  H94  1  -0.03120982  0.85730358  -0.01404018  1
  H+  H95  1  0.57306842  0.70281673  0.68857856  1
  H+  H96  1  0.41432372  0.80671714  0.67013224  1
  H+  H97  1  0.63127307  0.12240891  0.50924619  1
  H+  H98  1  0.62037227  0.27313112  0.51955047  1
  H+  H99  1  0.14828987  0.71805876  0.30802266  1
  H+  H100  1  0.90394293  0.61169787  0.65955395  1
  H+  H101  1  0.11179561  0.96215259  0.33346766  1
  H+  H102  1  0.74837578  0.38260362  0.65386014  1
  H+  H103  1  0.36811657  0.60678781  0.00141167  1
  H+  H104  1  0.98462291  0.02188154  0.55804877  1
  H+  H105  1  0.73462225  0.84100214  1.01110495  1
  H+  H106  1  0.61581708  0.89218547  0.82256360  1
  H+  H107  1  0.91131488  0.37589553  0.30029131  1
  H+  H108  1  0.36102199  0.44860801  0.82556641  1
  H+  H109  1  0.77331800  0.13545677  -0.00905376  1
  H+  H110  1  0.34136745  -0.02652662  1.01754688  1
  H+  H111  1  0.35106907  0.14657518  0.67314531  1
  H+  H112  1  0.66696823  0.80634693  0.91368678  1
  H+  H113  1  0.85557744  -0.03709321  1.01210210  1
  H+  H114  1  0.53114756  0.17546777  0.67004676  1
  H+  H115  1  0.63562695  0.13955270  0.18471664  1
  H+  H116  1  0.77772377  0.62876342  1.00166660  1
  H+  H117  1  0.61408282  0.04344249  0.19564426  1
  H+  H118  1  0.63489594  0.50778876  0.49218082  1
  H+  H119  1  0.87785361  0.26384177  0.15239573  1
  H+  H120  1  0.35699200  0.38016022  0.16027807  1
  H+  H121  1  0.73294993  0.40095845  0.18432005  1
  H+  H122  1  0.85584296  0.70891449  0.48374650  1
  H+  H123  1  0.39140994  0.26806780  0.34019651  1
  H+  H124  1  0.36569758  0.62746632  0.49206659  1
  H+  H125  1  0.41045927  0.10857375  0.59203994  1
  H+  H126  1  0.38103575  0.43629614  0.37651922  1
  H+  H127  1  0.20227111  0.10172774  0.67502521  1
  H+  H128  1  0.77256988  0.13385772  0.82083654  1
  H+  H129  1  0.21141640  0.34035880  0.17987157  1
  H+  H130  1  0.33843170  0.39693937  0.72953112  1
  H+  H131  1  0.88636361  0.35173782  0.98899593  1
  H+  H132  1  0.36059721  0.63656501  0.33635709  1
  H+  H133  1  0.26474477  0.39069007  0.43407973  1
  H+  H134  1  0.65964755  0.90658793  0.50734906  1
  H+  H135  1  0.88350765  0.97107850  0.49404662  1
  H+  H136  1  0.35064960  0.36539670  0.66352035  1
  H+  H137  1  0.34470148  0.12418226  1.01773578  1
  H+  H138  1  0.36392909  0.22402377  0.45672550  1
  H+  H139  1  0.98428016  0.61996559  0.16399424  1
  H+  H140  1  0.62728507  0.52820602  -0.01969940  1
  H+  H141  1  0.12916781  0.59719866  0.84416230  1
  H+  H142  1  0.42169756  0.72515663  0.14037789  1
  H+  H143  1  0.25154840  0.85733670  0.86275695  1
  H+  H144  1  -0.03272387  0.83913673  0.49469127  1
  H+  H145  1  0.06303236  0.62888305  0.31090698  1
  H+  H146  1  0.45851863  0.58477741  0.50025965  1
  H+  H147  1  0.30974222  0.40310028  0.10709471  1
  H+  H148  1  0.52468884  0.51139368  0.69174284  1
  H+  H149  1  0.85568110  0.86775760  0.82871388  1
  H+  H150  1  0.63836208  0.13843520  0.66045429  1
  H+  H151  1  0.87185548  1.00930624  0.83498357  1
  H+  H152  1  0.90223837  1.04444782  0.33507749  1
  H+  H153  1  0.12359773  0.33657353  0.16644356  1
  H+  H154  1  0.60643862  0.93646482  0.73126090  1
  H+  H155  1  0.62788025  0.86896445  0.35176605  1
  H+  H156  1  0.52364418  0.88515768  0.82245632  1
  H+  H157  1  0.03469742  0.53296299  0.60639196  1
  H+  H158  1  1.03236697  0.35348486  0.98192502  1
  H+  H159  1  0.09737356  0.47272772  0.66388481  1
  H+  H160  1  0.86595602  0.26548450  0.83713959  1
  H+  H161  1  0.87946007  0.77928764  0.31954522  1
  H+  H162  1  0.60725187  0.62761372  0.16197424  1
  H+  H163  1  0.85957347  0.13043677  0.99340420  1
  H+  H164  1  0.85981195  0.35400546  0.83759133  1
  H+  H165  1  0.64440140  1.05121025  0.66330454  1
  H+  H166  1  0.36329578  0.86054688  0.34271087  1
  H+  H167  1  0.76831794  0.61828561  0.48130520  1
  H+  H168  1  0.39273134  0.12418583  0.19587840  1
  H+  H169  1  0.70023671  0.94005383  0.66028448  1
  H+  H170  1  0.92932716  0.34118409  0.23842120  1
  H+  H171  1  0.90323956  0.56500945  0.90207506  1
  H+  H172  1  0.16647678  1.05196262  0.44556633  1
  H+  H173  1  0.21450958  0.34576592  0.66887591  1
  H+  H174  1  0.51656756  0.62594967  0.16688471  1
  H+  H175  1  0.13222758  0.83962131  0.48569726  1
  H+  H176  1  0.90786048  0.87935817  0.17234351  1
  H+  H177  1  0.35246588  0.57017230  0.65353517  1
  H+  H178  1  0.53458580  0.86490197  -0.01483847  1
  H+  H179  1  0.85226873  0.13007185  0.16822866  1
  H+  H180  1  0.40210959  0.35416313  0.31218768  1
  H+  H181  1  0.11292416  0.36915547  0.82960887  1
  H+  H182  1  0.60329942  0.22759541  0.00740878  1
  H+  H183  1  0.37202931  1.00499561  0.34804096  1
  H+  H184  1  0.24971892  0.88615765  0.00654396  1
  H+  H185  1  0.59784503  0.71831721  0.34316943  1
  H+  H186  1  0.83434171  0.63317463  0.32487047  1
  H+  H187  1  0.61480924  0.46885811  0.33126017  1
  H+  H188  1  0.88369335  0.48735957  0.47079874  1
  H+  H189  1  0.09787566  0.93955023  0.47058756  1
  H+  H190  1  0.62873376  0.08840262  0.99095762  1
  H+  H191  1  0.88232217  0.60281434  0.84145136  1
  H+  H192  1  0.91401786  0.82155994  0.59409976  1
  H+  H193  1  0.59426256  0.60929345  0.48939241  1
  H+  H194  1  0.12744599  0.71643170  0.14475468  1
  H+  H195  1  0.22318183  0.60430226  0.84535503  1
  H+  H196  1  0.77411598  0.15809014  0.67012015  1
  H+  H197  1  0.75686046  0.90067057  0.50119312  1
  H+  H198  1  0.54263657  0.56015861  0.03076311  1
  H+  H199  1  0.10390323  0.23245009  0.50434452  1
  H+  H200  1  0.88698728  0.48316450  0.32251014  1
  H+  H201  1  0.33401018  0.45949532  0.48294957  1
  H+  H202  1  0.57502836  0.92820694  0.40481137  1
  H+  H203  1  0.63509071  0.02925595  0.83137329  1
  H+  H204  1  0.79107532  0.87903820  0.17410453  1
  H+  H205  1  0.87983038  0.50371250  0.99706218  1
  H+  H206  1  0.73124090  0.61997632  0.17130558  1
  H+  H207  1  0.61865782  0.36538456  0.50593391  1
  H+  H208  1  0.98595247  0.61445848  0.68502570  1
  H+  H209  1  0.67576847  0.92039630  0.13248037  1
  H+  H210  1  0.36781749  0.26876822  0.00811195  1
  H+  H211  1  1.01349697  0.63005630  0.99842821  1
  H+  H212  1  0.12560781  0.84904429  0.88201191  1
  H+  H213  1  0.70928778  0.61219973  0.32442081  1
  H+  H214  1  0.55799998  0.90250207  0.23070504  1
  H+  H215  1  0.26270982  0.13641137  0.01965939  1
  H+  H216  1  0.40104872  0.58770737  0.26039158  1
  H+  H217  1  0.68802004  0.48023915  0.78559031  1
  H+  H218  1  0.34960890  0.84951807  0.99265220  1
  H+  H219  1  0.37752798  0.60015354  0.16826566  1
  H+  H220  1  0.62271158  0.86622532  -0.01484437  1
  H+  H221  1  0.13128088  0.35816074  0.66877973  1
  H+  H222  1  0.96982049  0.34838263  0.14149383  1
  H+  H223  1  0.10943145  0.47304349  0.48420125  1
  H+  H224  1  0.37604285  0.72354711  0.49452424  1
  H+  H225  1  0.85345207  0.84224800  0.67142418  1
  H+  H226  1  -0.01543582  0.60871965  0.47065864  1
  H+  H227  1  0.55936395  0.90827402  0.66766104  1
  H+  H228  1  0.64340487  0.74975181  0.01283750  1
  H+  H229  1  0.65429323  0.75437933  0.19125231  1
  H+  H230  1  0.58577422  0.18342688  0.44617504  1
  H+  H231  1  0.35817451  0.08732468  0.85122158  1
  H+  H232  1  0.66498736  0.82992216  0.39820084  1
  H+  H233  1  0.50699698  0.63462931  0.33115973  1
  H+  H234  1  0.74231702  0.37489710  0.11832296  1
  H+  H235  1  0.20927683  0.35526835  0.51779914  1
  H+  H236  1  0.48467797  0.41305420  0.00938159  1
  H+  H237  1  0.13021433  0.13990909  0.99432922  1
  H+  H238  1  0.36950529  0.35251018  0.47824968  1
  H+  H239  1  0.83719704  0.19000329  0.42394652  1
  H+  H240  1  0.27627282  0.87652266  0.49148392  1
  H+  H241  1  0.65528684  0.62296937  0.96815077  1
  H+  H242  1  0.67306730  0.28603725  0.88663604  1
  H+  H243  1  0.76482341  0.86552115  0.82707729  1
  H+  H244  1  0.55545706  0.91084719  0.16008029  1
  H+  H245  1  0.53085100  0.37405104  0.33238112  1
  H+  H246  1  0.76627315  0.13552852  0.17067184  1
  H+  H247  1  0.12093086  0.63059403  0.46770492  1
  H+  H248  1  0.29474948  0.77164042  0.95114279  1
  H+  H249  1  0.51106403  0.89392926  0.34767624  1
  H+  H250  1  0.12540378  0.04788299  0.45794526  1
  H+  H251  1  0.00393956  0.12483976  0.83033411  1
  H+  H252  1  0.89212849  0.60358731  0.47878958  1
  H+  H253  1  0.59673094  0.37297221  0.83013384  1
  H+  H254  1  0.87842709  0.24269699  0.32086853  1
  H+  H255  1  0.22458728  0.10688189  0.34101074  1
  H+  H256  1  0.87861916  0.38695108  0.48073478  1
  H+  H257  1  0.36780686  0.24721925  0.85304620  1
  H+  H258  1  0.37762126  0.60419130  0.85415302  1
  H+  H259  1  0.62426450  0.25599032  0.67463586  1
  H+  H260  1  0.97499516  0.85386079  0.65519527  1
  H+  H261  1  0.38051197  0.37145702  0.82382656  1
  H+  H262  1  0.43239635  0.90211537  0.66591585  1
  H+  H263  1  0.37793100  0.84779189  0.83580028  1
  H+  H264  1  0.72702386  0.41862562  0.78399924  1
  H+  H265  1  0.86337749  0.71800310  0.82101236  1
  H+  H266  1  0.46881950  0.60188120  0.85718846  1
  H+  H267  1  0.38011851  1.02303482  0.50649537  1
  H+  H268  1  0.16602601  0.39050602  0.35083839  1
  H+  H269  1  0.47677567  0.40680838  0.61773133  1
  H+  H270  1  0.97141867  0.10877017  0.17751030  1
  H+  H271  1  0.89849803  0.62659116  0.17216781  1
  H+  H272  1  0.02239025  0.38049009  0.67082661  1
  H+  H273  1  0.88355187  0.48292613  0.66520889  1
  H+  H274  1  0.77417811  0.62991929  0.81510103  1
  H+  H275  1  0.38481078  0.27513377  0.17346658  1
  H+  H276  1  0.10862160  0.45266928  0.13683627  1
  H+  H277  1  0.48841763  0.14156359  0.19457112  1
  H+  H278  1  0.12292120  0.15194605  0.35059588  1
  H+  H279  1  0.13745976  0.85277992  0.29850364  1
  H+  H280  1  0.34833537  0.77550364  0.18139700  1
  H+  H281  1  0.87301713  0.09991530  0.83656569  1
  H+  H282  1  0.37943184  0.10945109  0.48866956  1
  H+  H283  1  0.86166301  0.36329833  0.09979211  1
  H+  H284  1  0.53512813  0.89665627  0.49952715  1
  H+  H285  1  0.23249832  0.52286345  0.71270104  1
  H+  H286  1  0.11042334  0.60754629  0.64132768  1
  H+  H287  1  0.88190326  0.84591080  0.49898556  1
  H+  H288  1  0.14813351  0.53933459  0.21733953  1
  H+  H289  1  0.08854785  0.41930240  0.76351114  1
  H+  H290  1  0.83872572  0.67137876  0.10016630  1
  H+  H291  1  0.15328844  0.57918061  0.54806958  1
  H+  H292  1  0.42234989  0.87028729  0.19446606  1
  H+  H293  1  0.83658391  0.17010426  0.76379551  1
  H+  H294  1  0.85239885  0.41620689  0.41244348  1
  H+  H295  1  0.40585712  0.32460055  0.53375414  1
  H+  H296  1  0.55986147  0.63571617  0.43132120  1
  H+  H297  1  0.81705457  0.86788419  0.73964636  1
  H+  H298  1  0.66639295  0.58225466  0.22877658  1
  H+  H299  1  0.03769996  0.15814728  0.34765993  1
  H+  H300  1  0.13000728  0.32232305  0.89993801  1
  H+  H301  1  0.36663662  0.71808719  0.82620327  1
  H+  H302  1  0.41130486  0.82555800  0.89358715  1
  H+  H303  1  0.02132594  0.87667626  0.32464189  1
  H+  H304  1  0.16170893  0.82258279  0.57869680  1
  H+  H305  1  0.55573070  0.44659749  0.06285310  1
  H+  H306  1  0.06218728  0.15792854  0.77047871  1
  H+  H307  1  0.16536322  0.09647396  0.61046543  1
  H+  H308  1  0.39618831  0.55706321  0.55894671  1
  H+  H309  1  0.90260522  0.06249990  0.93357720  1
  H+  H310  1  0.06866522  0.88107007  0.41293903  1
  H+  H311  1  0.90165471  0.13358526  0.33062589  1
  H+  H312  1  0.92391911  0.33709834  0.59098673  1
  H+  H313  1  0.66889774  0.56671931  0.87904705  1
  H+  H314  1  0.66002912  0.35160727  0.57637424  1
  H+  H315  1  0.66819433  0.10283345  0.27906834  1
  H+  H316  1  0.28331638  0.89975509  0.09301396  1
  H+  H317  1  0.87970449  0.25526971  0.97912133  1
  H+  H318  1  0.89913579  0.32341205  0.91414805  1
  H+  H319  1  0.51622491  0.14380954  0.50051717  1
  H+  H320  1  0.91898549  0.84156488  0.26132343  1
  H+  H321  1  0.16437709  0.57891341  0.94029812  1
  H+  H322  1  0.23271712  0.61471319  0.49996686  1
  H+  H323  1  0.83852107  0.91169098  0.07584293  1
  H+  H324  1  0.16658785  0.08088115  0.28134379  1
  H+  H325  1  0.42968184  0.83623753  0.56593469  1
  H+  H326  1  0.27800263  0.94850303  0.37387863  1
  H+  H327  1  0.78344229  0.90201260  0.34336224  1
  H+  H328  1  0.71647097  0.90779169  0.56990282  1
  H+  H329  1  0.43237882  0.10758108  0.28497398  1
  H+  H330  1  0.62166861  0.40323985  0.13310020  1
  H+  H331  1  0.10918645  0.61953488  0.14785987  1
  H+  H332  1  0.85745907  0.14770414  0.66488938  1
  H+  H333  1  0.14759095  0.57002015  0.31277989  1
  H+  H334  1  0.68157640  0.81621083  0.24818389  1
  H+  H335  1  0.33912437  0.67809680  0.09980322  1
  H+  H336  1  0.32660166  0.64115668  0.77574586  1
  H+  H337  1  0.07760977  0.65556645  0.78087327  1
  H+  H338  1  0.64313466  0.03969218  0.33635278  1
  H+  H339  1  0.10460377  0.66339263  0.40425534  1
  H+  H340  1  0.52575053  0.89290897  0.07755508  1
  H+  H341  1  0.62551327  0.23870400  0.34998305  1
  H+  H342  1  0.91670238  0.08090490  0.59776318  1
  H+  H343  1  0.99955435  0.88708914  0.18246182  1
  H+  H344  1  0.21316338  0.18937707  0.95432154  1
  H+  H345  1  0.57531893  0.18477465  0.10891505  1
  H+  H346  1  0.06436903  0.15672202  0.07242732  1
  H+  H347  1  0.64417900  0.53544820  0.65555366  1
  H+  H348  1  0.40291346  0.57626686  0.92609859  1
  H+  H349  1  0.08977520  0.39144000  0.07936014  1
  H+  H350  1  0.17552720  0.84031854  0.19899177  1
  H+  H351  1  0.83884387  0.65473355  0.72561833  1
  H+  H352  1  0.66848593  0.08652779  0.89110577  1
  H+  H353  1  0.32062540  0.36690136  0.00754924  1
  H+  H354  1  0.55780035  0.94065335  0.07623494  1
  H+  H355  1  0.87777792  0.84987117  0.99476474  1
  H+  H356  1  0.18611500  0.35565062  0.99341418  1
  H+  H357  1  0.26426278  0.86011702  0.79329113  1
  H+  H358  1  0.66993765  0.09866651  0.56556212  1
  H+  H359  1  0.07753750  0.66625912  0.05500311  1
  H+  H360  1  0.25667895  0.62759941  0.01275712  1
  H+  H361  1  0.14107861  0.75600078  0.48368622  1
  H+  H362  1  0.84121989  0.92186825  0.42955031  1
  H+  H363  1  0.84332549  0.41989191  0.75644250  1
  H+  H364  1  0.55686624  0.63580445  0.07549547  1
  H+  H365  1  0.37555544  0.82752887  0.27938951  1
  H+  H366  1  0.87012739  0.89753090  0.33546192  1
  H+  H367  1  0.31450528  0.14902696  0.77728976  1
  H+  H368  1  0.34439393  0.92216141  0.43913482  1
  H+  H369  1  0.07803165  0.22081876  0.01625182  1
  H+  H370  1  0.54384496  0.65289506  0.78190536  1
  H+  H371  1  0.08155966  0.89968636  0.77835295  1
  H+  H372  1  0.15171984  0.32690260  0.57891994  1
  H+  H373  1  0.94342496  0.59329834  0.25114137  1
  H+  H374  1  0.32230315  0.15399621  0.11664515  1
  H+  H375  1  0.58703249  0.40303382  0.41934863  1
  H+  H376  1  0.62482371  0.22517414  0.78365758  1
  H+  H377  1  0.67311349  0.55737417  0.55419106  1
  H+  H378  1  0.58866926  0.70480389  0.84268263  1
  H+  H379  1  0.39207697  0.06456645  0.94326811  1
  H+  H380  1  0.82274632  0.66283042  0.39117711  1
  H+  H381  1  0.52713524  0.23625451  0.03457207  1
  H+  H382  1  0.33923318  0.66606413  0.40748912  1
  H+  H383  1  0.14545431  0.08101304  0.89826938  1
  O2-  O384  1  0.07210643  0.15034156  0.14623380  1
  O2-  O385  1  0.08675985  0.17349088  0.48789745  1
  O2-  O386  1  0.06523490  0.15972210  0.81612180  1
  O2-  O387  1  0.08054307  0.39169502  0.12370160  1
  O2-  O388  1  0.07267495  0.41051586  0.47747941  1
  O2-  O389  1  0.09163001  0.41655617  0.80887472  1
  O2-  O390  1  0.08651355  0.65665846  0.13270815  1
  O2-  O391  1  0.09313256  0.66169824  0.44888194  1
  O2-  O392  1  0.07550676  0.64185052  0.82392563  1
  O2-  O393  1  0.11630687  0.97305186  0.18775216  1
  O2-  O394  1  0.06665707  0.87861597  0.45928146  1
  O2-  O395  1  0.07734195  0.90142789  0.82306806  1
  O2-  O396  1  0.32660568  0.15845351  0.16180082  1
  O2-  O397  1  0.33612525  0.16115360  0.44651425  1
  O2-  O398  1  0.31052876  0.14406126  0.82226390  1
  O2-  O399  1  0.32149629  0.40924972  0.15128748  1
  O2-  O400  1  0.30180968  0.39753727  0.46985155  1
  O2-  O401  1  0.37025807  0.41162336  0.79789727  1
  O2-  O402  1  0.35905188  0.69265665  0.14390116  1
  O2-  O403  1  0.34206570  0.66495528  0.47637627  1
  O2-  O404  1  0.33542647  0.65435628  0.81976078  1
  O2-  O405  1  0.27236780  0.89455849  0.14293263  1
  O2-  O406  1  0.33975848  0.91311466  0.48391451  1
  O2-  O407  1  0.29796291  0.87760579  0.83074657  1
  O2-  O408  1  0.59139417  0.19366819  0.15278081  1
  O2-  O409  1  0.57926666  0.18044645  0.49195975  1
  O2-  O410  1  0.63961616  0.22049802  0.82571581  1
  O2-  O411  1  0.58352609  0.42825360  0.13081538  1
  O2-  O412  1  0.57714280  0.40133932  0.46509008  1
  O2-  O413  1  0.56333709  0.36032309  0.86833501  1
  O2-  O414  1  0.57564860  0.65827389  0.14942016  1
  O2-  O415  1  0.55616110  0.63133998  0.47621053  1
  O2-  O416  1  0.55571812  0.64551671  0.82572943  1
  O2-  O417  1  0.53580152  0.92335258  0.19833927  1
  O2-  O418  1  0.59470891  0.93272652  0.48258716  1
  O2-  O419  1  0.58403168  0.91953331  0.80710919  1
  O2-  O420  1  0.82284459  0.15953356  0.15100922  1
  O2-  O421  1  0.83361674  0.18909794  0.46914472  1
  O2-  O422  1  0.83492655  0.16373234  0.80900082  1
  O2-  O423  1  0.82520524  0.38661926  0.08295783  1
  O2-  O424  1  0.85069912  0.42023095  0.45834745  1
  O2-  O425  1  0.82733168  0.41490511  0.80026322  1
  O2-  O426  1  0.83907589  0.67510009  0.14559368  1
  O2-  O427  1  0.82822333  0.65139448  0.46381492  1
  O2-  O428  1  0.83672811  0.65901392  0.80344687  1
  O2-  O429  1  0.84566079  0.91888397  0.15261126  1
  O2-  O430  1  0.83649391  0.91577805  0.47567346  1
  O2-  O431  1  0.82218251  0.89381148  0.80846530  1
  O2-  O432  1  0.14875496  0.05514356  0.19871403  1
  O2-  O433  1  0.21271370  0.15845656  0.54790681  1
  O2-  O434  1  0.14112858  0.06965481  0.85380728  1
  O2-  O435  1  0.14897105  0.30614003  0.18836603  1
  O2-  O436  1  0.14944045  0.32881030  0.53340720  1
  O2-  O437  1  0.13593324  0.32209808  0.85448993  1
  O2-  O438  1  0.15229268  0.55492470  0.17295354  1
  O2-  O439  1  0.16913080  0.58474335  0.50442676  1
  O2-  O440  1  0.16267362  0.56825332  0.85838228  1
  O2-  O441  1  0.18014926  0.83355600  0.15346945  1
  O2-  O442  1  0.16633513  0.81473844  0.50338159  1
  O2-  O443  1  0.15762034  0.82189359  0.89957211  1
  O2-  O444  1  0.43216040  0.10669094  0.21470329  1
  O2-  O445  1  0.40726185  0.08568132  0.51567018  1
  O2-  O446  1  0.38695730  0.05716478  0.86907846  1
  O2-  O447  1  0.41324262  0.33842794  0.17699883  1
  O2-  O448  1  0.40549477  0.32623624  0.48881044  1
  O2-  O449  1  0.40015024  0.30726736  0.86889398  1
  O2-  O450  1  0.40573536  0.57082515  0.18697951  1
  O2-  O451  1  0.39603748  0.55967101  0.51356300  1
  O2-  O452  1  0.40653642  0.57435126  0.87453136  1
  O2-  O453  1  0.35941605  0.83071324  0.20025090  1
  O2-  O454  1  0.42850846  0.83256642  0.52092816  1
  O2-  O455  1  0.41722101  0.82643654  0.84869313  1
  O2-  O456  1  0.65742122  0.10353125  0.20426868  1
  O2-  O457  1  0.66349040  0.09248260  0.52036551  1
  O2-  O458  1  0.67096673  0.08912847  0.84577174  1
  O2-  O459  1  0.69773466  0.36779877  0.14990172  1
  O2-  O460  1  0.64845698  0.33759285  0.53041891  1
  O2-  O461  1  0.68291150  0.32619000  0.92163560  1
  O2-  O462  1  0.66932917  0.58579470  0.18336510  1
  O2-  O463  1  0.66754998  0.56651489  0.50986373  1
  O2-  O464  1  0.67073465  0.57188659  0.83395380  1
  O2-  O465  1  0.70431091  0.79921569  0.21411525  1
  O2-  O466  1  0.70007864  0.88694848  0.52612972  1
  O2-  O467  1  0.63843780  0.80992704  0.87538876  1
  O2-  O468  1  0.91215243  0.07963794  0.19534025  1
  O2-  O469  1  0.95586953  0.04824461  0.53674605  1
  O2-  O470  1  0.90086736  0.06742651  0.85311892  1
  O2-  O471  1  0.91016005  0.32902089  0.15545518  1
  O2-  O472  1  0.91513413  0.34353278  0.51302002  1
  O2-  O473  1  0.88818478  0.32317349  0.85629223  1
  O2-  O474  1  0.92896962  0.59628371  0.18653877  1
  O2-  O475  1  0.92540821  0.57409884  0.48773085  1
  O2-  O476  1  0.90925647  0.56949978  0.85665981  1
  O2-  O477  1  0.93705239  0.84752142  0.18790818  1
  O2-  O478  1  0.90989448  0.81441023  0.51521198  1
  O2-  O479  1  0.90631250  0.82229075  0.85255829  1
  O2-  O480  1  0.16447548  0.07855508  0.32645516  1
  O2-  O481  1  0.14639474  0.07403001  0.65299293  1
  O2-  O482  1  0.17531891  0.13243677  0.97138128  1
  O2-  O483  1  0.19750619  0.36152536  0.36533780  1
  O2-  O484  1  0.15315417  0.31952878  0.65551319  1
  O2-  O485  1  0.12495508  0.32444705  0.97684931  1
  O2-  O486  1  0.15952344  0.52765132  0.29229400  1
  O2-  O487  1  0.09474347  0.55406593  0.61775808  1
  O2-  O488  1  0.17020168  0.59280627  0.98430055  1
  O2-  O489  1  0.17356993  0.83122404  0.27923165  1
  O2-  O490  1  0.16872207  0.83495585  0.62407659  1
  O2-  O491  1  0.15389236  0.83123764  0.96613974  1
  O2-  O492  1  0.43034004  0.10221430  0.33189386  1
  O2-  O493  1  0.41684973  0.11861928  0.63713098  1
  O2-  O494  1  0.39211092  0.06669845  0.98960715  1
  O2-  O495  1  0.43089206  0.32022021  0.31731775  1
  O2-  O496  1  0.43036535  0.34685386  0.61649640  1
  O2-  O497  1  0.38325609  0.32419453  0.98785173  1
  O2-  O498  1  0.40143385  0.59162345  0.30636036  1
  O2-  O499  1  0.39423253  0.55385495  0.63879455  1
  O2-  O500  1  0.39562839  0.57318475  0.98503253  1
  O2-  O501  1  0.38975271  0.82957460  0.32362149  1
  O2-  O502  1  0.44728323  0.86042481  0.64772425  1
  O2-  O503  1  0.35324347  0.80566392  0.96706441  1
  O2-  O504  1  0.67479349  0.10097504  0.32453991  1
  O2-  O505  1  0.66978304  0.10930247  0.64470640  1
  O2-  O506  1  0.66342297  0.06972690  0.96862257  1
  O2-  O507  1  0.67743533  0.33051844  0.30482128  1
  O2-  O508  1  0.68499737  0.36171653  0.64543676  1
  O2-  O509  1  0.69337844  0.28081837  0.97359382  1
  O2-  O510  1  0.65076017  0.57463532  0.30732497  1
  O2-  O511  1  0.68635514  0.53271069  0.62905002  1
  O2-  O512  1  0.67391654  0.58124330  0.96021029  1
  O2-  O513  1  0.66147568  0.83805024  0.35457577  1
  O2-  O514  1  0.74877155  0.93739812  0.63884216  1
  O2-  O515  1  0.67452041  0.80602837  0.99292048  1
  O2-  O516  1  0.93473232  0.10400282  0.31940349  1
  O2-  O517  1  0.89769957  0.08359126  0.63995711  1
  O2-  O518  1  0.89980902  0.06238357  0.97884620  1
  O2-  O519  1  0.94100151  0.34642647  0.28318938  1
  O2-  O520  1  0.92798059  0.33876884  0.63659008  1
  O2-  O521  1  0.91333552  0.32112324  0.96489243  1
  O2-  O522  1  0.95456705  0.58723620  0.29796941  1
  O2-  O523  1  0.94334115  0.58785172  0.65283434  1
  O2-  O524  1  0.90812907  0.56371990  0.98050466  1
  O2-  O525  1  0.91468899  0.84051355  0.30743876  1
  O2-  O526  1  0.91346149  0.82178636  0.63980096  1
  O2-  O527  1  0.90633405  0.82097063  0.97443368  1
  O2-  O528  1  0.06102258  0.16064250  0.02647131  1
  O2-  O529  1  0.09668258  0.18540865  0.36619958  1
  O2-  O530  1  0.05596398  0.15220403  0.69309527  1
  O2-  O531  1  0.09338018  0.38266172  -0.00398698  1
  O2-  O532  1  0.10801584  0.44777821  0.32674710  1
  O2-  O533  1  0.08324494  0.41905321  0.68620905  1
  O2-  O534  1  0.07530327  0.67035184  0.00973516  1
  O2-  O535  1  0.12378317  0.65992219  0.32594238  1
  O2-  O536  1  0.13367923  0.69116371  0.68968257  1
  O2-  O537  1  0.07087231  0.91904595  0.00533901  1
  O2-  O538  1  0.08176644  0.89845371  0.33938165  1
  O2-  O539  1  0.07351407  0.90410609  0.68445031  1
  O2-  O540  1  0.32118682  0.15890854  0.03648464  1
  O2-  O541  1  0.33394536  0.16295639  0.37906510  1
  O2-  O542  1  0.31244004  0.16113001  0.69735972  1
  O2-  O543  1  0.28843911  0.39620206  0.02168318  1
  O2-  O544  1  0.36054121  0.43232835  0.33481025  1
  O2-  O545  1  0.32242615  0.39299191  0.68455237  1
  O2-  O546  1  0.32061480  0.65733295  0.02815040  1
  O2-  O547  1  0.33383769  0.66839474  0.36031072  1
  O2-  O548  1  0.27700672  0.58203959  0.70395997  1
  O2-  O549  1  0.30412455  0.91027853  0.03093276  1
  O2-  O550  1  0.32717561  0.94314460  0.36079255  1
  O2-  O551  1  0.42285071  0.98543245  0.70461915  1
  O2-  O552  1  0.54721971  0.19498128  0.03150112  1
  O2-  O553  1  0.59529616  0.18174045  0.37087861  1
  O2-  O554  1  0.58891113  0.19450257  0.68692033  1
  O2-  O555  1  0.53875986  0.46396109  0.02397184  1
  O2-  O556  1  0.59393717  0.40848802  0.34505529  1
  O2-  O557  1  0.67844569  0.42536932  0.76892547  1
  O2-  O558  1  0.54678937  0.61826328  0.03118240  1
  O2-  O559  1  0.56560444  0.65532035  0.34840135  1
  O2-  O560  1  0.52028684  0.67350672  0.71237042  1
  O2-  O561  1  0.59030126  0.89134724  -0.03520199  1
  O2-  O562  1  0.57254583  0.92374041  0.35929015  1
  O2-  O563  1  0.61649894  0.94586249  0.68640624  1
  O2-  O564  1  0.83545906  0.16916677  -0.00004199  1
  O2-  O565  1  0.84913240  0.18778858  0.34425506  1
  O2-  O566  1  0.83489926  0.18247539  0.68443959  1
  O2-  O567  1  0.83423200  0.39243497  0.01586363  1
  O2-  O568  1  0.85516932  0.42209327  0.33699664  1
  O2-  O569  1  0.84650917  0.42040069  0.67605657  1
  O2-  O570  1  0.83561867  0.65805167  0.02057479  1
  O2-  O571  1  0.81709400  0.67006363  0.34567682  1
  O2-  O572  1  0.83979690  0.65076911  0.67996766  1
  O2-  O573  1  0.83171943  0.90418881  0.03042993  1
  O2-  O574  1  0.84438024  0.92991740  0.35572265  1
  O2-  O575  1  0.80566746  0.84887935  0.69467562  1
