# generated using pymatgen
data_H2O
_symmetry_space_group_name_H-M   'P 1'
_cell_length_a   17.97961026
_cell_length_b   17.98662705
_cell_length_c   21.98727822
_cell_angle_alpha   90.02014662
_cell_angle_beta   90.03088065
_cell_angle_gamma   120.00894778
_symmetry_Int_Tables_number   1
_chemical_formula_structural   H2O
_chemical_formula_sum   'H384 O192'
_cell_volume   6157.33477918
_cell_formula_units_Z   192
loop_
 _symmetry_equiv_pos_site_id
 _symmetry_equiv_pos_as_xyz
  1  'x, y, z'
loop_
 _atom_type_symbol
 _atom_type_oxidation_number
  H+  1.0
  O2-  -2.0
loop_
 _atom_site_type_symbol
 _atom_site_label
 _atom_site_symmetry_multiplicity
 _atom_site_fract_x
 _atom_site_fract_y
 _atom_site_fract_z
 _atom_site_occupancy
  H+  H0  1  0.35831063  0.64019113  0.49784214  1
  H+  H1  1  0.90655898  0.08268185  0.26663542  1
  H+  H2  1  0.72791678  0.91546566  0.63719315  1
  H+  H3  1  0.76748379  0.58924069  0.29451062  1
  H+  H4  1  0.52336659  0.13593247  0.82331113  1
  H+  H5  1  0.73909238  0.12449667  0.50410384  1
  H+  H6  1  0.13360668  0.59110735  0.33478308  1
  H+  H7  1  0.64218083  0.12279075  0.65548974  1
  H+  H8  1  0.59508227  0.49700620  0.30522169  1
  H+  H9  1  -0.03162000  0.35048687  0.84356627  1
  H+  H10  1  0.40851870  0.08865482  0.15206938  1
  H+  H11  1  0.11119137  0.88365406  0.48728647  1
  H+  H12  1  0.47687732  0.11567965  0.99017389  1
  H+  H13  1  0.39212379  -0.00495818  0.16376975  1
  H+  H14  1  0.96833986  0.41855445  0.96884896  1
  H+  H15  1  0.27560070  0.63214727  0.34226757  1
  H+  H16  1  0.10735176  0.21951343  0.34660003  1
  H+  H17  1  1.02165403  0.36882800  1.00998174  1
  H+  H18  1  0.52900170  0.09877615  0.15265753  1
  H+  H19  1  0.88143665  0.76768265  0.51098972  1
  H+  H20  1  0.61250211  0.22878582  0.00540049  1
  H+  H21  1  0.35799471  0.37281237  1.00381469  1
  H+  H22  1  0.21168172  0.28316139  0.28691824  1
  H+  H23  1  0.58266324  0.40833418  0.72924791  1
  H+  H24  1  -0.02433832  0.36042698  0.50771881  1
  H+  H25  1  0.71506500  0.62200065  0.83230961  1
  H+  H26  1  0.65196496  0.76325360  0.18132200  1
  H+  H27  1  0.88658879  0.60611887  0.65750700  1
  H+  H28  1  0.19128141  0.38433276  0.66747836  1
  H+  H29  1  0.38111811  0.76062829  0.17888910  1
  H+  H30  1  0.58685281  0.76299225  0.66110555  1
  H+  H31  1  0.88513343  0.11056472  0.50298691  1
  H+  H32  1  0.22821700  0.86397296  0.65302355  1
  H+  H33  1  0.46810108  0.85919937  0.33527250  1
  H+  H34  1  0.37830974  0.49866179  0.14573094  1
  H+  H35  1  0.85261513  0.97643627  0.32567724  1
  H+  H36  1  0.33921451  0.15083547  0.17393755  1
  H+  H37  1  0.06861293  0.66500687  0.34826046  1
  H+  H38  1  0.06073368  0.62082304  0.41036599  1
  H+  H39  1  0.88961540  0.36057886  0.17291315  1
  H+  H40  1  0.38252218  0.35710554  0.50576579  1
  H+  H41  1  0.22100667  0.11422052  0.32458185  1
  H+  H42  1  0.49075167  0.12471642  0.66204339  1
  H+  H43  1  0.62436341  0.61074736  0.83358341  1
  H+  H44  1  0.36800674  0.21733137  0.66005518  1
  H+  H45  1  0.78398229  0.75373485  0.76427358  1
  H+  H46  1  0.61964099  0.21976806  0.49646317  1
  H+  H47  1  0.17695643  0.58736779  0.79298140  1
  H+  H48  1  0.13999974  0.62001553  0.17833027  1
  H+  H49  1  0.84830729  0.61071888  0.82042409  1
  H+  H50  1  0.22523143  0.61431855  0.50740411  1
  H+  H51  1  0.85907597  0.37440529  0.82739584  1
  H+  H52  1  0.63916271  0.70711259  0.76769723  1
  H+  H53  1  0.31565969  0.39652196  0.66871237  1
  H+  H54  1  0.11221894  0.45826108  0.00178229  1
  H+  H55  1  0.64095393  0.11900259  0.50416863  1
  H+  H56  1  0.41529306  0.47261691  0.68555715  1
  H+  H57  1  0.13761293  0.27193583  0.50968532  1
  H+  H58  1  0.63161385  0.10261405  0.33042125  1
  H+  H59  1  0.89756378  0.86341239  0.16659466  1
  H+  H60  1  0.47243902  0.36104786  0.49671962  1
  H+  H61  1  0.10385660  0.13068204  0.34259640  1
  H+  H62  1  0.61065224  0.39213858  1.00271348  1
  H+  H63  1  0.72973546  0.32398206  0.17090793  1
  H+  H64  1  0.87178188  0.01644557  0.17538388  1
  H+  H65  1  0.39229109  0.87226683  0.98744086  1
  H+  H66  1  0.76411177  0.62784382  0.65971376  1
  H+  H67  1  0.01576589  0.62846007  0.49925633  1
  H+  H68  1  0.99491587  0.87193748  0.82709603  1
  H+  H69  1  0.26243599  0.37120649  0.00521226  1
  H+  H70  1  0.36477318  0.22179281  0.49104624  1
  H+  H71  1  0.52089764  0.13066110  0.34063485  1
  H+  H72  1  0.17128138  0.77594272  0.34641062  1
  H+  H73  1  0.42197423  0.32027442  0.59218355  1
  H+  H74  1  0.37032461  0.97328530  0.67564964  1
  H+  H75  1  0.25220369  0.14702360  0.16024683  1
  H+  H76  1  0.12220104  0.89558868  0.82660412  1
  H+  H77  1  0.13379205  0.74869070  0.16675488  1
  H+  H78  1  0.60656484  0.89993702  0.45508408  1
  H+  H79  1  0.46690358  0.62037710  0.51581101  1
  H+  H80  1  0.81315229  0.66140673  0.55363522  1
  H+  H81  1  0.38931415  1.02256629  0.32865614  1
  H+  H82  1  0.02026233  0.37344961  0.34029530  1
  H+  H83  1  0.87821113  0.61080234  0.51345681  1
  H+  H84  1  0.16143100  0.87300266  1.03488484  1
  H+  H85  1  0.47076515  0.35919236  -0.00820688  1
  H+  H86  1  0.88071081  0.77300211  0.64955307  1
  H+  H87  1  0.85089280  0.34316228  0.65248458  1
  H+  H88  1  0.59288703  0.84186328  0.83506090  1
  H+  H89  1  0.85330174  0.88319115  1.06701839  1
  H+  H90  1  0.37616044  0.28506407  0.16775060  1
  H+  H91  1  0.97232499  0.62640159  0.00661996  1
  H+  H92  1  -0.03766956  0.10252723  -0.02802697  1
  H+  H93  1  0.88509712  0.87443016  0.31024577  1
  H+  H94  1  0.13595831  0.23763900  0.66260983  1
  H+  H95  1  0.11478637  0.47468277  0.49739919  1
  H+  H96  1  0.60208345  0.74806358  0.49608022  1
  H+  H97  1  0.87793655  0.90014715  0.81597663  1
  H+  H98  1  0.38716705  0.11782310  0.65780868  1
  H+  H99  1  0.22742187  0.10993683  0.50279389  1
  H+  H100  1  0.51134597  0.37093507  0.32453102  1
  H+  H101  1  0.71951777  0.61535809  0.99207331  1
  H+  H102  1  0.11683800  0.74579781  0.83678639  1
  H+  H103  1  0.72593962  0.88310968  0.98001708  1
  H+  H104  1  0.93380352  0.56955951  0.13406834  1
  H+  H105  1  0.77853624  0.63190448  0.30808426  1
  H+  H106  1  0.11126148  0.97259144  0.48973319  1
  H+  H107  1  0.61133513  0.47597163  0.82319467  1
  H+  H108  1  0.12974954  0.02806813  0.32482159  1
  H+  H109  1  0.03879880  0.37572181  0.62843225  1
  H+  H110  1  0.62955161  0.26237476  0.33226063  1
  H+  H111  1  0.90522693  0.50262000  0.85094693  1
  H+  H112  1  0.86021289  0.79807436  0.42251046  1
  H+  H113  1  0.16912590  0.76370981  0.31330269  1
  H+  H114  1  0.07839550  0.92025174  0.39482271  1
  H+  H115  1  0.10498780  0.74868398  0.01128517  1
  H+  H116  1  0.10169572  0.46496347  0.83215078  1
  H+  H117  1  0.87155168  0.77781835  0.01440763  1
  H+  H118  1  0.85743820  0.64132810  0.00888409  1
  H+  H119  1  0.38402754  0.78013896  0.84077710  1
  H+  H120  1  0.86522555  0.38735611  0.48891252  1
  H+  H121  1  0.85810649  0.72856088  0.15941065  1
  H+  H122  1  0.42418852  0.08626895  0.59645312  1
  H+  H123  1  0.76583047  0.12976091  0.34245165  1
  H+  H124  1  0.92825964  0.65459402  0.33801120  1
  H+  H125  1  0.86395370  0.38717218  0.00170235  1
  H+  H126  1  0.85564636  0.13093928  0.34043253  1
  H+  H127  1  0.90610067  0.62480887  0.36430017  1
  H+  H128  1  0.15259652  0.28419922  0.83378537  1
  H+  H129  1  0.97155194  0.85931275  0.50057031  1
  H+  H130  1  0.86475851  0.22788929  0.15875390  1
  H+  H131  1  0.36187045  0.88798311  0.83146937  1
  H+  H132  1  0.50283077  0.88686429  0.81785245  1
  H+  H133  1  0.36136488  0.72533407  0.34229145  1
  H+  H134  1  0.85542362  0.36741840  0.33943869  1
  H+  H135  1  0.60520098  0.97121746  0.35764839  1
  H+  H136  1  0.83706946  0.92809493  0.72599723  1
  H+  H137  1  0.61084623  0.42293506  0.15233146  1
  H+  H138  1  1.01784950  0.89132076  0.98716404  1
  H+  H139  1  0.27638609  0.12580969  0.66330875  1
  H+  H140  1  0.36164338  0.13313630  0.00482465  1
  H+  H141  1  0.31945388  0.63449614  0.06393776  1
  H+  H142  1  0.38408092  0.36219978  0.32811721  1
  H+  H143  1  0.62170230  0.74358469  0.00633717  1
  H+  H144  1  0.83229674  0.45060774  0.15663576  1
  H+  H145  1  0.13082077  0.62636459  0.82984982  1
  H+  H146  1  0.12186738  0.98373305  0.81604123  1
  H+  H147  1  0.33337979  0.62978934  0.64579489  1
  H+  H148  1  0.40145752  0.35014927  0.65657690  1
  H+  H149  1  0.25244159  0.91915858  0.31795563  1
  H+  H150  1  0.72420201  0.10787695  0.66019709  1
  H+  H151  1  0.87510265  0.09679995  0.86526589  1
  H+  H152  1  0.34069157  0.42331909  0.40632864  1
  H+  H153  1  0.87224928  0.25018527  -0.00014388  1
  H+  H154  1  0.85753590  0.97573896  0.48161106  1
  H+  H155  1  0.13346594  0.15458864  0.81416495  1
  H+  H156  1  0.71920599  0.62599873  0.17679945  1
  H+  H157  1  0.36710214  0.64909028  0.83840629  1
  H+  H158  1  0.85427876  0.47378656  0.01444394  1
  H+  H159  1  0.36154611  0.47843454  0.49968846  1
  H+  H160  1  0.10087946  0.88330363  -0.02944302  1
  H+  H161  1  0.61474634  0.65153405  0.01115967  1
  H+  H162  1  0.10666561  0.36964872  0.34327559  1
  H+  H163  1  0.86036346  0.47229763  0.67327978  1
  H+  H164  1  0.48375476  0.87803549  -0.01158001  1
  H+  H165  1  0.52341428  0.38581760  0.82444268  1
  H+  H166  1  0.02102636  0.89658292  0.33333302  1
  H+  H167  1  0.63276881  0.51239321  0.65565675  1
  H+  H168  1  0.02201237  0.13280379  0.49748680  1
  H+  H169  1  0.13845804  0.11145947  0.50526397  1
  H+  H170  1  0.35687294  0.21899525  0.33539074  1
  H+  H171  1  0.72739746  0.86752914  0.27913797  1
  H+  H172  1  0.62523939  0.54759149  0.16166228  1
  H+  H173  1  0.52596748  0.37183471  0.66797722  1
  H+  H174  1  0.36043925  0.63375146  0.16558904  1
  H+  H175  1  0.59587238  -0.02933110  0.81344815  1
  H+  H176  1  0.61488237  0.58863620  0.65553134  1
  H+  H177  1  0.39077502  0.77920433  0.51242954  1
  H+  H178  1  0.90848484  0.33394993  0.90289699  1
  H+  H179  1  0.13493487  0.35037123  0.99582326  1
  H+  H180  1  0.28203179  0.65626295  0.84390475  1
  H+  H181  1  0.78166664  0.86500703  0.16965812  1
  H+  H182  1  0.63649190  0.07232692  0.17533879  1
  H+  H183  1  0.36307538  0.88820177  0.34543189  1
  H+  H184  1  0.09297555  0.23224399  0.17154430  1
  H+  H185  1  0.83153120  0.41396330  0.43050867  1
  H+  H186  1  0.65558952  0.62434287  0.41575226  1
  H+  H187  1  0.27376045  0.38798459  0.49626984  1
  H+  H188  1  0.04183273  0.66521036  0.16941695  1
  H+  H189  1  0.72319546  0.36531181  0.99464928  1
  H+  H190  1  0.89981535  0.02932615  0.65513281  1
  H+  H191  1  0.46742864  0.60426104  0.67350521  1
  H+  H192  1  0.12199718  0.36359679  0.17450176  1
  H+  H193  1  0.41719502  0.07256915  0.26536209  1
  H+  H194  1  0.60525286  0.37791372  0.32373328  1
  H+  H195  1  0.11963992  0.11754862  0.17375406  1
  H+  H196  1  0.95926067  0.10666933  0.17797324  1
  H+  H197  1  0.22324658  0.10007987  0.97962086  1
  H+  H198  1  0.13156608  0.01304099  0.96168949  1
  H+  H199  1  0.46935117  0.63189940  0.98487785  1
  H+  H200  1  0.35837641  0.13074211  0.33392856  1
  H+  H201  1  0.39155522  0.11394689  0.83457525  1
  H+  H202  1  0.38740470  0.85197261  0.17276071  1
  H+  H203  1  0.17845775  0.50081448  0.69068220  1
  H+  H204  1  0.61183874  0.13486690  0.82161479  1
  H+  H205  1  0.63706163  0.87773234  -0.00552788  1
  H+  H206  1  0.71700092  0.87759427  0.48426882  1
  H+  H207  1  0.77465140  0.38405053  0.82851348  1
  H+  H208  1  0.59986080  0.47775327  0.47394664  1
  H+  H209  1  0.03257430  0.65060504  0.83805888  1
  H+  H210  1  0.38917580  0.36261150  0.83644243  1
  H+  H211  1  0.72825207  0.34849248  0.50607622  1
  H+  H212  1  0.54287644  0.90697011  0.72080654  1
  H+  H213  1  0.15228426  0.87929391  0.16207380  1
  H+  H214  1  1.02124008  0.88672156  0.66818653  1
  H+  H215  1  0.37108147  0.22892287  0.81796686  1
  H+  H216  1  0.85654169  0.89209864  0.66516690  1
  H+  H217  1  0.11568350  0.98060405  0.15340784  1
  H+  H218  1  0.85282330  0.88598441  0.48441905  1
  H+  H219  1  0.27390925  0.88465776  0.49820970  1
  H+  H220  1  0.08494657  0.41691895  0.09844437  1
  H+  H221  1  0.13574934  0.77198981  0.50193565  1
  H+  H222  1  0.63607905  0.35518464  0.66022245  1
  H+  H223  1  0.91482739  0.07932392  0.56151988  1
  H+  H224  1  0.37514941  0.88863283  0.68003888  1
  H+  H225  1  0.21864649  0.57824826  0.99629337  1
  H+  H226  1  0.85440529  0.75786439  0.80702541  1
  H+  H227  1  0.63265198  0.29992840  0.17362534  1
  H+  H228  1  0.14195296  0.86854387  0.65145624  1
  H+  H229  1  0.52883389  0.12895390  0.49713022  1
  H+  H230  1  0.33075442  0.54325895  0.66248745  1
  H+  H231  1  0.11604900  0.12441980  -0.02318868  1
  H+  H232  1  0.85478446  0.10724205  0.67853231  1
  H+  H233  1  0.27011723  0.63240563  0.16568134  1
  H+  H234  1  1.03317896  0.41246461  0.63864248  1
  H+  H235  1  0.71442870  0.70236592  0.37570308  1
  H+  H236  1  0.14412654  0.51037395  0.32735132  1
  H+  H237  1  0.23200740  0.87439826  0.85033617  1
  H+  H238  1  0.24684575  0.36073009  0.33159886  1
  H+  H239  1  -0.03215213  0.10980466  0.32668687  1
  H+  H240  1  0.98076416  0.36569380  0.17246339  1
  H+  H241  1  0.10569839  0.62773082  0.50065132  1
  H+  H242  1  0.62380574  0.59895789  0.32509082  1
  H+  H243  1  0.87919219  0.27314370  0.65718524  1
  H+  H244  1  0.01986702  0.60891750  0.67973897  1
  H+  H245  1  0.03464356  0.88810264  0.15098978  1
  H+  H246  1  0.36812502  0.40537472  0.15150990  1
  H+  H247  1  0.72452283  0.35408165  0.66404193  1
  H+  H248  1  0.99113248  0.53145479  0.88631412  1
  H+  H249  1  0.60722735  0.48061265  0.99946238  1
  H+  H250  1  0.28397434  0.39073223  0.82630801  1
  H+  H251  1  0.11239273  0.48154847  0.15686757  1
  H+  H252  1  0.51029076  0.85586736  0.16322214  1
  H+  H253  1  0.73232613  1.09831581  0.18157666  1
  H+  H254  1  0.36980014  0.48259160  0.34566679  1
  H+  H255  1  0.63667863  0.36235502  0.83700703  1
  H+  H256  1  0.62311844  -0.01084539  1.01264512  1
  H+  H257  1  0.13905915  0.02138945  0.65717155  1
  H+  H258  1  0.62871816  0.76427451  0.66699924  1
  H+  H259  1  0.46764661  0.37303456  0.16731691  1
  H+  H260  1  0.28005205  0.88213261  0.15129986  1
  H+  H261  1  0.34798755  0.41433397  0.76912494  1
  H+  H262  1  0.38907829  0.61879384  0.33119669  1
  H+  H263  1  0.48290589  0.63979496  0.17159894  1
  H+  H264  1  0.62200851  0.18116747  0.15728173  1
  H+  H265  1  0.41088736  0.59337787  0.90783183  1
  H+  H266  1  0.71787449  0.10717281  0.83753834  1
  H+  H267  1  0.88538125  0.11946615  0.98120375  1
  H+  H268  1  0.87991632  0.63741552  0.84467717  1
  H+  H269  1  0.61153275  0.90908156  0.17186250  1
  H+  H270  1  0.63842383  0.91410668  0.63591382  1
  H+  H271  1  0.47566572  0.86541805  0.49624864  1
  H+  H272  1  0.47842679  0.62101008  0.33091927  1
  H+  H273  1  0.98352355  0.55108602  0.29580119  1
  H+  H274  1  0.98713990  0.12223781  0.65294248  1
  H+  H275  1  0.13719493  0.36117771  0.50962278  1
  H+  H276  1  0.38507854  0.53998852  0.84315762  1
  H+  H277  1  0.23596099  0.11622211  0.82284837  1
  H+  H278  1  0.14871813  0.61118822  0.66757138  1
  H+  H279  1  0.38813772  0.02305768  0.83855156  1
  H+  H280  1  0.16337923  0.91817166  0.31232480  1
  H+  H281  1  0.86420952  0.22704740  0.49045922  1
  H+  H282  1  0.87991190  0.52162398  0.50413858  1
  H+  H283  1  0.38627425  1.01877805  0.51337566  1
  H+  H284  1  0.64244139  0.11923549  0.98787301  1
  H+  H285  1  0.35221302  0.60531782  0.00086734  1
  H+  H286  1  0.85478369  0.21869576  0.83558105  1
  H+  H287  1  0.60897455  0.22724439  0.67177175  1
  H+  H288  1  0.42717965  0.59151669  0.23130470  1
  H+  H289  1  0.16254320  0.55409883  0.93418003  1
  H+  H290  1  0.82463981  0.67448587  0.71512062  1
  H+  H291  1  0.91385665  0.83903703  0.59470725  1
  H+  H292  1  0.88952828  0.47622611  0.29369202  1
  H+  H293  1  0.10514902  0.18851097  0.75726622  1
  H+  H294  1  0.63939141  0.61623508  0.50445309  1
  H+  H295  1  0.73444873  0.12590707  0.98620021  1
  H+  H296  1  0.08384848  0.91506539  0.72643929  1
  H+  H297  1  0.15520524  0.08940800  0.23127753  1
  H+  H298  1  0.66364123  0.06560159  0.27514825  1
  H+  H299  1  0.17112122  0.07943612  0.59693934  1
  H+  H300  1  0.17530109  0.08735705  0.88113285  1
  H+  H301  1  0.58001754  0.15718896  0.40120893  1
  H+  H302  1  0.82940695  0.16346973  0.43233943  1
  H+  H303  1  0.88485898  0.26388484  0.32672498  1
  H+  H304  1  0.91912048  0.32722490  0.26835207  1
  H+  H305  1  0.62477332  0.81679533  0.89557350  1
  H+  H306  1  0.62888522  0.57543402  0.24656985  1
  H+  H307  1  0.58412417  0.71171573  0.81984325  1
  H+  H308  1  0.87439452  0.85357373  0.97596665  1
  H+  H309  1  0.91633310  0.57495380  0.59974180  1
  H+  H310  1  0.66499026  0.88051024  0.54137189  1
  H+  H311  1  0.83291542  0.41387503  0.73417561  1
  H+  H312  1  0.65950522  0.58853378  0.93291874  1
  H+  H313  1  0.13935181  0.43285844  0.74476591  1
  H+  H314  1  0.67075391  0.31631646  0.56652585  1
  H+  H315  1  0.57407750  0.43096968  0.08846614  1
  H+  H316  1  0.73028938  0.61787553  0.49282087  1
  H+  H317  1  0.38919013  0.10995248  0.50928691  1
  H+  H318  1  0.17003466  0.58205537  0.56770898  1
  H+  H319  1  0.33262747  0.67173608  0.43788715  1
  H+  H320  1  0.17347186  0.85197481  0.91036832  1
  H+  H321  1  0.12479044  0.14387603  0.66357102  1
  H+  H322  1  0.92525275  0.55916486  0.20848247  1
  H+  H323  1  0.39585223  0.58836293  0.56988212  1
  H+  H324  1  0.05085909  0.17589175  0.11261010  1
  H+  H325  1  0.58637692  0.91901860  0.06852115  1
  H+  H326  1  0.82038069  0.66467173  0.06772778  1
  H+  H327  1  0.91724864  0.57759379  0.94865209  1
  H+  H328  1  0.82404068  0.40137695  0.09315930  1
  H+  H329  1  0.34430837  0.16821576  0.75821216  1
  H+  H330  1  0.16381326  0.57897283  0.23505714  1
  H+  H331  1  0.26727657  0.88825402  1.00411802  1
  H+  H332  1  0.88863157  0.79246732  0.32731750  1
  H+  H333  1  0.08078319  0.65380753  0.73700150  1
  H+  H334  1  0.57544116  0.16326285  0.73127662  1
  H+  H335  1  0.41368913  0.83022863  0.27251674  1
  H+  H336  1  0.33666506  0.42091699  0.06601856  1
  H+  H337  1  0.08388822  0.68492465  0.06755535  1
  H+  H338  1  0.66443065  0.33523473  0.93451613  1
  H+  H339  1  0.08371173  0.41256495  0.43900909  1
  H+  H340  1  0.56423641  0.77367625  0.13688535  1
  H+  H341  1  0.17725536  0.33632975  0.89754929  1
  H+  H342  1  0.16676491  0.83520265  0.55980490  1
  H+  H343  1  0.32844602  0.91478996  0.77236751  1
  H+  H344  1  0.19513116  0.87477634  0.22417657  1
  H+  H345  1  0.85915129  0.13708744  0.15435869  1
  H+  H346  1  0.92483798  0.83201735  0.22504660  1
  H+  H347  1  0.58549862  0.15705621  0.05883855  1
  H+  H348  1  0.41694606  0.08642967  0.93107189  1
  H+  H349  1  0.33842210  0.92150077  0.40603428  1
  H+  H350  1  0.32324902  0.15996601  0.06200042  1
  H+  H351  1  0.15625263  0.33600522  0.23347751  1
  H+  H352  1  0.67904029  0.09880570  0.57101992  1
  H+  H353  1  0.81201524  0.90687315  0.37731995  1
  H+  H354  1  0.38278943  0.26701095  0.99227947  1
  H+  H355  1  0.40384856  0.33299791  0.26354599  1
  H+  H356  1  0.08036229  0.16280610  0.43863258  1
  H+  H357  1  0.42140325  0.84746066  0.89768746  1
  H+  H358  1  0.11486161  0.38291360  0.83515084  1
  H+  H359  1  0.33487433  0.15937623  0.43321642  1
  H+  H360  1  0.41565218  0.32689782  0.89417983  1
  H+  H361  1  0.13772388  0.26222398  0.98756620  1
  H+  H362  1  0.52224556  0.60577477  0.73047347  1
  H+  H363  1  0.76671853  0.37012126  0.33753604  1
  H+  H364  1  0.84121563  0.18584334  0.05641409  1
  H+  H365  1  0.45466278  0.85152417  0.61276862  1
  H+  H366  1  0.33883874  0.90650642  0.09071779  1
  H+  H367  1  0.94252758  0.83794066  0.88763133  1
  H+  H368  1  0.65602301  0.07609893  0.89393299  1
  H+  H369  1  0.84965094  0.63629043  0.15987308  1
  H+  H370  1  0.66537842  0.30920618  0.26953324  1
  H+  H371  1  0.90005739  0.32273718  0.55940551  1
  H+  H372  1  0.19668999  0.34819024  0.60080550  1
  H+  H373  1  0.07684010  0.13077971  0.03777616  1
  H+  H374  1  0.82915279  0.15121071  0.78044320  1
  H+  H375  1  0.56674884  0.41094865  0.42032227  1
  H+  H376  1  0.77481618  0.04470038  0.71675494  1
  H+  H377  1  0.82893317  0.70325088  0.43117674  1
  H+  H378  1  0.58194553  0.67936208  0.44571688  1
  H+  H379  1  0.58040471  0.70609358  0.09826212  1
  H+  H380  1  0.35941196  0.97625608  0.00238056  1
  H+  H381  1  0.36581842  0.88816059  0.50213912  1
  H+  H382  1  0.63611088  0.27313062  0.83695967  1
  H+  H383  1  0.86437460  0.97916350  0.82533226  1
  O2-  O384  1  0.06182376  0.16935802  0.15509542  1
  O2-  O385  1  0.08360735  0.16447486  0.48399836  1
  O2-  O386  1  0.11269679  0.19410329  0.80190017  1
  O2-  O387  1  0.08144345  0.41993990  0.14394763  1
  O2-  O388  1  0.08362565  0.41290796  0.48418396  1
  O2-  O389  1  0.07753473  0.40517862  0.81797214  1
  O2-  O390  1  0.10066017  0.68598111  0.15506128  1
  O2-  O391  1  0.07513038  0.65528599  0.48126289  1
  O2-  O392  1  0.08783254  0.68749767  0.81726473  1
  O2-  O393  1  0.09507958  0.92244812  0.13696824  1
  O2-  O394  1  0.07895585  0.91280513  0.47332923  1
  O2-  O395  1  0.09184497  0.92111092  0.80411700  1
  O2-  O396  1  0.31499469  0.17628154  0.14696981  1
  O2-  O397  1  0.33585973  0.15965336  0.47855046  1
  O2-  O398  1  0.34306057  0.16782675  0.80335832  1
  O2-  O399  1  0.34742615  0.43916103  0.12882831  1
  O2-  O400  1  0.33499584  0.41914900  0.48211205  1
  O2-  O401  1  0.34575169  0.41735564  0.81412612  1
  O2-  O402  1  0.33064685  0.66470083  0.15107294  1
  O2-  O403  1  0.33010795  0.67302635  0.48317483  1
  O2-  O404  1  0.33827076  0.68357131  0.82428678  1
  O2-  O405  1  0.34085144  0.90426425  0.13680617  1
  O2-  O406  1  0.33635367  0.91914147  0.48662594  1
  O2-  O407  1  0.33032605  0.91946826  0.81744850  1
  O2-  O408  1  0.58782272  0.12654821  0.13462946  1
  O2-  O409  1  0.58769722  0.15714213  0.47981688  1
  O2-  O410  1  0.58296670  0.16700172  0.80580517  1
  O2-  O411  1  0.57063290  0.43801388  0.13440169  1
  O2-  O412  1  0.56350460  0.41564584  0.46470271  1
  O2-  O413  1  0.58401648  0.41533550  0.80876997  1
  O2-  O414  1  0.57165565  0.72225582  0.14086595  1
  O2-  O415  1  0.57270482  0.68439669  0.48910479  1
  O2-  O416  1  0.59039832  0.66870334  0.79287594  1
  O2-  O417  1  0.56678424  0.87091335  0.14328904  1
  O2-  O418  1  0.56842535  0.92205845  0.43948912  1
  O2-  O419  1  0.56071266  0.91213962  0.79605001  1
  O2-  O420  1  0.83179012  0.17005705  0.13947369  1
  O2-  O421  1  0.83098896  0.16459467  0.47822098  1
  O2-  O422  1  0.82230791  0.15630874  0.82453940  1
  O2-  O423  1  0.82072673  0.39507119  0.14040190  1
  O2-  O424  1  0.83282028  0.41637943  0.47584049  1
  O2-  O425  1  0.83507321  0.41171105  0.81329118  1
  O2-  O426  1  0.81894795  0.66662905  0.14728185  1
  O2-  O427  1  0.82453643  0.66392770  0.51005058  1
  O2-  O428  1  0.80314756  0.71657290  0.78219420  1
  O2-  O429  1  0.83899316  0.91096058  0.15068718  1
  O2-  O430  1  0.82560453  0.91615934  0.46463517  1
  O2-  O431  1  0.84383259  0.92505217  0.80045799  1
  O2-  O432  1  0.15559259  0.09208115  0.18566971  1
  O2-  O433  1  0.16722613  0.07872293  0.51847675  1
  O2-  O434  1  0.17439691  0.08675606  0.83556644  1
  O2-  O435  1  0.14322228  0.32492301  0.18999236  1
  O2-  O436  1  0.17067845  0.33327597  0.52299566  1
  O2-  O437  1  0.17940598  0.34407011  0.85279726  1
  O2-  O438  1  0.16329461  0.58177952  0.18978296  1
  O2-  O439  1  0.16457265  0.57931560  0.52248494  1
  O2-  O440  1  0.15312513  0.58479623  0.83332262  1
  O2-  O441  1  0.18519849  0.85301522  0.18076743  1
  O2-  O442  1  0.16646350  0.83365581  0.51343918  1
  O2-  O443  1  0.17117484  0.84742003  0.86544275  1
  O2-  O444  1  0.42549617  0.05756947  0.17977497  1
  O2-  O445  1  0.41898250  0.08065971  0.52773580  1
  O2-  O446  1  0.42145655  0.08481377  0.85239538  1
  O2-  O447  1  0.40904941  0.34386223  0.18547294  1
  O2-  O448  1  0.41335554  0.32574406  0.51638330  1
  O2-  O449  1  0.41909358  0.32951935  0.84908735  1
  O2-  O450  1  0.42532700  0.59342832  0.18641553  1
  O2-  O451  1  0.40445996  0.58376536  0.52520158  1
  O2-  O452  1  0.41014990  0.59847913  0.85905548  1
  O2-  O453  1  0.41450676  0.82241029  0.19397657  1
  O2-  O454  1  0.42669718  0.84073688  0.52491129  1
  O2-  O455  1  0.41385409  0.84440721  0.85146754  1
  O2-  O456  1  0.67480151  0.05829763  0.19898987  1
  O2-  O457  1  0.67800610  0.09509461  0.52237625  1
  O2-  O458  1  0.65496116  0.07754878  0.84859662  1
  O2-  O459  1  0.67249926  0.28397297  0.19102256  1
  O2-  O460  1  0.66927229  0.30973976  0.52169849  1
  O2-  O461  1  0.66674261  0.33271776  0.85385149  1
  O2-  O462  1  0.65667783  0.59908937  0.18768489  1
  O2-  O463  1  0.66514626  0.58930842  0.47994979  1
  O2-  O464  1  0.65813594  0.58469258  0.85065582  1
  O2-  O465  1  0.70656744  0.79670977  0.20823740  1
  O2-  O466  1  0.65733564  0.85887936  0.49813330  1
  O2-  O467  1  0.60485921  0.79876879  0.85353743  1
  O2-  O468  1  0.89786308  0.07627110  0.19115963  1
  O2-  O469  1  0.91408197  0.07809617  0.51585058  1
  O2-  O470  1  0.90802688  0.06652411  0.87064702  1
  O2-  O471  1  0.92097623  0.33271534  0.18958270  1
  O2-  O472  1  0.91225364  0.32868943  0.51449492  1
  O2-  O473  1  0.90731994  0.32412331  0.85687885  1
  O2-  O474  1  0.91419001  0.58544316  0.17052480  1
  O2-  O475  1  0.91182909  0.58028968  0.52244086  1
  O2-  O476  1  0.95154403  0.55139366  0.87531814  1
  O2-  O477  1  0.92547658  0.82978790  0.17957042  1
  O2-  O478  1  0.91050043  0.83362865  0.51406427  1
  O2-  O479  1  0.93402337  0.84023565  0.84402998  1
  O2-  O480  1  0.16039397  0.08947443  0.30990615  1
  O2-  O481  1  0.17487713  0.08225449  0.64246093  1
  O2-  O482  1  0.16843720  0.07804248  0.95698681  1
  O2-  O483  1  0.19220705  0.31654170  0.31015582  1
  O2-  O484  1  0.20942148  0.34726399  0.64484459  1
  O2-  O485  1  0.17034502  0.32532682  0.97963895  1
  O2-  O486  1  0.17135886  0.57174423  0.31508518  1
  O2-  O487  1  0.18711041  0.59145844  0.64721713  1
  O2-  O488  1  0.15598870  0.54674270  0.97807378  1
  O2-  O489  1  0.21367436  0.92530194  0.28901711  1
  O2-  O490  1  0.17226068  0.84115897  0.63244626  1
  O2-  O491  1  0.16475760  0.84982684  0.99542734  1
  O2-  O492  1  0.41760164  0.08160895  0.30974811  1
  O2-  O493  1  0.42509245  0.08983482  0.64387173  1
  O2-  O494  1  0.41549449  0.08688758  0.97667104  1
  O2-  O495  1  0.40528121  0.32602205  0.30864926  1
  O2-  O496  1  0.42418686  0.31411897  0.63766357  1
  O2-  O497  1  0.40988739  0.32765526  0.97727015  1
  O2-  O498  1  0.41965568  0.58774302  0.31591552  1
  O2-  O499  1  0.36963015  0.59824394  0.64353037  1
  O2-  O500  1  0.41203635  0.58686877  0.97239377  1
  O2-  O501  1  0.40891597  0.82943686  0.31803336  1
  O2-  O502  1  0.45279157  0.85281488  0.65804220  1
  O2-  O503  1  0.42665087  0.84896373  0.96888861  1
  O2-  O504  1  0.66107936  0.06943972  0.32082363  1
  O2-  O505  1  0.67508109  0.09982456  0.63463829  1
  O2-  O506  1  0.67265827  0.08809508  0.97509758  1
  O2-  O507  1  0.65990808  0.32104352  0.31284134  1
  O2-  O508  1  0.66434121  0.32127491  0.64771625  1
  O2-  O509  1  0.66194781  0.33667192  0.97994728  1
  O2-  O510  1  0.59842453  0.55295619  0.29066683  1
  O2-  O511  1  0.65770958  0.57325544  0.64252495  1
  O2-  O512  1  0.65837894  0.58493906  0.97817472  1
  O2-  O513  1  0.68123465  0.84613163  0.24758221  1
  O2-  O514  1  0.68765957  0.92276120  0.61095448  1
  O2-  O515  1  0.66423979  0.84590720  0.97507628  1
  O2-  O516  1  0.90709615  0.08127711  0.31243687  1
  O2-  O517  1  0.92577981  0.08988861  0.63943021  1
  O2-  O518  1  0.89915075  0.07305748  0.97443356  1
  O2-  O519  1  0.91893175  0.32561700  0.31394051  1
  O2-  O520  1  0.85669312  0.29861890  0.62896214  1
  O2-  O521  1  0.91781849  0.36186759  0.97396918  1
  O2-  O522  1  0.93773863  0.51615776  0.26663559  1
  O2-  O523  1  0.91577341  0.57381981  0.64547386  1
  O2-  O524  1  0.91012120  0.58719020  0.99208876  1
  O2-  O525  1  0.91862341  0.84443034  0.30175087  1
  O2-  O526  1  0.91191799  0.83556790  0.64007471  1
  O2-  O527  1  0.89705038  0.84216692  1.01286050  1
  O2-  O528  1  0.08368774  0.15138660  -0.00386373  1
  O2-  O529  1  0.07188313  0.15889812  0.35943048  1
  O2-  O530  1  0.09596148  0.17690118  0.67485218  1
  O2-  O531  1  0.08256986  0.39741059  0.02268004  1
  O2-  O532  1  0.08120244  0.40380816  0.35638858  1
  O2-  O533  1  0.18231075  0.45419010  0.71162107  1
  O2-  O534  1  0.06808368  0.68632682  0.02497102  1
  O2-  O535  1  0.05759041  0.61006996  0.36466424  1
  O2-  O536  1  0.07338326  0.61943075  0.70022706  1
  O2-  O537  1  0.06570606  0.91137155  -0.04177855  1
  O2-  O538  1  0.08086320  0.92826958  0.34963525  1
  O2-  O539  1  0.08264149  0.91741552  0.68097607  1
  O2-  O540  1  0.32741231  0.16125318  0.01717135  1
  O2-  O541  1  0.32679677  0.15878317  0.35073705  1
  O2-  O542  1  0.33885095  0.15619741  0.67682719  1
  O2-  O543  1  0.32572320  0.40207307  0.01911945  1
  O2-  O544  1  0.34140918  0.42204034  0.36035718  1
  O2-  O545  1  0.37036429  0.41076275  0.69014809  1
  O2-  O546  1  0.30571303  0.61911892  0.02101511  1
  O2-  O547  1  0.33609032  0.66482608  0.35766191  1
  O2-  O548  1  0.27301029  0.66447843  0.64928112  1
  O2-  O549  1  0.33070881  0.91587047  0.01681596  1
  O2-  O550  1  0.34036938  0.92531876  0.36071873  1
  O2-  O551  1  0.33873925  0.91387038  0.69058381  1
  O2-  O552  1  0.58259820  0.16589114  0.01428179  1
  O2-  O553  1  0.58155667  0.15985841  0.35570100  1
  O2-  O554  1  0.57318926  0.16414496  0.68503942  1
  O2-  O555  1  0.57731378  0.42031638  0.01631523  1
  O2-  O556  1  0.57390986  0.40919287  0.33394556  1
  O2-  O557  1  0.58597810  0.40639497  0.68390919  1
  O2-  O558  1  0.59169408  0.68717225  0.02752935  1
  O2-  O559  1  0.65301799  0.65790645  0.37890972  1
  O2-  O560  1  0.50097740  0.57869562  0.68996772  1
  O2-  O561  1  0.59056988  0.92698571  0.02375104  1
  O2-  O562  1  0.56951456  0.91051837  0.37316304  1
  O2-  O563  1  0.54284465  0.91163708  0.67452764  1
  O2-  O564  1  0.84269133  0.18862179  0.01118211  1
  O2-  O565  1  0.82735882  0.16301973  0.35633762  1
  O2-  O566  1  0.80582297  0.10427679  0.70297392  1
  O2-  O567  1  0.82520656  0.41134367  0.02402212  1
  O2-  O568  1  0.82841391  0.40271104  0.34994732  1
  O2-  O569  1  0.82751089  0.41164550  0.68883852  1
  O2-  O570  1  0.82454930  0.67026068  0.02240431  1
  O2-  O571  1  0.83248382  0.74421712  0.39947550  1
  O2-  O572  1  0.82665008  0.66102109  0.67152284  1
  O2-  O573  1  0.81802311  0.90599476  0.08573735  1
  O2-  O574  1  0.81921791  0.91252645  0.33261822  1
  O2-  O575  1  0.83343632  0.92874422  0.67994778  1
