# generated using pymatgen
data_H2O
_symmetry_space_group_name_H-M   'P 1'
_cell_length_a   17.99440318
_cell_length_b   17.99594941
_cell_length_c   22.00610174
_cell_angle_alpha   90.03364018
_cell_angle_beta   89.98150222
_cell_angle_gamma   120.01537648
_symmetry_Int_Tables_number   1
_chemical_formula_structural   H2O
_chemical_formula_sum   'H384 O192'
_cell_volume   6170.47464023
_cell_formula_units_Z   192
loop_
 _symmetry_equiv_pos_site_id
 _symmetry_equiv_pos_as_xyz
  1  'x, y, z'
loop_
 _atom_type_symbol
 _atom_type_oxidation_number
  H+  1.0
  O2-  -2.0
loop_
 _atom_site_type_symbol
 _atom_site_label
 _atom_site_symmetry_multiplicity
 _atom_site_fract_x
 _atom_site_fract_y
 _atom_site_fract_z
 _atom_site_occupancy
  H+  H0  1  0.88323128  0.77056020  0.66071885  1
  H+  H1  1  0.58762634  0.68439810  0.09911692  1
  H+  H2  1  0.64293950  0.75469289  0.00464908  1
  H+  H3  1  0.11892243  0.21848791  0.00991746  1
  H+  H4  1  0.11251461  0.38810179  0.16610633  1
  H+  H5  1  0.88471444  0.12562061  0.83969785  1
  H+  H6  1  0.29553494  0.20584513  0.76000741  1
  H+  H7  1  0.98670653  0.11662074  0.99327507  1
  H+  H8  1  0.78202718  0.14327291  -0.00254665  1
  H+  H9  1  0.24968587  0.89299662  0.35796376  1
  H+  H10  1  0.58978119  0.22003289  0.01985973  1
  H+  H11  1  0.54838725  0.88680746  0.32065170  1
  H+  H12  1  0.38088264  0.02911083  0.34016539  1
  H+  H13  1  0.89783183  0.85677816  0.83660892  1
  H+  H14  1  0.87026313  0.13579937  0.00111273  1
  H+  H15  1  0.11336832  0.88177168  0.00730611  1
  H+  H16  1  0.89718778  0.03052270  0.50920829  1
  H+  H17  1  0.37079651  0.38777937  0.68099759  1
  H+  H18  1  0.36731037  0.73869263  1.00908924  1
  H+  H19  1  0.61420650  0.47905391  0.65243469  1
  H+  H20  1  0.75011436  0.87590855  0.84583146  1
  H+  H21  1  0.35076101  0.49484070  0.14673904  1
  H+  H22  1  0.98895162  0.85984627  0.51741059  1
  H+  H23  1  0.47382871  0.85942276  0.65423296  1
  H+  H24  1  0.98388183  0.38223575  0.50533448  1
  H+  H25  1  0.86696580  0.50934167  0.65858964  1
  H+  H26  1  1.00015597  0.36606023  0.84484586  1
  H+  H27  1  0.14444304  0.03021535  0.16444665  1
  H+  H28  1  0.58493260  0.37776149  0.50233487  1
  H+  H29  1  0.91400919  0.37091190  0.85834645  1
  H+  H30  1  0.45361076  0.12267859  1.01213888  1
  H+  H31  1  0.89762936  0.53006912  0.36861791  1
  H+  H32  1  0.87964274  0.49592858  0.50330606  1
  H+  H33  1  0.39946162  0.69777945  0.38330000  1
  H+  H34  1  0.63589680  0.87917842  -0.01600763  1
  H+  H35  1  0.78040719  0.12756691  0.34240257  1
  H+  H36  1  0.24955553  0.88196077  0.53071313  1
  H+  H37  1  0.93086503  0.37057568  0.65726890  1
  H+  H38  1  0.14690899  0.27496388  0.66074667  1
  H+  H39  1  0.67115367  0.33286762  0.22641411  1
  H+  H40  1  0.02590935  0.11771409  0.34330971  1
  H+  H41  1  0.38633262  0.52994490  0.30786778  1
  H+  H42  1  0.90072868  0.11481173  0.32540215  1
  H+  H43  1  0.64178300  1.04064421  -0.00716184  1
  H+  H44  1  0.35106083  0.72653908  0.50292064  1
  H+  H45  1  0.58648674  0.20996751  0.82617641  1
  H+  H46  1  0.71847648  0.10811427  0.66499469  1
  H+  H47  1  0.99056742  0.11121931  0.17203545  1
  H+  H48  1  0.54610161  0.36052030  0.78311870  1
  H+  H49  1  0.86730106  0.88991016  0.67208525  1
  H+  H50  1  0.38411468  0.62765590  0.16439039  1
  H+  H51  1  0.47570531  0.62972939  0.15969947  1
  H+  H52  1  1.02567329  0.39304860  0.16568200  1
  H+  H53  1  0.35552982  0.87574019  0.66557505  1
  H+  H54  1  0.10701239  0.88965557  0.16095743  1
  H+  H55  1  0.64027089  0.78906492  0.70767762  1
  H+  H56  1  0.42695019  0.87590827  0.31293759  1
  H+  H57  1  0.39540082  0.25710686  0.16409372  1
  H+  H58  1  0.46336142  0.81243914  0.15524806  1
  H+  H59  1  0.36126203  1.02557283  0.01110568  1
  H+  H60  1  0.13915802  0.38758271  0.67831088  1
  H+  H61  1  0.37580991  0.00049556  0.65929065  1
  H+  H62  1  0.08801619  0.16727947  0.10027326  1
  H+  H63  1  0.72364260  0.36249107  0.64457064  1
  H+  H64  1  0.41015971  0.78005185  0.31115945  1
  H+  H65  1  0.72292428  0.40286843  0.49941480  1
  H+  H66  1  0.12143656  0.19489666  0.35413150  1
  H+  H67  1  0.17675106  0.33663691  0.60185943  1
  H+  H68  1  0.60049859  0.12105735  0.67076955  1
  H+  H69  1  0.11928634  0.12918520  0.00786996  1
  H+  H70  1  0.83047083  0.63659446  0.00076590  1
  H+  H71  1  0.36675003  0.48812894  0.83325542  1
  H+  H72  1  0.53387750  0.65915168  0.67783550  1
  H+  H73  1  0.27791992  0.63714762  0.67883126  1
  H+  H74  1  0.37145931  1.01734976  0.52038768  1
  H+  H75  1  0.14036633  0.27114791  0.83146270  1
  H+  H76  1  0.85439575  0.38380154  0.34282489  1
  H+  H77  1  0.39219233  0.38230365  0.86416161  1
  H+  H78  1  0.24364224  0.36938859  0.83773834  1
  H+  H79  1  0.35140247  0.15213992  0.09285500  1
  H+  H80  1  0.64659236  0.90655579  0.15436290  1
  H+  H81  1  0.63576189  0.03170234  0.84465227  1
  H+  H82  1  0.14267414  0.61319295  0.84086719  1
  H+  H83  1  0.88573592  0.76178376  0.83470692  1
  H+  H84  1  0.71611919  0.61195811  0.18555691  1
  H+  H85  1  0.65245073  0.03269047  0.17460637  1
  H+  H86  1  0.12848023  0.77302628  0.17728540  1
  H+  H87  1  0.12332655  0.88210760  0.53677458  1
  H+  H88  1  0.15800618  0.61137111  -0.00548727  1
  H+  H89  1  0.13725554  0.27420112  0.50840203  1
  H+  H90  1  0.14240347  0.52160767  0.67298161  1
  H+  H91  1  0.79134873  0.15556136  0.49418957  1
  H+  H92  1  0.70386859  0.60254968  0.98868959  1
  H+  H93  1  0.17905085  0.57781434  0.93335825  1
  H+  H94  1  0.88227062  0.77705169  0.99250764  1
  H+  H95  1  0.11362801  0.13832687  0.67976885  1
  H+  H96  1  0.82972631  0.18262386  0.08876486  1
  H+  H97  1  -0.00292415  0.84091788  0.41124252  1
  H+  H98  1  0.94249747  0.63555478  1.00530778  1
  H+  H99  1  0.25636004  0.63038895  0.15626787  1
  H+  H100  1  0.59790622  0.22350317  0.49874847  1
  H+  H101  1  0.78083130  0.22770798  0.11058827  1
  H+  H102  1  0.89648468  0.12023944  0.50836904  1
  H+  H103  1  0.52440392  0.63166101  0.31519464  1
  H+  H104  1  0.88964056  0.00309895  0.16378682  1
  H+  H105  1  0.63275027  0.01802941  0.65029582  1
  H+  H106  1  0.10487230  0.29886069  0.31981746  1
  H+  H107  1  0.73693686  0.61212566  0.48676573  1
  H+  H108  1  0.33353950  0.98007602  0.80927833  1
  H+  H109  1  0.64136393  0.59826173  0.48591249  1
  H+  H110  1  0.73041166  0.12770354  0.17505155  1
  H+  H111  1  0.12029952  0.48412174  0.50383275  1
  H+  H112  1  0.27037739  0.13772728  0.50672549  1
  H+  H113  1  0.38392011  0.35160373  0.51800083  1
  H+  H114  1  0.11279357  0.96913723  0.67335359  1
  H+  H115  1  0.34052314  0.67119385  0.73598558  1
  H+  H116  1  0.58551703  0.86542435  0.52006399  1
  H+  H117  1  0.90825178  0.58223820  0.20207575  1
  H+  H118  1  0.86395190  0.23255413  0.82925666  1
  H+  H119  1  0.17744660  0.09022977  0.61852041  1
  H+  H120  1  0.17754918  0.03280270  0.31261403  1
  H+  H121  1  0.72736690  0.60251686  0.64650751  1
  H+  H122  1  0.59245333  0.38071328  0.00843933  1
  H+  H123  1  0.13467124  0.85300603  0.83807545  1
  H+  H124  1  0.86491178  0.99212034  0.00826472  1
  H+  H125  1  0.72534858  0.35960803  0.32689252  1
  H+  H126  1  0.28479570  0.64319785  0.00480292  1
  H+  H127  1  0.64173451  0.10878168  0.33394445  1
  H+  H128  1  0.85161113  0.76520563  0.30853723  1
  H+  H129  1  0.70061686  0.72674006  0.03858275  1
  H+  H130  1  0.32245611  0.67598394  0.09742157  1
  H+  H131  1  0.33356062  0.16808918  0.44413226  1
  H+  H132  1  1.01850053  0.62755606  0.67648806  1
  H+  H133  1  0.22313448  0.61067456  0.52283640  1
  H+  H134  1  0.86479048  0.63460384  0.82585929  1
  H+  H135  1  0.11698167  0.73436169  0.52925091  1
  H+  H136  1  0.88200521  0.23702376  0.48537549  1
  H+  H137  1  0.63539551  0.27049641  0.16986641  1
  H+  H138  1  0.39389559  0.61762370  0.99537015  1
  H+  H139  1  0.11309909  0.63758289  0.16309051  1
  H+  H140  1  0.61363637  0.89387160  0.83808443  1
  H+  H141  1  0.84866448  0.22139235  0.67004077  1
  H+  H142  1  0.52706498  0.13344021  0.34333099  1
  H+  H143  1  0.33257765  0.89099110  0.37841944  1
  H+  H144  1  0.38538286  0.76968641  0.66225491  1
  H+  H145  1  0.22615301  0.85955113  0.83649678  1
  H+  H146  1  0.82932904  0.40939221  0.91031272  1
  H+  H147  1  0.60943620  0.13212299  0.16737376  1
  H+  H148  1  0.25485609  0.89642777  0.16519193  1
  H+  H149  1  0.63783998  0.52276218  0.83391995  1
  H+  H150  1  0.84014760  0.48129680  0.99813385  1
  H+  H151  1  0.29111621  0.15297786  0.35211417  1
  H+  H152  1  0.61375248  0.38477606  0.15383233  1
  H+  H153  1  0.95126308  0.83365311  0.31514501  1
  H+  H154  1  0.12241524  0.47525165  0.01009087  1
  H+  H155  1  0.04155727  0.93353975  0.38499356  1
  H+  H156  1  0.37421504  0.14513082  0.35783113  1
  H+  H157  1  0.77209942  0.38412184  0.14937560  1
  H+  H158  1  0.14002032  0.11410304  0.52305738  1
  H+  H159  1  0.99261859  0.62101638  0.51706589  1
  H+  H160  1  0.38623576  0.60380230  0.50856983  1
  H+  H161  1  0.13192286  0.52143634  0.18319218  1
  H+  H162  1  0.65865519  0.14005703  0.50933440  1
  H+  H163  1  0.52664220  0.90276559  0.00448403  1
  H+  H164  1  0.02762181  0.16294416  0.82689069  1
  H+  H165  1  0.52464349  0.25414707  0.88608113  1
  H+  H166  1  0.38682319  0.64615539  0.32236561  1
  H+  H167  1  0.15373841  0.77877416  -0.00784082  1
  H+  H168  1  0.88188114  0.51907858  0.14640649  1
  H+  H169  1  0.59325706  0.47048991  1.00200769  1
  H+  H170  1  0.38815194  0.52653587  0.98794711  1
  H+  H171  1  0.25032838  0.63871327  0.33477246  1
  H+  H172  1  0.27632434  0.45685064  0.09971180  1
  H+  H173  1  0.04713370  0.37470400  0.68632161  1
  H+  H174  1  0.13766774  0.27395345  0.17542286  1
  H+  H175  1  0.04156356  0.64335279  0.37557347  1
  H+  H176  1  0.78513154  0.62860111  0.31452608  1
  H+  H177  1  0.39233630  0.61514935  0.66065137  1
  H+  H178  1  0.64822860  0.47398998  0.48436331  1
  H+  H179  1  0.87536703  0.89685556  0.14970772  1
  H+  H180  1  0.62572952  0.11394471  0.83889026  1
  H+  H181  1  0.83773575  0.34534074  0.64127545  1
  H+  H182  1  0.89994794  0.61617398  0.51504971  1
  H+  H183  1  0.22806083  0.36125471  0.50768110  1
  H+  H184  1  0.15080326  1.00033676  0.84077553  1
  H+  H185  1  0.85330768  0.63887271  0.14437432  1
  H+  H186  1  0.27065764  0.90026496  1.00758926  1
  H+  H187  1  0.26136600  0.40198133  0.34294406  1
  H+  H188  1  0.47981703  0.35432868  0.31689731  1
  H+  H189  1  0.37065372  0.24652120  0.51349134  1
  H+  H190  1  0.45191198  0.83280834  0.12961554  1
  H+  H191  1  0.15228931  0.37233729  0.84147794  1
  H+  H192  1  1.02363415  0.86998646  0.82153440  1
  H+  H193  1  0.56965808  0.15505210  0.10928340  1
  H+  H194  1  0.87109612  0.89168004  0.33263401  1
  H+  H195  1  0.47392151  0.35782574  0.66332731  1
  H+  H196  1  0.97678241  0.86762735  0.16046542  1
  H+  H197  1  0.14370397  0.01564461  0.99391291  1
  H+  H198  1  0.32309029  0.74691023  0.17177880  1
  H+  H199  1  0.32660765  0.84839683  0.17679481  1
  H+  H200  1  0.12361402  0.14314374  0.15847018  1
  H+  H201  1  0.41634879  0.58857254  0.24570806  1
  H+  H202  1  0.60049033  0.25427008  0.64829244  1
  H+  H203  1  0.38532308  0.26904332  0.67814642  1
  H+  H204  1  0.85557130  0.72883187  0.14986957  1
  H+  H205  1  0.47319457  0.36827950  0.96198384  1
  H+  H206  1  0.58920434  0.88453765  0.61504417  1
  H+  H207  1  0.62965709  0.97633028  0.33683855  1
  H+  H208  1  0.82758293  0.40846524  0.40548044  1
  H+  H209  1  0.65295830  0.86287151  0.32508630  1
  H+  H210  1  0.37871969  0.87345437  0.84020151  1
  H+  H211  1  0.40686777  0.37762599  0.30361585  1
  H+  H212  1  0.89621440  0.02340509  0.32591016  1
  H+  H213  1  0.60461508  0.36511489  0.33347953  1
  H+  H214  1  0.22237143  0.11209636  0.68468915  1
  H+  H215  1  0.86476060  0.39126351  0.15122422  1
  H+  H216  1  0.41016109  0.07345423  0.60178792  1
  H+  H217  1  0.77123287  0.90723975  0.00919224  1
  H+  H218  1  0.47516109  0.09633670  0.66429631  1
  H+  H219  1  0.78486259  0.89249437  0.33905164  1
  H+  H220  1  0.89049663  0.28941186  0.16495733  1
  H+  H221  1  0.17491929  0.83653728  0.93219280  1
  H+  H222  1  0.02288073  0.88092692  0.66757082  1
  H+  H223  1  0.58833417  0.13200781  0.01106058  1
  H+  H224  1  0.60305421  0.34467188  0.64778470  1
  H+  H225  1  0.02670791  0.14330090  0.67321120  1
  H+  H226  1  0.28501153  0.39132556  0.67898128  1
  H+  H227  1  0.67716733  0.57327992  0.58261838  1
  H+  H228  1  0.61318896  0.63418352  0.83311726  1
  H+  H229  1  0.38683065  0.10831897  0.90098835  1
  H+  H230  1  0.74196334  0.87384277  0.17106004  1
  H+  H231  1  0.46652187  0.87238600  0.84655184  1
  H+  H232  1  0.11422649  0.85013926  0.33926427  1
  H+  H233  1  0.13319712  0.77358995  0.34272053  1
  H+  H234  1  0.23481939  0.61873301  0.83999409  1
  H+  H235  1  0.39969896  0.53072461  0.66302995  1
  H+  H236  1  0.33413174  0.14597640  0.75809313  1
  H+  H237  1  0.13171780  0.85563531  0.64164248  1
  H+  H238  1  0.13879214  0.35273185  1.00660662  1
  H+  H239  1  0.95800677  0.97989494  0.80407529  1
  H+  H240  1  0.85772328  0.25374682  0.32148708  1
  H+  H241  1  0.02541554  0.63679851  0.14801490  1
  H+  H242  1  0.77292222  0.63028244  0.82592229  1
  H+  H243  1  0.48759782  0.35507797  0.16440876  1
  H+  H244  1  0.14554092  0.09928038  0.32484717  1
  H+  H245  1  0.47461918  0.61821483  0.84385730  1
  H+  H246  1  0.87151649  0.98241779  0.67249110  1
  H+  H247  1  0.83979502  -0.06395031  0.09266263  1
  H+  H248  1  0.51515045  0.13220599  0.49957508  1
  H+  H249  1  0.68432326  0.85010301  0.79146021  1
  H+  H250  1  0.13040166  0.48369775  0.83360411  1
  H+  H251  1  0.37015420  0.46950120  0.50223916  1
  H+  H252  1  0.92075865  0.61534578  0.33503273  1
  H+  H253  1  0.49483733  0.88470748  0.47999446  1
  H+  H254  1  0.12130011  0.72694367  0.82868405  1
  H+  H255  1  0.35277052  0.97797817  0.16957945  1
  H+  H256  1  0.38688572  0.10859817  0.17863964  1
  H+  H257  1  0.87992459  0.89792905  0.49386635  1
  H+  H258  1  0.90508885  0.53797686  0.85659603  1
  H+  H259  1  0.51568714  0.39152132  0.83950182  1
  H+  H260  1  0.36837104  0.64754815  0.83153000  1
  H+  H261  1  0.00061898  0.36116764  0.00094350  1
  H+  H262  1  0.23884212  0.09657879  0.99324425  1
  H+  H263  1  0.11871561  0.64430193  0.51950997  1
  H+  H264  1  0.36661457  0.38716859  -0.01626777  1
  H+  H265  1  0.86215265  0.63383876  0.67196967  1
  H+  H266  1  0.12222999  0.41652000  0.34245496  1
  H+  H267  1  0.05723217  0.63361120  0.00436542  1
  H+  H268  1  0.38078584  0.11131322  0.51823931  1
  H+  H269  1  0.88341574  0.64651119  0.42684902  1
  H+  H270  1  0.61930671  0.72559695  0.83544126  1
  H+  H271  1  0.90109995  0.77433063  0.49839584  1
  H+  H272  1  0.16150846  0.64011672  0.34643460  1
  H+  H273  1  0.02565907  0.13640652  0.50607724  1
  H+  H274  1  0.35853221  0.85398567  0.51553050  1
  H+  H275  1  0.85291782  0.92946215  0.43504566  1
  H+  H276  1  0.71480886  0.64946595  0.33486369  1
  H+  H277  1  0.52408931  0.61683523  0.48168949  1
  H+  H278  1  0.60776872  0.73840924  0.15942980  1
  H+  H279  1  0.22610437  0.35291321  -0.00514538  1
  H+  H280  1  0.36258681  0.73480614  0.83103775  1
  H+  H281  1  0.63207528  0.52204561  0.18801195  1
  H+  H282  1  0.27686519  1.07021202  0.83930584  1
  H+  H283  1  0.88794883  0.11594140  0.66323766  1
  H+  H284  1  0.59502698  0.33973283  0.85837470  1
  H+  H285  1  0.14529757  0.02714954  0.52992322  1
  H+  H286  1  0.62368942  0.60232557  0.27202773  1
  H+  H287  1  0.64198050  0.26500787  0.32505134  1
  H+  H288  1  0.65256948  0.77371651  0.31752441  1
  H+  H289  1  0.32270935  0.92986018  0.07155227  1
  H+  H290  1  0.64481714  0.83317862  0.55049910  1
  H+  H291  1  0.26594289  0.87633225  0.65684534  1
  H+  H292  1  0.92035804  0.08917112  0.60360422  1
  H+  H293  1  0.91195095  0.82777937  0.60077105  1
  H+  H294  1  0.94531606  0.32923005  0.93255910  1
  H+  H295  1  0.92764774  0.09516551  0.93285060  1
  H+  H296  1  0.08553974  0.18417467  0.76573520  1
  H+  H297  1  0.79472494  0.27409485  0.28583158  1
  H+  H298  1  0.38863139  0.87964596  0.00000791  1
  H+  H299  1  0.65957601  0.57510857  0.89623461  1
  H+  H300  1  0.29365515  0.91377135  0.46384212  1
  H+  H301  1  0.42474298  0.32369297  0.22936061  1
  H+  H302  1  0.87993837  0.39690153  0.49990584  1
  H+  H303  1  0.08795733  0.42176236  0.07352180  1
  H+  H304  1  0.15747958  0.34917580  0.26159531  1
  H+  H305  1  0.47244149  0.10385373  0.18399613  1
  H+  H306  1  0.90276260  0.26289138  -0.00600567  1
  H+  H307  1  0.41349026  0.58940473  0.90219442  1
  H+  H308  1  0.57611293  0.41521419  0.09801778  1
  H+  H309  1  0.10511794  0.71654983  0.66604599  1
  H+  H310  1  0.62206995  0.60897734  0.98534914  1
  H+  H311  1  0.08366236  0.90074452  0.76154011  1
  H+  H312  1  0.55880373  0.90425845  0.14878921  1
  H+  H313  1  0.13993886  0.51735334  0.35338554  1
  H+  H314  1  0.42162782  0.57984103  0.56687648  1
  H+  H315  1  0.68834834  0.11379920  0.56939396  1
  H+  H316  1  0.40570782  0.31313568  0.58032737  1
  H+  H317  1  0.76926182  0.14794286  0.82859583  1
  H+  H318  1  0.61611795  0.89188541  0.68323242  1
  H+  H319  1  0.91596803  0.57562901  0.60644439  1
  H+  H320  1  0.92538919  0.82717082  0.93167581  1
  H+  H321  1  0.11847739  0.39270631  0.49605520  1
  H+  H322  1  0.58496522  0.16504518  0.40228540  1
  H+  H323  1  0.80295111  0.39561253  0.84099088  1
  H+  H324  1  0.41270468  0.08199382  0.27781097  1
  H+  H325  1  0.28559746  0.13594959  0.14894378  1
  H+  H326  1  0.50143064  0.12593391  0.82310194  1
  H+  H327  1  0.10494159  0.67014829  0.06752434  1
  H+  H328  1  0.11547885  0.91800574  0.47131155  1
  H+  H329  1  0.34411695  0.40749189  0.44467828  1
  H+  H330  1  0.87648983  0.94105040  0.76097749  1
  H+  H331  1  0.73370301  0.87714643  0.70442294  1
  H+  H332  1  0.34583450  0.42475546  0.77550153  1
  H+  H333  1  0.18406586  0.09313750  0.22153511  1
  H+  H334  1  0.90132638  0.04575540  0.83734037  1
  H+  H335  1  0.58111144  0.39323682  0.39477537  1
  H+  H336  1  0.86158426  0.61193980  0.26622450  1
  H+  H337  1  0.82612723  0.41094899  0.04588406  1
  H+  H338  1  0.16752022  0.58876009  0.23956515  1
  H+  H339  1  0.92915728  0.07694072  0.23286077  1
  H+  H340  1  0.13507885  0.60795654  0.67054329  1
  H+  H341  1  0.08446731  0.15194372  0.44793592  1
  H+  H342  1  0.32068436  0.91248550  0.75790634  1
  H+  H343  1  0.57847633  0.91444276  0.77996869  1
  H+  H344  1  0.30649328  0.47983709  0.38675738  1
  H+  H345  1  0.84565783  0.16719407  0.39837524  1
  H+  H346  1  0.68305136  0.84555982  0.23076755  1
  H+  H347  1  0.16260478  0.57605298  0.58170962  1
  H+  H348  1  0.80496330  0.66496800  0.06247960  1
  H+  H349  1  0.99052791  0.62767516  0.84466641  1
  H+  H350  1  0.11008183  0.68633151  0.42685523  1
  H+  H351  1  0.90337377  0.65509589  0.26659575  1
  H+  H352  1  0.82923319  0.17064849  0.73316089  1
  H+  H353  1  0.34625219  0.41101996  0.04960019  1
  H+  H354  1  0.36993426  0.81534215  0.23170444  1
  H+  H355  1  0.67383617  0.08519464  0.27270044  1
  H+  H356  1  0.62889261  0.31094020  0.95041997  1
  H+  H357  1  0.10467498  0.42112666  0.77523949  1
  H+  H358  1  0.70516014  0.35582459  0.99923118  1
  H+  H359  1  0.08372342  0.91795751  0.09748824  1
  H+  H360  1  0.58806365  0.43873327  0.71836369  1
  H+  H361  1  0.56499726  0.90737492  0.42750897  1
  H+  H362  1  0.57977432  0.67107440  0.74176246  1
  H+  H363  1  0.30725127  0.65920937  0.44894627  1
  H+  H364  1  0.91040011  0.83372715  0.21657174  1
  H+  H365  1  0.08691943  0.66638639  0.76953516  1
  H+  H366  1  0.91242948  0.34256216  0.56041578  1
  H+  H367  1  0.18773285  0.06187137  0.90063738  1
  H+  H368  1  0.40288328  0.82723969  0.56690937  1
  H+  H369  1  0.56522547  0.15041273  0.72898515  1
  H+  H370  1  0.41100281  0.84799073  0.93865250  1
  H+  H371  1  0.66773278  0.10199351  0.93576501  1
  H+  H372  1  0.59865953  0.93324143  0.05746585  1
  H+  H373  1  0.57590162  0.64397253  0.41947185  1
  H+  H374  1  0.77506164  0.38441369  0.70616315  1
  H+  H375  1  0.22155863  0.36932229  0.17196105  1
  H+  H376  1  0.10192646  0.44286026  0.41446009  1
  H+  H377  1  0.91595203  0.60496856  0.93595033  1
  H+  H378  1  0.90730334  0.33494925  0.22920599  1
  H+  H379  1  0.82811114  0.66162765  0.72893579  1
  H+  H380  1  0.67012346  0.84933201  0.92709817  1
  H+  H381  1  0.82120917  0.67853467  0.41087419  1
  H+  H382  1  0.15076149  0.82891092  0.23872591  1
  H+  H383  1  0.02292995  0.88004827  0.00554434  1
  O2-  O384  1  0.08916367  0.17062848  0.14619797  1
  O2-  O385  1  0.08794988  0.16442034  0.49190659  1
  O2-  O386  1  0.08772526  0.19071769  0.81109488  1
  O2-  O387  1  0.08720198  0.42342098  0.15170676  1
  O2-  O388  1  0.09150238  0.42688674  0.48121277  1
  O2-  O389  1  0.10159908  0.42117811  0.82061153  1
  O2-  O390  1  0.08910813  0.67032214  0.14206016  1
  O2-  O391  1  0.09076446  0.67717421  0.50512922  1
  O2-  O392  1  0.08862816  0.66512248  0.81481846  1
  O2-  O393  1  0.08141985  0.92269918  0.14336324  1
  O2-  O394  1  0.10008546  0.91865419  0.51381020  1
  O2-  O395  1  0.08460654  0.90075409  0.80693494  1
  O2-  O396  1  0.34794702  0.16186624  0.13893450  1
  O2-  O397  1  0.33222310  0.16919172  0.49197251  1
  O2-  O398  1  0.33701176  0.07927345  0.81833018  1
  O2-  O399  1  0.30635386  0.43905951  0.12792828  1
  O2-  O400  1  0.34085936  0.40671518  0.48935636  1
  O2-  O401  1  0.34082815  0.42562608  0.82085613  1
  O2-  O402  1  0.31652913  0.67314764  0.14372943  1
  O2-  O403  1  0.32423350  0.66288466  0.49133191  1
  O2-  O404  1  0.33593196  0.67528875  0.81474300  1
  O2-  O405  1  0.31523604  0.91950341  0.15009375  1
  O2-  O406  1  0.30713451  0.91430644  0.50744430  1
  O2-  O407  1  0.32311398  0.92055936  0.80276507  1
  O2-  O408  1  0.57610817  0.16018792  0.15443399  1
  O2-  O409  1  0.57368939  0.16603274  0.48162322  1
  O2-  O410  1  0.56108634  0.15181141  0.80786186  1
  O2-  O411  1  0.57889906  0.41222272  0.14334275  1
  O2-  O412  1  0.63389139  0.41282428  0.47608092  1
  O2-  O413  1  0.56868754  0.40431690  0.81491912  1
  O2-  O414  1  0.57017881  0.68063721  0.14225248  1
  O2-  O415  1  0.58137146  0.63848939  0.46348497  1
  O2-  O416  1  0.58202746  0.66550365  0.82272161  1
  O2-  O417  1  0.61909145  0.93930311  0.13654458  1
  O2-  O418  1  0.55688948  0.91494263  0.47091384  1
  O2-  O419  1  0.57949302  0.92000067  0.82419418  1
  O2-  O420  1  0.81310527  0.20171454  0.12682524  1
  O2-  O421  1  0.85006995  0.17566373  0.47477317  1
  O2-  O422  1  0.82917976  0.17378599  0.81233686  1
  O2-  O423  1  0.83095352  0.41430554  0.13072908  1
  O2-  O424  1  0.84492493  0.43096163  0.48640983  1
  O2-  O425  1  0.85223266  0.42114590  0.86846421  1
  O2-  O426  1  0.81903033  0.66735945  0.13770199  1
  O2-  O427  1  0.85428734  0.67478600  0.44623864  1
  O2-  O428  1  0.83233220  0.66115891  0.80862161  1
  O2-  O429  1  0.84824098  0.93378320  0.14100836  1
  O2-  O430  1  0.85658657  0.93424821  0.47984231  1
  O2-  O431  1  0.89541905  0.95156501  0.80564040  1
  O2-  O432  1  0.18001096  0.09211936  0.17654945  1
  O2-  O433  1  0.17593341  0.09011754  0.53912294  1
  O2-  O434  1  0.19680330  0.05709472  0.85600083  1
  O2-  O435  1  0.16393881  0.33415863  0.19189314  1
  O2-  O436  1  0.16723543  0.33619873  0.52094712  1
  O2-  O437  1  0.18002334  0.33636554  0.85032693  1
  O2-  O438  1  0.16162280  0.58399852  0.19489812  1
  O2-  O439  1  0.16150671  0.57810495  0.53572236  1
  O2-  O440  1  0.17417604  0.58398063  0.85587609  1
  O2-  O441  1  0.15393839  0.83257718  0.19371757  1
  O2-  O442  1  0.15705684  0.82694700  0.55917962  1
  O2-  O443  1  0.16788235  0.82662204  0.85571917  1
  O2-  O444  1  0.41139428  0.07499936  0.19839568  1
  O2-  O445  1  0.41002547  0.07963998  0.53222946  1
  O2-  O446  1  0.40883055  0.13328089  0.86041412  1
  O2-  O447  1  0.42513229  0.31876982  0.18072997  1
  O2-  O448  1  0.40676433  0.31386004  0.53377867  1
  O2-  O449  1  0.42834748  0.35680828  0.87689952  1
  O2-  O450  1  0.41299141  0.59482688  0.17530086  1
  O2-  O451  1  0.41525864  0.57213020  0.52137819  1
  O2-  O452  1  0.41284539  0.58969212  0.85572020  1
  O2-  O453  1  0.32346132  0.79620704  0.19959493  1
  O2-  O454  1  0.39188088  0.82397113  0.52201016  1
  O2-  O455  1  0.40582023  0.84297337  0.85994102  1
  O2-  O456  1  0.67352065  0.09026828  0.19406135  1
  O2-  O457  1  0.70779820  0.13986351  0.52865046  1
  O2-  O458  1  0.66390824  0.09349788  0.85566920  1
  O2-  O459  1  0.66917294  0.33274294  0.18097746  1
  O2-  O460  1  0.76262570  0.38712138  0.52152730  1
  O2-  O461  1  0.58680672  0.28667913  0.87896671  1
  O2-  O462  1  0.66543003  0.57582314  0.21094928  1
  O2-  O463  1  0.67825153  0.57427003  0.50146942  1
  O2-  O464  1  0.66801159  0.58120846  0.85073250  1
  O2-  O465  1  0.68172123  0.84827621  0.18517717  1
  O2-  O466  1  0.59186707  0.83454750  0.55626733  1
  O2-  O467  1  0.68833517  0.84822224  0.83838686  1
  O2-  O468  1  0.92919601  0.07532769  0.18712346  1
  O2-  O469  1  0.92584908  0.09085040  0.52672107  1
  O2-  O470  1  0.92299343  0.10401087  0.85476423  1
  O2-  O471  1  0.92277950  0.34664838  0.18529839  1
  O2-  O472  1  0.92116935  0.35273972  0.51515733  1
  O2-  O473  1  0.94070813  0.33435234  0.86328720  1
  O2-  O474  1  0.91418146  0.58209781  0.15789257  1
  O2-  O475  1  0.92766770  0.58328864  0.52659767  1
  O2-  O476  1  0.93057196  0.60060786  0.86216971  1
  O2-  O477  1  0.91368638  0.83715168  0.17127716  1
  O2-  O478  1  0.92488361  0.83009329  0.51937876  1
  O2-  O479  1  0.92262919  0.82174087  0.85082096  1
  O2-  O480  1  0.19010019  0.09101087  0.30368297  1
  O2-  O481  1  0.16632218  0.08212843  0.66319249  1
  O2-  O482  1  0.17922937  0.07487183  0.97713156  1
  O2-  O483  1  0.15119697  0.35533650  0.30763100  1
  O2-  O484  1  0.18059924  0.33665352  0.64713577  1
  O2-  O485  1  0.16275883  0.31786649  0.99104903  1
  O2-  O486  1  0.18769293  0.60795374  0.32644148  1
  O2-  O487  1  0.16888066  0.58072337  0.65624017  1
  O2-  O488  1  0.18205621  0.57580388  0.97891486  1
  O2-  O489  1  0.15321103  0.83114282  0.32338391  1
  O2-  O490  1  0.16144205  0.82379869  0.62714409  1
  O2-  O491  1  0.17665819  0.83859142  0.97800544  1
  O2-  O492  1  0.41823741  0.08704194  0.32309686  1
  O2-  O493  1  0.41066254  0.06546583  0.64830072  1
  O2-  O494  1  0.39182929  0.09138058  0.99592067  1
  O2-  O495  1  0.42447041  0.33611235  0.29320185  1
  O2-  O496  1  0.41100395  0.32169616  0.65266241  1
  O2-  O497  1  0.41439355  0.34071491  0.94317084  1
  O2-  O498  1  0.42017980  0.58931126  0.29239698  1
  O2-  O499  1  0.42511373  0.58838354  0.64402883  1
  O2-  O500  1  0.41911880  0.58722360  0.97419526  1
  O2-  O501  1  0.43535368  0.83589117  0.28793596  1
  O2-  O502  1  0.41085430  0.82912557  0.64485181  1
  O2-  O503  1  0.41705124  0.84868606  0.98399569  1
  O2-  O504  1  0.67446246  0.08130195  0.31801854  1
  O2-  O505  1  0.65992737  0.08219688  0.64687556  1
  O2-  O506  1  0.67181082  0.10268589  0.98104739  1
  O2-  O507  1  0.67024384  0.32324189  0.30566562  1
  O2-  O508  1  0.62600514  0.31067988  0.62780729  1
  O2-  O509  1  0.64126359  0.32071788  0.99486456  1
  O2-  O510  1  0.61540144  0.60165424  0.31754628  1
  O2-  O511  1  0.67048062  0.56621198  0.62731050  1
  O2-  O512  1  0.64417600  0.57127246  0.97109840  1
  O2-  O513  1  0.68541470  0.83588924  0.30745369  1
  O2-  O514  1  0.67436063  0.85277072  0.72104993  1
  O2-  O515  1  0.66979281  0.85104783  0.97158793  1
  O2-  O516  1  0.93136008  0.08456345  0.31056277  1
  O2-  O517  1  0.92118447  0.08832416  0.64934367  1
  O2-  O518  1  0.92594972  0.09225907  0.97824116  1
  O2-  O519  1  0.85449645  0.30172576  0.29937056  1
  O2-  O520  1  0.88259138  0.32779044  0.63351950  1
  O2-  O521  1  0.94075555  0.32593289  0.97949828  1
  O2-  O522  1  0.93013818  0.59422470  0.37383648  1
  O2-  O523  1  0.90980412  0.57054960  0.65128873  1
  O2-  O524  1  0.89588975  0.59406780  0.97982740  1
  O2-  O525  1  0.89841802  0.82320945  0.29457213  1
  O2-  O526  1  0.91389911  0.83155667  0.64591017  1
  O2-  O527  1  0.92762915  0.83255364  0.97655889  1
  O2-  O528  1  0.08659863  0.15620603  0.02372718  1
  O2-  O529  1  0.08351807  0.13416590  0.36280977  1
  O2-  O530  1  0.08723183  0.17471279  0.68897214  1
  O2-  O531  1  0.08713966  0.41629186  0.02807970  1
  O2-  O532  1  0.10500961  0.45356379  0.36701040  1
  O2-  O533  1  0.10650735  0.41477362  0.69727627  1
  O2-  O534  1  0.11362939  0.67141190  0.02187058  1
  O2-  O535  1  0.10507754  0.67982189  0.38146425  1
  O2-  O536  1  0.08022781  0.66112276  0.68825561  1
  O2-  O537  1  0.08333209  0.91143104  0.02315620  1
  O2-  O538  1  0.03806900  0.87784846  0.38026031  1
  O2-  O539  1  0.08409097  0.90600668  0.68071020  1
  O2-  O540  1  0.34458787  0.13300123  0.02154114  1
  O2-  O541  1  0.34246531  0.17089803  0.37745032  1
  O2-  O542  1  0.31794056  0.18055282  0.73117897  1
  O2-  O543  1  0.33859176  0.41528648  0.00581229  1
  O2-  O544  1  0.31759288  0.44143524  0.36188116  1
  O2-  O545  1  0.34420683  0.42128203  0.69611216  1
  O2-  O546  1  0.34080452  0.67943993  0.02604649  1
  O2-  O547  1  0.36782488  0.68417057  0.34491783  1
  O2-  O548  1  0.33967936  0.66813256  0.69052915  1
  O2-  O549  1  0.32970891  0.93712672  0.02645411  1
  O2-  O550  1  0.30581332  0.92649575  0.38022449  1
  O2-  O551  1  0.32369030  0.90691867  0.67692917  1
  O2-  O552  1  0.55586886  0.15700627  0.03055012  1
  O2-  O553  1  0.58816142  0.16254538  0.35710920  1
  O2-  O554  1  0.56315807  0.14608897  0.68366346  1
  O2-  O555  1  0.55918898  0.41023546  0.01758487  1
  O2-  O556  1  0.56860732  0.38715564  0.35097780  1
  O2-  O557  1  0.57738959  0.42090409  0.67582878  1
  O2-  O558  1  0.64092519  0.70540519  0.02710351  1
  O2-  O559  1  0.58466237  0.66160228  0.33185271  1
  O2-  O560  1  0.58969466  0.69128236  0.69902274  1
  O2-  O561  1  0.58986584  0.93292393  0.01270109  1
  O2-  O562  1  0.59984028  0.91318422  0.34653445  1
  O2-  O563  1  0.58420621  0.91000647  0.65544876  1
  O2-  O564  1  0.84228160  0.17053730  0.01375745  1
  O2-  O565  1  0.84290004  0.16327561  0.35255060  1
  O2-  O566  1  0.82684351  0.16374775  0.68798118  1
  O2-  O567  1  0.81511302  0.41843667  0.00265735  1
  O2-  O568  1  0.83431713  0.42118381  0.36157228  1
  O2-  O569  1  0.78501961  0.39310037  0.66251043  1
  O2-  O570  1  0.80084989  0.66648472  0.01688063  1
  O2-  O571  1  0.77891359  0.67073634  0.33885582  1
  O2-  O572  1  0.83131581  0.66468488  0.68366828  1
  O2-  O573  1  0.82831718  0.93610365  0.02923076  1
  O2-  O574  1  0.84661757  0.92471199  0.35200320  1
  O2-  O575  1  0.84467593  0.92455365  0.69242149  1
