# generated using pymatgen
data_H2O
_symmetry_space_group_name_H-M   'P 1'
_cell_length_a   17.99202295
_cell_length_b   17.98892144
_cell_length_c   22.00057001
_cell_angle_alpha   89.99976392
_cell_angle_beta   90.01776010
_cell_angle_gamma   120.02862588
_symmetry_Int_Tables_number   1
_chemical_formula_structural   H2O
_chemical_formula_sum   'H384 O192'
_cell_volume   6164.87553353
_cell_formula_units_Z   192
loop_
 _symmetry_equiv_pos_site_id
 _symmetry_equiv_pos_as_xyz
  1  'x, y, z'
loop_
 _atom_type_symbol
 _atom_type_oxidation_number
  H+  1.0
  O2-  -2.0
loop_
 _atom_site_type_symbol
 _atom_site_label
 _atom_site_symmetry_multiplicity
 _atom_site_fract_x
 _atom_site_fract_y
 _atom_site_fract_z
 _atom_site_occupancy
  H+  H0  1  0.63108139  0.77720160  0.65612201  1
  H+  H1  1  0.87089853  0.13521961  0.15517965  1
  H+  H2  1  0.09647443  0.71290441  0.49896042  1
  H+  H3  1  0.11555306  0.36124537  0.49156980  1
  H+  H4  1  0.81245149  0.10559103  0.48455863  1
  H+  H5  1  0.86654384  0.23120980  0.15745293  1
  H+  H6  1  0.96864298  0.36737854  0.65629095  1
  H+  H7  1  0.42142941  0.77167923  0.05836731  1
  H+  H8  1  0.23560276  0.35699750  0.49266152  1
  H+  H9  1  0.13985771  0.61812176  0.33421956  1
  H+  H10  1  0.61419717  0.72101211  0.49722573  1
  H+  H11  1  0.57195297  0.11258127  0.80539552  1
  H+  H12  1  0.61457932  0.11656180  0.50726527  1
  H+  H13  1  0.87660508  0.23615931  1.00528503  1
  H+  H14  1  0.52816678  0.62666852  0.49533901  1
  H+  H15  1  0.10544445  0.47187780  0.16705323  1
  H+  H16  1  0.74021140  0.63880065  0.00727655  1
  H+  H17  1  0.87104779  0.63924024  0.34798378  1
  H+  H18  1  0.63805779  0.54908750  -0.00067153  1
  H+  H19  1  0.36552762  0.37886459  0.67599519  1
  H+  H20  1  0.37692983  0.51542157  0.99234121  1
  H+  H21  1  0.36018592  0.84827177  0.69573971  1
  H+  H22  1  0.36158487  0.62786624  0.02268690  1
  H+  H23  1  0.45128304  0.07673854  0.00738088  1
  H+  H24  1  0.51312768  0.85711990  1.05572929  1
  H+  H25  1  0.13316171  0.36788013  -0.00844965  1
  H+  H26  1  0.58783050  0.86943897  0.66709819  1
  H+  H27  1  0.14214492  0.12176961  0.86548152  1
  H+  H28  1  0.36258165  0.37295566  0.49097563  1
  H+  H29  1  0.91666678  0.33647841  0.93318934  1
  H+  H30  1  0.13837306  0.02356425  0.32411569  1
  H+  H31  1  0.09843902  0.21948384  0.14892107  1
  H+  H32  1  0.02665023  0.63597916  0.17613427  1
  H+  H33  1  0.36608262  0.71643138  0.34286270  1
  H+  H34  1  0.37201882  0.14149522  0.68326047  1
  H+  H35  1  0.38555753  0.59789103  0.33446170  1
  H+  H36  1  0.79484177  0.38855054  0.01401381  1
  H+  H37  1  0.35707001  0.47305995  0.16078430  1
  H+  H38  1  0.13876922  0.53508557  0.55091701  1
  H+  H39  1  0.21776867  0.37108504  0.83495824  1
  H+  H40  1  0.64492367  0.61750102  0.33695937  1
  H+  H41  1  0.03068067  0.64247353  0.34170386  1
  H+  H42  1  0.64327245  1.01060283  0.19265154  1
  H+  H43  1  0.36267871  0.13796071  0.49833357  1
  H+  H44  1  0.77295538  -0.11024660  0.66277068  1
  H+  H45  1  0.53113933  0.87930803  0.33486244  1
  H+  H46  1  0.70234706  0.09998120  0.65986263  1
  H+  H47  1  0.11643378  0.72732528  0.17865316  1
  H+  H48  1  0.63932869  0.53060950  0.18726585  1
  H+  H49  1  0.64308002  0.28908206  0.65622980  1
  H+  H50  1  0.61372623  0.96136226  0.82761553  1
  H+  H51  1  0.46983272  0.35367775  0.51031366  1
  H+  H52  1  0.37280639  0.09286230  0.00381296  1
  H+  H53  1  0.66659542  0.10981319  0.85825156  1
  H+  H54  1  0.42249629  0.82592054  0.26782923  1
  H+  H55  1  0.08210775  0.39820585  0.42993627  1
  H+  H56  1  0.57927183  0.37761773  0.34024847  1
  H+  H57  1  0.26153358  0.38645295  0.00429147  1
  H+  H58  1  0.51195720  0.62979943  0.16834707  1
  H+  H59  1  0.43736554  0.83502650  0.15296050  1
  H+  H60  1  0.88074832  0.25486692  0.50248378  1
  H+  H61  1  -0.03275845  0.10883381  -0.01321069  1
  H+  H62  1  0.17785770  0.12736916  0.49286981  1
  H+  H63  1  0.48258788  0.60308959  0.64697836  1
  H+  H64  1  0.22799633  0.86460946  0.33067084  1
  H+  H65  1  0.37802932  0.60651093  0.18683474  1
  H+  H66  1  0.61153709  0.13960096  0.34902388  1
  H+  H67  1  1.04154899  0.61419528  0.67430642  1
  H+  H68  1  0.77642011  0.38637735  0.17102550  1
  H+  H69  1  0.87290049  0.26205284  0.83731600  1
  H+  H70  1  0.12274372  1.00944439  0.14449310  1
  H+  H71  1  0.02191136  0.63981893  0.82117098  1
  H+  H72  1  0.28348608  0.64637555  0.02401653  1
  H+  H73  1  0.81328151  0.95410799  0.84301737  1
  H+  H74  1  0.60983665  0.21115388  0.83170796  1
  H+  H75  1  0.12692256  0.35109852  0.16711056  1
  H+  H76  1  0.77499081  0.64356943  0.16475413  1
  H+  H77  1  0.15984987  0.10399533  0.65235582  1
  H+  H78  1  0.60992993  -0.01598229  0.48803552  1
  H+  H79  1  0.84410185  0.88699178  0.15967845  1
  H+  H80  1  0.59857643  0.41681247  0.82983409  1
  H+  H81  1  0.33019655  0.41566414  0.09971611  1
  H+  H82  1  0.64409357  0.36391172  0.18886849  1
  H+  H83  1  0.09276570  0.12717595  0.14199405  1
  H+  H84  1  0.89028799  0.61546534  0.17757423  1
  H+  H85  1  0.19283168  0.42724585  0.71812351  1
  H+  H86  1  0.97209483  0.59828019  0.50085426  1
  H+  H87  1  0.66671164  0.88247108  0.85050546  1
  H+  H88  1  0.10456159  0.22511959  0.99442104  1
  H+  H89  1  0.63862956  0.27411539  0.17557033  1
  H+  H90  1  0.97291200  0.16762312  0.54147802  1
  H+  H91  1  0.61295960  0.19890157  0.00485794  1
  H+  H92  1  0.39014917  0.26996614  0.66857968  1
  H+  H93  1  0.66177648  0.33450421  0.98658056  1
  H+  H94  1  0.74869231  0.13938568  0.48631261  1
  H+  H95  1  0.12076130  0.97792655  0.84801818  1
  H+  H96  1  0.85129617  0.21718189  0.33132884  1
  H+  H97  1  0.37080815  0.26569140  0.98432400  1
  H+  H98  1  0.43235966  0.97686838  0.49502733  1
  H+  H99  1  0.74604649  0.35542312  0.82909606  1
  H+  H100  1  0.87991222  0.35521560  0.17548759  1
  H+  H101  1  0.14983511  0.64434509  1.00787446  1
  H+  H102  1  0.11637292  0.50842949  0.84128347  1
  H+  H103  1  0.35584416  0.68447868  0.49132137  1
  H+  H104  1  0.02370152  0.82794036  0.11186800  1
  H+  H105  1  0.39458173  0.51155107  0.64994592  1
  H+  H106  1  0.12135260  0.88853052  0.49439933  1
  H+  H107  1  0.82975682  0.66173050  0.43475094  1
  H+  H108  1  0.71718408  0.10183627  0.31421718  1
  H+  H109  1  0.45204691  0.37833774  0.34125379  1
  H+  H110  1  0.62784239  0.86252517  0.49953751  1
  H+  H111  1  0.58194588  0.90012094  0.76999668  1
  H+  H112  1  0.88054584  0.10950748  0.32169191  1
  H+  H113  1  0.52553230  0.39080714  0.67159645  1
  H+  H114  1  0.50569219  0.62310973  1.00603320  1
  H+  H115  1  0.21339719  0.34820726  0.16629090  1
  H+  H116  1  0.50645195  0.40497499  0.82349268  1
  H+  H117  1  0.10527085  0.63233712  0.83411738  1
  H+  H118  1  0.64143803  0.85440435  0.32433983  1
  H+  H119  1  0.64798543  0.55874398  0.84032062  1
  H+  H120  1  0.77482730  1.00214278  0.55745497  1
  H+  H121  1  0.15719594  0.07142245  0.09012993  1
  H+  H122  1  0.11707109  0.87716352  0.34299070  1
  H+  H123  1  0.77579511  0.39054911  0.66459186  1
  H+  H124  1  0.00426834  0.37821286  0.82581471  1
  H+  H125  1  0.75367867  0.61988604  0.49626731  1
  H+  H126  1  0.37869744  0.10973520  0.17082430  1
  H+  H127  1  0.38159446  0.36688412  0.17897043  1
  H+  H128  1  0.44944646  0.83622528  0.68282264  1
  H+  H129  1  0.37540591  0.27763127  0.82980069  1
  H+  H130  1  0.26704887  0.88268746  0.84652198  1
  H+  H131  1  0.32142071  0.94540233  0.68914550  1
  H+  H132  1  0.97877371  0.34761242  0.32560564  1
  H+  H133  1  1.05761587  0.12931485  0.49732464  1
  H+  H134  1  0.45229894  0.36094800  0.97909639  1
  H+  H135  1  0.52641876  0.63269805  0.34646253  1
  H+  H136  1  0.11578476  0.46915399  0.35135537  1
  H+  H137  1  0.13824949  0.86082520  0.86056417  1
  H+  H138  1  0.60966192  0.38690306  0.49102334  1
  H+  H139  1  0.13857528  0.77415481  0.33348992  1
  H+  H140  1  0.21469835  0.45899359  0.69267642  1
  H+  H141  1  0.90741050  0.52072609  0.65891319  1
  H+  H142  1  0.64221263  0.64115560  0.00337489  1
  H+  H143  1  0.86341551  0.71091980  0.50522510  1
  H+  H144  1  0.25611494  0.62895522  0.81863910  1
  H+  H145  1  0.92603149  0.59344390  0.27544270  1
  H+  H146  1  0.22210956  0.86363869  0.17521977  1
  H+  H147  1  0.40482604  0.81051078  0.51228425  1
  H+  H148  1  0.72586107  0.83149200  1.00277506  1
  H+  H149  1  0.86472947  0.34616768  0.83564247  1
  H+  H150  1  0.85148072  0.22591611  0.66951454  1
  H+  H151  1  0.22891305  0.61564302  0.18778096  1
  H+  H152  1  0.51737902  0.56667520  0.78652489  1
  H+  H153  1  0.41878872  0.05046690  0.62984946  1
  H+  H154  1  0.87608651  0.48488292  0.01993526  1
  H+  H155  1  0.87181093  0.02376847  0.99778765  1
  H+  H156  1  0.51318932  1.03680712  0.26602806  1
  H+  H157  1  0.37492713  0.26865350  0.51241496  1
  H+  H158  1  0.71818755  0.87267813  0.50701789  1
  H+  H159  1  0.23978415  0.34746382  0.65182722  1
  H+  H160  1  0.78577034  0.88094293  0.31265046  1
  H+  H161  1  0.64397219  0.37840546  0.65824677  1
  H+  H162  1  0.14138370  0.27199089  0.33705117  1
  H+  H163  1  0.72821507  0.64438859  0.81945886  1
  H+  H164  1  0.57007000  0.41412542  0.43499659  1
  H+  H165  1  0.39638687  0.51385275  0.33155992  1
  H+  H166  1  0.88891155  0.52540974  0.18121983  1
  H+  H167  1  0.85752558  0.87964747  0.66595093  1
  H+  H168  1  0.87028328  0.12725040  0.82225541  1
  H+  H169  1  0.97211391  0.83536049  0.51759825  1
  H+  H170  1  0.12325588  0.35875615  0.83480577  1
  H+  H171  1  0.22962191  0.61466597  0.33273114  1
  H+  H172  1  0.31573320  -0.05356754  1.00933442  1
  H+  H173  1  0.88118741  0.59344102  0.50652059  1
  H+  H174  1  0.12971094  0.74943012  1.03194635  1
  H+  H175  1  0.67709087  0.91841400  0.03643124  1
  H+  H176  1  0.19764543  0.82833925  0.52544519  1
  H+  H177  1  0.36948790  0.46376873  0.48335640  1
  H+  H178  1  0.87732445  0.35647780  0.65174812  1
  H+  H179  1  0.51844843  0.14542058  0.15559541  1
  H+  H180  1  0.59984531  0.63515115  0.81962032  1
  H+  H181  1  0.36362772  0.10442864  0.84098691  1
  H+  H182  1  0.01776909  0.87466682  0.34170477  1
  H+  H183  1  0.96974800  0.35619760  0.16958825  1
  H+  H184  1  0.60248003  0.10794779  0.01091658  1
  H+  H185  1  0.11855134  0.48913229  0.00757941  1
  H+  H186  1  0.12471096  0.38268916  0.35081421  1
  H+  H187  1  0.51598469  0.38911673  0.18887712  1
  H+  H188  1  0.89412989  0.92381569  0.54670656  1
  H+  H189  1  0.26352459  0.60656263  0.49775649  1
  H+  H190  1  0.89922697  0.37207129  -0.00432324  1
  H+  H191  1  0.33458956  0.92861542  0.50840596  1
  H+  H192  1  0.76875151  0.64163601  0.69365179  1
  H+  H193  1  0.48877810  0.08747025  0.31081143  1
  H+  H194  1  0.88907706  0.77968657  -0.01011112  1
  H+  H195  1  0.62015503  0.64693535  0.66843557  1
  H+  H196  1  0.87142683  0.97335618  0.31094252  1
  H+  H197  1  0.64140494  0.61032874  0.50500633  1
  H+  H198  1  0.39476607  0.85375459  0.32768837  1
  H+  H199  1  0.75523071  0.42505480  0.78036717  1
  H+  H200  1  0.12132825  0.16544210  0.77821924  1
  H+  H201  1  0.34963111  0.48427314  0.82396608  1
  H+  H202  1  0.34563707  0.37919287  1.00020138  1
  H+  H203  1  0.86987583  0.51628956  0.81475203  1
  H+  H204  1  0.33930912  0.75141478  0.67158936  1
  H+  H205  1  0.93282422  0.10289713  0.70325433  1
  H+  H206  1  0.90768915  0.91414721  0.84737542  1
  H+  H207  1  0.05327892  0.11940938  0.68319762  1
  H+  H208  1  0.26308485  0.12917625  0.84366571  1
  H+  H209  1  0.62608670  0.75876599  0.17618630  1
  H+  H210  1  0.63175174  1.00115986  0.32895527  1
  H+  H211  1  0.86387763  0.03390774  0.52714758  1
  H+  H212  1  0.84246633  0.13498617  0.66184943  1
  H+  H213  1  0.88297526  0.39781611  0.33736852  1
  H+  H214  1  0.14682686  0.98714988  0.48383751  1
  H+  H215  1  0.86286369  0.64809689  1.01681305  1
  H+  H216  1  0.29590232  0.63825470  0.75201047  1
  H+  H217  1  0.36647790  0.61414705  0.83575269  1
  H+  H218  1  0.74483290  0.11683401  0.99862886  1
  H+  H219  1  0.90768472  0.06746226  0.89843154  1
  H+  H220  1  0.08328429  0.15445795  0.39284666  1
  H+  H221  1  0.12067228  0.47571147  0.68015942  1
  H+  H222  1  0.50848664  0.15798338  0.49128803  1
  H+  H223  1  0.61951147  0.10830512  0.66054492  1
  H+  H224  1  0.46324513  0.85053539  0.82734332  1
  H+  H225  1  0.35089869  0.39495195  0.82296337  1
  H+  H226  1  0.52969890  0.16105655  0.66145148  1
  H+  H227  1  0.16640636  0.58533781  0.25556414  1
  H+  H228  1  0.33148888  0.23951202  0.35513367  1
  H+  H229  1  0.92070494  0.32354593  0.26534764  1
  H+  H230  1  0.36753947  0.85416041  0.17751898  1
  H+  H231  1  0.37110631  0.76666055  0.81499552  1
  H+  H232  1  0.85402939  0.64291085  0.78563264  1
  H+  H233  1  0.88756878  0.77357904  0.67656096  1
  H+  H234  1  0.63772788  0.76269753  0.32885706  1
  H+  H235  1  0.10442236  0.98226186  -0.01785643  1
  H+  H236  1  0.38093557  0.05958268  0.49438189  1
  H+  H237  1  0.63689603  0.61747212  0.18026890  1
  H+  H238  1  0.90051298  0.86571965  0.31810209  1
  H+  H239  1  0.10778717  0.86976680  0.15031860  1
  H+  H240  1  0.34832869  0.97048420  0.15221912  1
  H+  H241  1  0.63683793  0.51708541  0.50301371  1
  H+  H242  1  0.66161588  0.81757571  0.24217300  1
  H+  H243  1  0.39697334  0.33759233  0.24382966  1
  H+  H244  1  0.13789118  0.77233564  0.85743226  1
  H+  H245  1  1.02098824  0.13539907  0.33488700  1
  H+  H246  1  0.84815010  0.88903675  0.54368104  1
  H+  H247  1  0.52644514  0.89198069  0.47330046  1
  H+  H248  1  0.18680843  0.82642887  0.66617398  1
  H+  H249  1  0.65780670  -0.00079327  1.02108519  1
  H+  H250  1  0.72610339  0.36199013  0.50080112  1
  H+  H251  1  0.38645345  0.58410655  0.49923713  1
  H+  H252  1  0.03128183  0.89619414  0.83741806  1
  H+  H253  1  0.12911997  0.11665877  0.96429269  1
  H+  H254  1  0.12098332  0.97182105  0.67810790  1
  H+  H255  1  0.46030596  0.10882599  0.83728603  1
  H+  H256  1  0.96836536  0.87448760  0.17186045  1
  H+  H257  1  0.96658389  0.11043616  0.16035439  1
  H+  H258  1  0.35690670  0.88285731  0.82988202  1
  H+  H259  1  0.90458291  0.53369331  0.33446094  1
  H+  H260  1  0.99006472  0.63686633  1.02186004  1
  H+  H261  1  0.99158416  0.87731665  0.98539289  1
  H+  H262  1  0.58153877  0.71789648  0.01489772  1
  H+  H263  1  0.92353196  0.80094686  0.58155393  1
  H+  H264  1  0.02963753  0.40064295  0.00353611  1
  H+  H265  1  0.11169435  0.63325140  0.49961352  1
  H+  H266  1  0.25190631  0.14110689  0.34435684  1
  H+  H267  1  0.74435763  0.09743602  0.84309857  1
  H+  H268  1  0.86068962  0.37206259  0.49164833  1
  H+  H269  1  0.26882362  0.13675426  -0.00233262  1
  H+  H270  1  0.89772190  0.77431791  0.33132371  1
  H+  H271  1  0.63873378  0.52922443  0.66207674  1
  H+  H272  1  0.56865501  0.41545381  0.03323565  1
  H+  H273  1  0.60436631  0.26719792  0.33368464  1
  H+  H274  1  0.64332400  0.31759196  0.86978575  1
  H+  H275  1  0.87365759  0.14290170  0.00342718  1
  H+  H276  1  0.36926728  1.00893166  0.84204182  1
  H+  H277  1  0.23445764  0.35664804  0.33480228  1
  H+  H278  1  0.59331513  0.91361379  0.39406797  1
  H+  H279  1  0.60532243  0.23604579  0.49305679  1
  H+  H280  1  0.86225714  0.73400395  0.16426159  1
  H+  H281  1  0.12951253  0.10674769  0.31968640  1
  H+  H282  1  0.81055851  0.91874578  0.09976879  1
  H+  H283  1  0.38317040  0.84326019  0.45308453  1
  H+  H284  1  0.13887613  0.20872207  0.67164713  1
  H+  H285  1  0.13554423  0.22052871  0.48305218  1
  H+  H286  1  0.28054143  0.13056180  0.67715089  1
  H+  H287  1  0.35607768  0.23009235  0.16357831  1
  H+  H288  1  0.08879380  0.91334212  0.40616823  1
  H+  H289  1  0.40467224  0.58252505  0.93590515  1
  H+  H290  1  0.08936594  0.66815208  0.40163295  1
  H+  H291  1  0.19923430  0.08331561  0.59290811  1
  H+  H292  1  0.09196320  0.64546708  0.73853808  1
  H+  H293  1  0.85189879  0.42228175  0.39793268  1
  H+  H294  1  0.29651047  0.16967103  0.42815743  1
  H+  H295  1  0.57839617  0.40474879  0.13450048  1
  H+  H296  1  0.91700881  0.09285128  0.26076822  1
  H+  H297  1  0.45548805  0.61444894  0.83912987  1
  H+  H298  1  0.19392426  0.66238667  0.67091967  1
  H+  H299  1  0.91788053  0.84001360  0.23325529  1
  H+  H300  1  0.65156849  0.96503668  0.09625433  1
  H+  H301  1  0.65328837  0.83413583  0.59622223  1
  H+  H302  1  0.57650728  0.18190211  0.72592202  1
  H+  H303  1  0.08654382  0.91928636  0.04077274  1
  H+  H304  1  0.08122463  0.42483891  0.10241966  1
  H+  H305  1  0.88461004  0.58383626  0.86398909  1
  H+  H306  1  0.58119504  0.16870544  0.10061087  1
  H+  H307  1  0.81120884  0.15536012  0.38885897  1
  H+  H308  1  0.09155590  0.92326358  0.74270061  1
  H+  H309  1  0.88220282  0.81789990  0.83011660  1
  H+  H310  1  0.93841840  0.57780073  0.60025943  1
  H+  H311  1  0.41495669  0.32603186  0.60680913  1
  H+  H312  1  0.13427432  0.61724908  0.19056759  1
  H+  H313  1  0.41237165  0.74312251  0.57587924  1
  H+  H314  1  0.38362769  0.76240251  0.57937043  1
  H+  H315  1  0.26874294  0.14176230  0.15225658  1
  H+  H316  1  0.09596505  0.68034536  0.08733513  1
  H+  H317  1  0.67547451  0.59134663  0.27711759  1
  H+  H318  1  0.64620570  0.32809735  0.27743751  1
  H+  H319  1  0.06796207  0.51870207  0.69788950  1
  H+  H320  1  0.91285241  0.84222655  0.92713691  1
  H+  H321  1  0.72114589  1.06614702  0.15051566  1
  H+  H322  1  0.32778712  0.41502214  0.72811568  1
  H+  H323  1  0.42359863  0.55993827  0.55802217  1
  H+  H324  1  0.15139242  0.56694786  0.90096635  1
  H+  H325  1  0.32704075  0.64958678  0.39953525  1
  H+  H326  1  0.41393050  0.57381719  0.24066792  1
  H+  H327  1  0.37286904  0.83426651  0.96911134  1
  H+  H328  1  0.71955209  0.85674981  0.17424546  1
  H+  H329  1  0.58164395  0.43030946  0.73105304  1
  H+  H330  1  0.96779980  0.10546467  0.59365629  1
  H+  H331  1  0.87242587  0.93547999  0.42724529  1
  H+  H332  1  0.69835833  0.29986797  0.93588962  1
  H+  H333  1  0.30361774  0.89865163  0.75277058  1
  H+  H334  1  0.71681123  0.88923972  0.91220077  1
  H+  H335  1  0.86356217  0.46221937  0.49436538  1
  H+  H336  1  0.41948665  0.11747919  0.58428335  1
  H+  H337  1  0.59557838  0.47363171  0.34320441  1
  H+  H338  1  0.91612827  0.31678443  0.56227716  1
  H+  H339  1  0.56822395  0.65838238  0.10696107  1
  H+  H340  1  0.67933989  0.59064561  0.60525767  1
  H+  H341  1  0.83255943  0.68122226  0.07396163  1
  H+  H342  1  0.06213944  0.42303259  0.76714929  1
  H+  H343  1  0.57585208  0.66739961  0.72363071  1
  H+  H344  1  0.68475169  0.06562994  0.94112829  1
  H+  H345  1  0.32503510  0.17081058  0.05968645  1
  H+  H346  1  0.83969683  0.41933190  0.11265787  1
  H+  H347  1  0.87175601  0.02374065  0.16730559  1
  H+  H348  1  0.19117252  0.84682890  0.96041769  1
  H+  H349  1  0.11065759  0.84576124  0.66708548  1
  H+  H350  1  0.83135097  0.15513497  0.76541410  1
  H+  H351  1  0.89723075  0.01019192  0.67139699  1
  H+  H352  1  0.57041645  0.16327354  0.40464038  1
  H+  H353  1  0.13151955  0.81101196  0.57825936  1
  H+  H354  1  0.94074511  0.60865453  0.96066960  1
  H+  H355  1  0.57834361  -0.04687146  0.67099442  1
  H+  H356  1  0.15972305  0.33831858  0.93020417  1
  H+  H357  1  0.78027117  0.63843235  0.34602743  1
  H+  H358  1  0.39713381  0.33178359  0.88980480  1
  H+  H359  1  0.38060264  0.96082392  0.32158610  1
  H+  H360  1  0.21693293  0.67218448  0.95562161  1
  H+  H361  1  0.64561236  0.08326247  0.56478261  1
  H+  H362  1  0.34582539  0.71975326  0.17664640  1
  H+  H363  1  0.37032394  0.82990885  0.93507327  1
  H+  H364  1  0.34966268  0.93056548  0.38946639  1
  H+  H365  1  0.41960501  0.06915557  0.21786993  1
  H+  H366  1  0.67007815  0.34373040  0.56138683  1
  H+  H367  1  0.82932223  0.40399861  0.72507745  1
  H+  H368  1  0.30442750  0.89777488  0.09987387  1
  H+  H369  1  0.86867040  0.89192751  0.42582296  1
  H+  H370  1  0.35049748  0.39695685  0.39462414  1
  H+  H371  1  0.13068232  0.23032053  0.83180237  1
  H+  H372  1  0.16320852  0.84018219  0.23595101  1
  H+  H373  1  0.31420695  0.15096915  0.77797683  1
  H+  H374  1  0.14482518  0.33012873  0.64818339  1
  H+  H375  1  0.18023826  0.32042920  0.55445899  1
  H+  H376  1  0.51847582  0.46166934  0.05320349  1
  H+  H377  1  1.01636119  0.35511815  0.49423842  1
  H+  H378  1  0.58764100  0.66539667  0.40557426  1
  H+  H379  1  0.07396954  0.16190386  0.05109475  1
  H+  H380  1  0.20405706  0.62271298  0.58159851  1
  H+  H381  1  0.84579084  0.17484105  0.09042540  1
  H+  H382  1  0.32028117  0.65339836  0.12050092  1
  H+  H383  1  0.97636204  0.86236858  0.67116546  1
  O2-  O384  1  0.06240356  0.15865155  0.13163921  1
  O2-  O385  1  0.10951715  0.15864283  0.47141508  1
  O2-  O386  1  0.12034308  0.17163767  0.82277535  1
  O2-  O387  1  0.07392862  0.41533067  0.14729328  1
  O2-  O388  1  0.07885522  0.38802097  0.47839157  1
  O2-  O389  1  0.06473839  0.41058361  0.81125295  1
  O2-  O390  1  0.08961232  0.66528147  0.16528165  1
  O2-  O391  1  0.07793309  0.65598079  0.47934151  1
  O2-  O392  1  0.08515567  0.67067974  0.81687256  1
  O2-  O393  1  0.06942941  0.88438080  0.12513011  1
  O2-  O394  1  0.10430775  0.92691713  0.47303992  1
  O2-  O395  1  0.09319023  0.92078914  0.82807344  1
  O2-  O396  1  0.33045782  0.17394644  0.14206045  1
  O2-  O397  1  0.30006162  0.16739903  0.48055748  1
  O2-  O398  1  0.32045605  0.15412599  0.82337530  1
  O2-  O399  1  0.33082315  0.41325662  0.14495661  1
  O2-  O400  1  0.33558827  0.40215228  0.46851215  1
  O2-  O401  1  0.32126383  0.42482016  0.80637830  1
  O2-  O402  1  0.31550792  0.65600425  0.16609813  1
  O2-  O403  1  0.31918722  0.62616805  0.47603563  1
  O2-  O404  1  0.31189057  0.65478022  0.79725260  1
  O2-  O405  1  0.31437502  0.90663608  0.14477268  1
  O2-  O406  1  0.37635211  0.95649769  0.47579358  1
  O2-  O407  1  0.32411083  0.91616451  0.82477039  1
  O2-  O408  1  0.57970567  0.18068052  0.14425869  1
  O2-  O409  1  0.56864483  0.17395228  0.48082789  1
  O2-  O410  1  0.55890308  0.15895598  0.80790622  1
  O2-  O411  1  0.57886030  0.42003435  0.17695076  1
  O2-  O412  1  0.57635123  0.41625706  0.48056619  1
  O2-  O413  1  0.56812460  0.44267132  0.81066158  1
  O2-  O414  1  0.57275421  0.66107517  0.15196848  1
  O2-  O415  1  0.59054658  0.66082524  0.48283644  1
  O2-  O416  1  0.54623065  0.62706743  0.79832077  1
  O2-  O417  1  0.67660884  1.00628990  0.15707169  1
  O2-  O418  1  0.58996855  0.92582149  0.46984040  1
  O2-  O419  1  0.58397578  0.90044734  0.81494372  1
  O2-  O420  1  0.84109340  0.17021738  0.13778601  1
  O2-  O421  1  0.80729928  0.15571853  0.47104180  1
  O2-  O422  1  0.83698065  0.15669169  0.81037289  1
  O2-  O423  1  0.83879751  0.41826074  0.15794239  1
  O2-  O424  1  0.83091087  0.40244331  0.47746598  1
  O2-  O425  1  0.79305966  0.40815720  0.80050452  1
  O2-  O426  1  0.83460407  0.67444289  0.14730990  1
  O2-  O427  1  0.82226762  0.65333675  0.48133906  1
  O2-  O428  1  0.82627604  0.67700907  0.77471374  1
  O2-  O429  1  0.80877717  0.91285494  0.14767313  1
  O2-  O430  1  0.80184338  1.00923490  0.51777764  1
  O2-  O431  1  0.87574264  0.98474623  0.82911779  1
  O2-  O432  1  0.15215726  0.07070804  0.13434343  1
  O2-  O433  1  0.21556051  0.10284810  0.50594611  1
  O2-  O434  1  0.16570094  0.08327043  0.88540977  1
  O2-  O435  1  0.15161222  0.31414477  0.17606888  1
  O2-  O436  1  0.17475686  0.32393641  0.50930800  1
  O2-  O437  1  0.15864141  0.33555640  0.85219546  1
  O2-  O438  1  0.16494434  0.58497307  0.20575846  1
  O2-  O439  1  0.17753525  0.59545937  0.54142080  1
  O2-  O440  1  0.14844802  0.56956810  0.85661325  1
  O2-  O441  1  0.16030273  0.83255528  0.19114049  1
  O2-  O442  1  0.13785603  0.81271248  0.53097445  1
  O2-  O443  1  0.16845211  0.83074848  0.87612432  1
  O2-  O444  1  0.40616661  0.07400767  0.17460364  1
  O2-  O445  1  0.40401571  0.11698449  0.51233741  1
  O2-  O446  1  0.39899035  0.07469808  0.85275086  1
  O2-  O447  1  0.40960510  0.33741330  0.19992490  1
  O2-  O448  1  0.41112994  0.32776626  0.52856895  1
  O2-  O449  1  0.40240983  0.33767236  0.84436524  1
  O2-  O450  1  0.41122476  0.57702371  0.19522320  1
  O2-  O451  1  0.42395542  0.56071067  0.51097841  1
  O2-  O452  1  0.39663302  0.58666779  0.85670129  1
  O2-  O453  1  0.39933395  0.82393731  0.18916591  1
  O2-  O454  1  0.41701539  0.81828848  0.46847750  1
  O2-  O455  1  0.40073148  0.82832115  0.82691623  1
  O2-  O456  1  0.61213158  0.05033971  0.25188155  1
  O2-  O457  1  0.64575762  0.08565257  0.51937845  1
  O2-  O458  1  0.68580590  0.06833484  0.86366363  1
  O2-  O459  1  0.67490865  0.33234191  0.19571517  1
  O2-  O460  1  0.66588670  0.33833868  0.51615688  1
  O2-  O461  1  0.67804270  0.29030286  0.86363549  1
  O2-  O462  1  0.67292809  0.59367317  0.19528520  1
  O2-  O463  1  0.67297099  0.57916682  0.51742776  1
  O2-  O464  1  0.67795922  0.62117129  0.84696432  1
  O2-  O465  1  0.65905298  0.81912744  0.19403820  1
  O2-  O466  1  0.65748723  0.83202840  0.51559753  1
  O2-  O467  1  0.71831683  0.88399120  0.86782924  1
  O2-  O468  1  0.90636869  0.08623496  0.17813185  1
  O2-  O469  1  0.97263183  0.11395748  0.54846695  1
  O2-  O470  1  0.91454889  0.07311240  0.85278407  1
  O2-  O471  1  0.90917268  0.32083295  0.18487675  1
  O2-  O472  1  0.92115723  0.31483169  0.51682489  1
  O2-  O473  1  0.89810442  0.32207510  0.85313564  1
  O2-  O474  1  0.92147553  0.58737542  0.19392530  1
  O2-  O475  1  0.91338604  0.56508477  0.51902678  1
  O2-  O476  1  0.90199409  0.57950425  0.82280824  1
  O2-  O477  1  0.90994388  0.84084678  0.18855242  1
  O2-  O478  1  0.93003911  0.78367702  0.53898322  1
  O2-  O479  1  0.92000611  0.86606878  0.85650889  1
  O2-  O480  1  0.16676436  0.08221743  0.30820713  1
  O2-  O481  1  0.19050228  0.07360677  0.63724726  1
  O2-  O482  1  0.16185572  0.08597281  0.95323665  1
  O2-  O483  1  0.17244187  0.33594390  0.33556098  1
  O2-  O484  1  0.18082881  0.30807206  0.63254832  1
  O2-  O485  1  0.16046338  0.33549431  0.97581843  1
  O2-  O486  1  0.16758001  0.58462696  0.31837942  1
  O2-  O487  1  0.24900005  0.67196417  0.65110468  1
  O2-  O488  1  0.18587801  0.62540350  0.98459133  1
  O2-  O489  1  0.16585586  0.83598705  0.31921900  1
  O2-  O490  1  0.13101990  0.80909525  0.64732834  1
  O2-  O491  1  0.19190750  0.85229344  1.00566524  1
  O2-  O492  1  0.46079580  0.03961830  0.28096324  1
  O2-  O493  1  0.42941810  0.10911563  0.62871093  1
  O2-  O494  1  0.38962189  0.04912334  0.99741566  1
  O2-  O495  1  0.38887822  0.34742676  0.32794571  1
  O2-  O496  1  0.42001332  0.32969648  0.65221121  1
  O2-  O497  1  0.39254591  0.32472624  0.96596666  1
  O2-  O498  1  0.42203802  0.57487199  0.31874534  1
  O2-  O499  1  0.42622380  0.56622430  0.62718083  1
  O2-  O500  1  0.41101814  0.57819605  0.98094601  1
  O2-  O501  1  0.42661592  0.82504997  0.31314986  1
  O2-  O502  1  0.38459251  0.80814919  0.69117794  1
  O2-  O503  1  0.45990749  0.82658237  1.07890294  1
  O2-  O504  1  0.65088290  0.06426582  0.31443507  1
  O2-  O505  1  0.64216614  0.07124389  0.64524135  1
  O2-  O506  1  0.68422111  0.07327320  0.98640928  1
  O2-  O507  1  0.62515068  0.32645200  0.31916439  1
  O2-  O508  1  0.67430513  0.34945712  0.64084440  1
  O2-  O509  1  0.69821819  0.30898017  0.98202606  1
  O2-  O510  1  0.67565294  0.58741321  0.32223089  1
  O2-  O511  1  0.67336703  0.59125109  0.64984736  1
  O2-  O512  1  0.67669428  0.61222874  0.99059428  1
  O2-  O513  1  0.66725329  0.82051157  0.30781266  1
  O2-  O514  1  0.65537777  0.83801979  0.64139140  1
  O2-  O515  1  0.73513518  0.88983692  1.00011806  1
  O2-  O516  1  0.91704782  0.08689106  0.30557777  1
  O2-  O517  1  0.94155911  0.07607000  0.66758749  1
  O2-  O518  1  0.90546256  0.08275780  0.97531289  1
  O2-  O519  1  0.91899167  0.32097671  0.31062514  1
  O2-  O520  1  0.91087201  0.32722813  0.63947147  1
  O2-  O521  1  0.92611540  0.33979565  0.97800740  1
  O2-  O522  1  0.92991231  0.59627691  0.32060134  1
  O2-  O523  1  0.94768488  0.57965110  0.64460664  1
  O2-  O524  1  0.92991855  0.60503750  1.00433502  1
  O2-  O525  1  0.93443868  0.83347168  0.31449648  1
  O2-  O526  1  0.91786538  0.82867714  0.65309802  1
  O2-  O527  1  0.92070950  0.83925820  0.97304909  1
  O2-  O528  1  0.07716089  0.16300746  0.00564890  1
  O2-  O529  1  0.08208404  0.16127832  0.34806174  1
  O2-  O530  1  0.11599817  0.15164309  0.69173346  1
  O2-  O531  1  0.08822599  0.43001236  0.02273485  1
  O2-  O532  1  0.08780854  0.40889404  0.36553389  1
  O2-  O533  1  0.06288427  0.46019704  0.69412195  1
  O2-  O534  1  0.09409034  0.68630959  0.04219532  1
  O2-  O535  1  0.09274738  0.67230676  0.35617839  1
  O2-  O536  1  0.09349891  0.62183887  0.69800163  1
  O2-  O537  1  0.07284432  0.92161426  -0.00238577  1
  O2-  O538  1  0.08278097  0.90632655  0.35869928  1
  O2-  O539  1  0.08325636  0.91580870  0.69798026  1
  O2-  O540  1  0.32768969  0.16867374  0.01437851  1
  O2-  O541  1  0.30546771  0.17934197  0.36975442  1
  O2-  O542  1  0.33605757  0.16361978  0.70042826  1
  O2-  O543  1  0.32301804  0.41461075  0.01856152  1
  O2-  O544  1  0.35382819  0.40223441  0.34829472  1
  O2-  O545  1  0.33072224  0.40743563  0.68329261  1
  O2-  O546  1  0.33700071  0.65858990  0.04529700  1
  O2-  O547  1  0.32967891  0.65468088  0.35420586  1
  O2-  O548  1  0.26433956  0.60833047  0.68405195  1
  O2-  O549  1  0.28259243  0.88357754  0.02205273  1
  O2-  O550  1  0.33877043  0.91012619  0.34725566  1
  O2-  O551  1  0.30072565  0.88883773  0.70692760  1
  O2-  O552  1  0.57323895  0.14047250  0.02024423  1
  O2-  O553  1  0.57213402  0.16061491  0.35923867  1
  O2-  O554  1  0.58683982  0.18377382  0.68145304  1
  O2-  O555  1  0.55087647  0.45590562  0.01949345  1
  O2-  O556  1  0.55519631  0.41439383  0.35729517  1
  O2-  O557  1  0.58636311  0.42579836  0.68635058  1
  O2-  O558  1  0.56660601  0.65893648  0.02440220  1
  O2-  O559  1  0.58768494  0.66627388  0.35992315  1
  O2-  O560  1  0.58557635  0.67464391  0.67891150  1
  O2-  O561  1  0.64062075  0.94444865  0.05046832  1
  O2-  O562  1  0.59321765  0.91038950  0.34845178  1
  O2-  O563  1  0.55200158  0.89292584  0.68534951  1
  O2-  O564  1  0.84627615  0.17615716  0.02217655  1
  O2-  O565  1  0.81419586  0.15513361  0.34350347  1
  O2-  O566  1  0.81774797  0.16453711  0.68395330  1
  O2-  O567  1  0.85311851  0.42433331  0.03228706  1
  O2-  O568  1  0.86619527  0.43792302  0.35453349  1
  O2-  O569  1  0.83529797  0.40985423  0.68023209  1
  O2-  O570  1  0.83143072  0.67940238  0.02739771  1
  O2-  O571  1  0.84029439  0.66958588  0.36341694  1
  O2-  O572  1  0.82994674  0.67400176  0.70784089  1
  O2-  O573  1  0.81952694  0.93964219  0.03271844  1
  O2-  O574  1  0.84837009  0.91064138  0.30601140  1
  O2-  O575  1  0.83337015  0.91722504  0.67636598  1
