# generated using pymatgen
data_H2O
_symmetry_space_group_name_H-M   'P 1'
_cell_length_a   17.97185339
_cell_length_b   17.97872109
_cell_length_c   21.99533537
_cell_angle_alpha   90.05857437
_cell_angle_beta   89.98252059
_cell_angle_gamma   120.05660394
_symmetry_Int_Tables_number   1
_chemical_formula_structural   H2O
_chemical_formula_sum   'H384 O192'
_cell_volume   6151.26798092
_cell_formula_units_Z   192
loop_
 _symmetry_equiv_pos_site_id
 _symmetry_equiv_pos_as_xyz
  1  'x, y, z'
loop_
 _atom_type_symbol
 _atom_type_oxidation_number
  H+  1.0
  O2-  -2.0
loop_
 _atom_site_type_symbol
 _atom_site_label
 _atom_site_symmetry_multiplicity
 _atom_site_fract_x
 _atom_site_fract_y
 _atom_site_fract_z
 _atom_site_occupancy
  H+  H0  1  0.63885095  0.86033709  1.01291855  1
  H+  H1  1  0.60272858  0.64258207  0.50830394  1
  H+  H2  1  0.70759133  0.85706634  0.51386105  1
  H+  H3  1  0.22349999  0.59545416  0.51752718  1
  H+  H4  1  0.37651992  0.11128483  -0.00098794  1
  H+  H5  1  0.38864049  0.17312752  0.49622703  1
  H+  H6  1  0.85652016  0.52868422  0.16860374  1
  H+  H7  1  0.38907481  0.53044733  0.17794552  1
  H+  H8  1  0.51406018  0.17272188  0.52061077  1
  H+  H9  1  0.88144231  0.85561270  0.35722989  1
  H+  H10  1  0.36625138  0.99908224  0.47721462  1
  H+  H11  1  0.64055174  0.77803855  0.84959364  1
  H+  H12  1  0.50601011  0.38178305  -0.01063158  1
  H+  H13  1  0.30273792  0.39917689  0.44151396  1
  H+  H14  1  0.86829906  0.72984834  0.82510247  1
  H+  H15  1  0.13620193  0.73015094  0.68038454  1
  H+  H16  1  0.88500679  0.85768664  -0.01655848  1
  H+  H17  1  0.87722773  0.27300827  1.00077479  1
  H+  H18  1  0.38466693  0.61972952  0.67636731  1
  H+  H19  1  0.64420714  0.37974123  0.83145972  1
  H+  H20  1  1.01796612  0.52418900  0.12546253  1
  H+  H21  1  0.12667038  0.89505123  0.15792387  1
  H+  H22  1  0.28138006  0.12573681  0.67403100  1
  H+  H23  1  0.09725000  0.46402462  0.17211678  1
  H+  H24  1  0.63227051  0.76620145  0.32887528  1
  H+  H25  1  0.36769341  0.73106813  0.68504211  1
  H+  H26  1  0.91331734  0.53068224  0.66698683  1
  H+  H27  1  0.58395511  0.32894160  0.15474667  1
  H+  H28  1  0.13913256  0.52730824  0.00037394  1
  H+  H29  1  0.13253619  0.75119030  0.84085347  1
  H+  H30  1  0.53158613  0.13708347  0.34196853  1
  H+  H31  1  0.61804835  0.63919123  1.01061552  1
  H+  H32  1  0.92343479  0.81915769  0.40383036  1
  H+  H33  1  0.11360856  0.63149778  0.01050706  1
  H+  H34  1  0.84869129  0.19443118  0.19412256  1
  H+  H35  1  0.36698893  0.64516203  0.83858095  1
  H+  H36  1  0.62521450  0.25236123  0.81390769  1
  H+  H37  1  0.58630025  0.61891285  0.69314003  1
  H+  H38  1  0.06449549  0.40712314  0.91236166  1
  H+  H39  1  0.88386946  1.01486266  0.13641911  1
  H+  H40  1  0.12960583  0.11986959  0.98867011  1
  H+  H41  1  0.02814993  0.88955927  0.34138814  1
  H+  H42  1  0.62849363  0.16971326  0.84043152  1
  H+  H43  1  0.88121111  0.34322466  0.51926246  1
  H+  H44  1  0.64244485  0.21325336  0.16788501  1
  H+  H45  1  0.64416624  0.04780417  0.22991841  1
  H+  H46  1  0.35071897  0.37055963  0.82056966  1
  H+  H47  1  0.64523465  0.35771069  0.32376334  1
  H+  H48  1  0.24859165  0.86792839  0.66621465  1
  H+  H49  1  0.51939907  0.87686754  0.04240285  1
  H+  H50  1  0.85808700  1.00514649  0.50472620  1
  H+  H51  1  0.34367196  0.88791650  -0.02495205  1
  H+  H52  1  0.89284134  0.10843977  0.83185935  1
  H+  H53  1  0.29395217  0.15820814  0.48740222  1
  H+  H54  1  0.78485521  0.15376550  -0.05278977  1
  H+  H55  1  0.37365485  0.98660519  0.16228642  1
  H+  H56  1  0.35777055  0.63367788  0.50597139  1
  H+  H57  1  0.12907708  0.11363973  0.31627916  1
  H+  H58  1  0.94399170  0.09041229  0.49353541  1
  H+  H59  1  0.14357800  0.59417224  0.67355736  1
  H+  H60  1  0.89475579  0.02015370  0.83403954  1
  H+  H61  1  0.38015681  0.97608309  0.67305565  1
  H+  H62  1  1.00375204  0.86488243  0.67447387  1
  H+  H63  1  0.89199603  0.78442447  0.50874459  1
  H+  H64  1  0.25270647  0.88242315  0.49254388  1
  H+  H65  1  0.40117178  0.24889657  0.66792176  1
  H+  H66  1  0.36912113  0.35475847  0.16408228  1
  H+  H67  1  0.88675061  0.86048087  0.16089846  1
  H+  H68  1  0.24873303  0.88064372  0.16936845  1
  H+  H69  1  0.80399600  0.26117838  0.88042230  1
  H+  H70  1  0.90287589  0.27046230  0.66455396  1
  H+  H71  1  0.11262195  0.22274834  0.33054045  1
  H+  H72  1  1.00193724  0.37650430  0.16991734  1
  H+  H73  1  0.88489687  0.25887312  0.51250824  1
  H+  H74  1  0.66823344  0.26394575  0.50617282  1
  H+  H75  1  0.15518972  0.32824238  0.10170736  1
  H+  H76  1  0.37815865  0.76494949  0.52349273  1
  H+  H77  1  0.66480629  0.36221581  0.66322067  1
  H+  H78  1  0.11813399  0.35781447  0.15409077  1
  H+  H79  1  0.17354629  0.36370311  0.64235931  1
  H+  H80  1  0.96646721  0.09956571  0.33032905  1
  H+  H81  1  0.39638210  0.79281402  0.84916192  1
  H+  H82  1  0.70970247  0.59695569  0.33045545  1
  H+  H83  1  1.03541457  0.89053209  0.15605351  1
  H+  H84  1  0.60094795  -0.00461332  0.00433647  1
  H+  H85  1  0.62380533  0.22310051  0.34454494  1
  H+  H86  1  0.04090711  0.66260998  0.83653666  1
  H+  H87  1  -0.03267188  0.10511392  0.14395093  1
  H+  H88  1  0.23527567  0.60352779  0.67488180  1
  H+  H89  1  0.77678591  0.63975562  0.82646244  1
  H+  H90  1  0.10857927  0.21544082  0.15538663  1
  H+  H91  1  0.89669888  0.62045473  0.84093976  1
  H+  H92  1  0.38183437  0.77159218  0.17583519  1
  H+  H93  1  0.27018264  0.38337742  0.80625077  1
  H+  H94  1  0.88384770  0.10642803  0.97956243  1
  H+  H95  1  0.54164952  0.90445902  0.83343435  1
  H+  H96  1  0.40440980  0.88572951  0.84830780  1
  H+  H97  1  0.48751098  0.12026048  0.17309290  1
  H+  H98  1  0.38800325  0.52761987  0.33124298  1
  H+  H99  1  0.12906139  -0.02539300  0.66921812  1
  H+  H100  1  1.00067926  0.38371372  0.85891082  1
  H+  H101  1  0.16834398  0.89724839  0.86203856  1
  H+  H102  1  0.13360425  0.13172142  0.83508548  1
  H+  H103  1  0.88078877  0.60413388  0.51919534  1
  H+  H104  1  0.46430789  0.85519724  0.51983496  1
  H+  H105  1  0.15993481  0.87907935  0.49689124  1
  H+  H106  1  0.46813768  0.35592222  0.30880421  1
  H+  H107  1  0.72025416  0.08532041  0.18336114  1
  H+  H108  1  1.04722820  0.88677948  0.47921039  1
  H+  H109  1  0.13679635  0.36141880  0.75516977  1
  H+  H110  1  0.22557023  0.60265067  0.17853030  1
  H+  H111  1  0.27609872  0.39279802  0.01038040  1
  H+  H112  1  0.72976060  0.38501080  0.80417947  1
  H+  H113  1  0.58166260  0.40384166  0.47531806  1
  H+  H114  1  0.77879938  0.88378313  0.15078116  1
  H+  H115  1  0.37032131  0.89578309  0.16389586  1
  H+  H116  1  0.10101495  0.22334967  1.00863900  1
  H+  H117  1  0.51897440  0.64811095  0.68996241  1
  H+  H118  1  0.74819036  0.35625328  0.17808243  1
  H+  H119  1  0.14712569  0.77596439  0.48980506  1
  H+  H120  1  0.14007383  0.78168494  0.31912966  1
  H+  H121  1  0.15893158  0.25765691  0.47458253  1
  H+  H122  1  0.36955220  0.64334704  0.01228528  1
  H+  H123  1  0.58007345  0.47904388  0.67908681  1
  H+  H124  1  0.13557935  0.45752674  0.68201117  1
  H+  H125  1  0.36414285  0.72502258  0.34611676  1
  H+  H126  1  0.88749704  0.61002499  0.32097718  1
  H+  H127  1  0.72209988  0.45048978  0.12870735  1
  H+  H128  1  0.38956841  0.52676107  0.99821180  1
  H+  H129  1  0.62947838  0.26648153  0.99767901  1
  H+  H130  1  0.40016779  0.03046712  0.32294659  1
  H+  H131  1  0.63531828  0.22810028  0.67768487  1
  H+  H132  1  0.76462857  0.61426586  0.48129465  1
  H+  H133  1  0.47215043  0.85545167  0.16688316  1
  H+  H134  1  0.70149280  0.33352905  0.60653431  1
  H+  H135  1  0.86822296  0.63357917  0.00265477  1
  H+  H136  1  0.33706998  0.42696744  0.10083027  1
  H+  H137  1  0.85407944  0.35439238  0.85080889  1
  H+  H138  1  0.63547319  0.77104231  0.00249739  1
  H+  H139  1  0.01388203  0.13170051  0.00441173  1
  H+  H140  1  0.11885202  0.89258965  0.32735187  1
  H+  H141  1  0.60623848  0.63126077  0.34386896  1
  H+  H142  1  0.27427428  0.13022287  0.15978280  1
  H+  H143  1  0.47892937  0.61528639  -0.00324892  1
  H+  H144  1  0.49429688  0.48164379  0.66772457  1
  H+  H145  1  0.80428530  0.39292029  0.67596602  1
  H+  H146  1  0.37792873  0.26846291  0.16054128  1
  H+  H147  1  0.75642069  0.12907412  0.49931468  1
  H+  H148  1  0.78101819  0.13228219  0.01648958  1
  H+  H149  1  0.85858726  0.21522432  0.34705174  1
  H+  H150  1  0.36568067  0.38221986  0.33569454  1
  H+  H151  1  0.15861639  0.12723695  0.49760326  1
  H+  H152  1  0.35944764  0.94650679  0.76768324  1
  H+  H153  1  0.93649443  0.33012327  0.60683777  1
  H+  H154  1  0.60000325  0.45941357  0.33116373  1
  H+  H155  1  0.68475419  0.58857520  0.55488135  1
  H+  H156  1  1.03950954  0.67379581  0.49067252  1
  H+  H157  1  0.14569277  0.10754501  0.65388773  1
  H+  H158  1  0.39152733  0.78280904  0.00377599  1
  H+  H159  1  0.26635666  0.14225390  1.00374785  1
  H+  H160  1  0.64006312  0.53116258  0.85461933  1
  H+  H161  1  0.36957680  0.22263046  0.32932311  1
  H+  H162  1  0.62368887  0.35156374  0.99049468  1
  H+  H163  1  0.34438535  0.97743516  -0.02219028  1
  H+  H164  1  0.19137851  0.83560372  0.60574490  1
  H+  H165  1  0.77276372  0.88077289  0.00130316  1
  H+  H166  1  0.89272933  0.86198476  0.83296042  1
  H+  H167  1  0.64369881  0.76799319  0.67294244  1
  H+  H168  1  0.13493050  1.03764916  0.83956701  1
  H+  H169  1  0.37680931  0.88524258  0.68111658  1
  H+  H170  1  0.59164465  0.41536485  0.91498480  1
  H+  H171  1  0.28007669  0.64850962  0.84040869  1
  H+  H172  1  0.11887115  0.39465581  0.34812569  1
  H+  H173  1  0.86554185  0.21775223  0.81811702  1
  H+  H174  1  0.87790964  0.64512063  0.15283622  1
  H+  H175  1  0.10517852  0.71611185  0.02244340  1
  H+  H176  1  0.34084602  0.93411927  0.42085925  1
  H+  H177  1  0.49366954  0.40088246  0.13824113  1
  H+  H178  1  0.41551450  0.34159286  0.65439548  1
  H+  H179  1  0.36567307  0.88708511  0.33555266  1
  H+  H180  1  0.89845027  0.63446350  0.68369413  1
  H+  H181  1  0.16389340  0.37617560  0.48863350  1
  H+  H182  1  0.64767876  0.88374582  0.16313861  1
  H+  H183  1  0.71986313  0.09904997  0.32507730  1
  H+  H184  1  0.87904152  0.74011648  0.14843887  1
  H+  H185  1  0.84160696  0.12247762  0.49870624  1
  H+  H186  1  0.31236082  0.39168176  0.65745622  1
  H+  H187  1  0.61428310  0.11574036  0.16206534  1
  H+  H188  1  0.30221872  0.92755950  0.82647565  1
  H+  H189  1  0.13209377  0.88639532  0.67385292  1
  H+  H190  1  0.38484797  0.52162377  0.84165303  1
  H+  H191  1  0.46229838  0.10669506  0.00705386  1
  H+  H192  1  0.89615620  0.72996977  0.68520254  1
  H+  H193  1  0.17411233  0.27773785  0.63656157  1
  H+  H194  1  0.36703093  0.12156535  0.68233630  1
  H+  H195  1  0.61191174  0.72970607  0.16425718  1
  H+  H196  1  0.62589888  0.88513606  0.68329570  1
  H+  H197  1  0.46724616  0.61612938  0.51531037  1
  H+  H198  1  0.59836676  0.92166364  0.74091608  1
  H+  H199  1  0.52351084  0.63875887  0.83978325  1
  H+  H200  1  0.38524231  0.61552553  0.33329484  1
  H+  H201  1  0.49350488  0.11315649  0.66801443  1
  H+  H202  1  0.90229153  0.45819674  0.40356972  1
  H+  H203  1  0.64657487  0.10897543  0.66681409  1
  H+  H204  1  1.03692574  0.13759180  0.66004383  1
  H+  H205  1  0.47543652  0.86069905  0.33238688  1
  H+  H206  1  0.56421945  0.31195000  0.18538783  1
  H+  H207  1  0.43100760  0.30164818  0.45788620  1
  H+  H208  1  0.61494984  0.13240874  0.49821708  1
  H+  H209  1  0.75525462  0.38350895  0.00313186  1
  H+  H210  1  0.65391307  0.38062946  0.49562411  1
  H+  H211  1  0.44253382  0.39129701  0.44077131  1
  H+  H212  1  0.13199527  0.53575507  0.85424449  1
  H+  H213  1  0.26994503  0.39615346  0.15452158  1
  H+  H214  1  0.37423679  0.26926751  0.99198754  1
  H+  H215  1  0.11893154  0.64533576  0.34003724  1
  H+  H216  1  0.52189489  0.64262263  0.16700815  1
  H+  H217  1  0.23052632  0.35898469  0.33294257  1
  H+  H218  1  0.13742277  1.01666530  0.17039879  1
  H+  H219  1  0.53725814  0.35336543  0.68171727  1
  H+  H220  1  0.66378361  0.83160260  0.27129608  1
  H+  H221  1  0.86348546  0.96930595  -0.00154240  1
  H+  H222  1  0.62397539  1.01397111  0.51174894  1
  H+  H223  1  0.72239754  0.94023093  0.20714198  1
  H+  H224  1  0.13690097  0.52889582  0.33687604  1
  H+  H225  1  0.86975785  0.12907647  0.66935680  1
  H+  H226  1  0.14343865  0.63032869  0.85039353  1
  H+  H227  1  0.85543637  0.71445950  0.35012823  1
  H+  H228  1  0.85199698  0.11236630  0.16831605  1
  H+  H229  1  0.89149337  0.77197095  -0.01400833  1
  H+  H230  1  0.28076273  0.64332229  0.01312803  1
  H+  H231  1  0.88034826  0.52105995  0.99251530  1
  H+  H232  1  0.16896819  0.58259167  0.27544892  1
  H+  H233  1  0.10901897  0.23502805  0.80429420  1
  H+  H234  1  0.64486865  0.01838823  0.66620003  1
  H+  H235  1  0.87711461  0.48617672  0.82711387  1
  H+  H236  1  0.89517650  0.36138701  0.33983322  1
  H+  H237  1  0.39806311  1.06720377  0.82641797  1
  H+  H238  1  0.91733252  0.58143082  0.26185824  1
  H+  H239  1  0.97495177  0.60593010  0.99607696  1
  H+  H240  1  0.13584898  0.10764961  0.16940431  1
  H+  H241  1  0.62330204  0.52661786  0.17500302  1
  H+  H242  1  0.13136304  0.59154281  0.17821721  1
  H+  H243  1  0.63334766  0.10218147  0.32712305  1
  H+  H244  1  0.48669152  0.85977155  0.67126152  1
  H+  H245  1  0.03154617  0.37492761  0.49847368  1
  H+  H246  1  0.60058068  0.88104123  0.50366558  1
  H+  H247  1  0.83900489  0.88020401  0.49187490  1
  H+  H248  1  0.63901449  0.52901490  -0.01081228  1
  H+  H249  1  0.35352899  0.17473583  0.39273802  1
  H+  H250  1  0.88193266  0.48865625  0.34288924  1
  H+  H251  1  0.39696159  0.31940309  0.92831141  1
  H+  H252  1  0.52134032  0.63856404  0.34422242  1
  H+  H253  1  0.60815641  -0.03032116  0.34497434  1
  H+  H254  1  0.02577711  0.14062758  0.81640725  1
  H+  H255  1  0.15662100  0.03722355  0.49608839  1
  H+  H256  1  0.40317009  0.12163993  0.32597092  1
  H+  H257  1  0.59228115  0.12173814  0.00868399  1
  H+  H258  1  1.00291328  0.62182264  0.67295678  1
  H+  H259  1  0.40702701  0.17355682  0.83417310  1
  H+  H260  1  0.21064826  0.85452484  0.99818162  1
  H+  H261  1  0.87202485  0.88200094  0.68066579  1
  H+  H262  1  0.78069018  0.87892128  0.67609106  1
  H+  H263  1  0.27504439  0.63679796  0.34723657  1
  H+  H264  1  0.73856513  0.12299701  0.84654629  1
  H+  H265  1  0.76569353  0.87750891  0.34173321  1
  H+  H266  1  0.95893902  0.58956776  0.16577600  1
  H+  H267  1  0.87723422  0.09835494  0.33425543  1
  H+  H268  1  0.12903405  0.36883860  1.00139287  1
  H+  H269  1  0.62721532  0.90043217  0.83447304  1
  H+  H270  1  0.12989559  0.02010651  0.31688901  1
  H+  H271  1  0.84943641  0.31806627  0.19657036  1
  H+  H272  1  0.36078123  0.38558327  1.00422277  1
  H+  H273  1  0.02497020  0.89613124  -0.02165260  1
  H+  H274  1  0.49502136  0.15339581  0.83283530  1
  H+  H275  1  0.03713127  0.90085933  0.82818591  1
  H+  H276  1  0.01104298  0.38540592  0.01384355  1
  H+  H277  1  0.85233881  0.66386463  0.74531446  1
  H+  H278  1  0.39475868  0.53503461  0.66914751  1
  H+  H279  1  0.33204440  0.66667505  0.10713844  1
  H+  H280  1  0.02959110  0.64459877  0.33490975  1
  H+  H281  1  0.60557677  -0.03263723  0.13834207  1
  H+  H282  1  0.98207292  0.35908340  0.33720308  1
  H+  H283  1  0.63848777  0.61872988  0.18235432  1
  H+  H284  1  0.27891891  0.89278045  0.33165789  1
  H+  H285  1  0.11162510  0.90117281  0.00038056  1
  H+  H286  1  0.06889259  0.18134106  0.49024666  1
  H+  H287  1  0.77865967  0.88566497  0.83118644  1
  H+  H288  1  0.94432236  0.73675189  0.50284448  1
  H+  H289  1  0.41823984  0.58831156  0.23873086  1
  H+  H290  1  0.66704417  0.82460271  0.61176957  1
  H+  H291  1  0.43761052  0.10063615  0.60959479  1
  H+  H292  1  0.92246907  0.83039017  0.89071325  1
  H+  H293  1  0.65180246  0.57312209  0.27107152  1
  H+  H294  1  0.32888594  0.66385459  0.44623701  1
  H+  H295  1  0.23729375  0.88751880  0.90526358  1
  H+  H296  1  0.48647198  0.22532814  0.56466178  1
  H+  H297  1  0.16146846  0.10085945  0.90408345  1
  H+  H298  1  0.73506848  0.36737014  0.34270819  1
  H+  H299  1  0.10640201  0.68068911  0.74340965  1
  H+  H300  1  0.08140972  0.15425943  0.09861017  1
  H+  H301  1  0.72074817  0.51416416  0.49403362  1
  H+  H302  1  0.83198220  0.89905062  0.08740487  1
  H+  H303  1  0.58574163  0.16067973  0.07254322  1
  H+  H304  1  0.21471372  0.35525928  0.53846534  1
  H+  H305  1  0.15949882  0.79033465  0.16536395  1
  H+  H306  1  0.65904316  0.07500897  0.57150196  1
  H+  H307  1  0.16514663  0.34013762  0.94543052  1
  H+  H308  1  0.54929341  0.38477861  0.37919624  1
  H+  H309  1  0.91111753  0.32095148  0.24825762  1
  H+  H310  1  0.91523562  0.07137129  0.59914009  1
  H+  H311  1  0.51943136  0.48814077  0.10575874  1
  H+  H312  1  0.05786031  0.61596123  0.09485726  1
  H+  H313  1  0.63959531  0.62019924  0.84510049  1
  H+  H314  1  0.10821199  0.92947544  0.42267133  1
  H+  H315  1  0.33655849  0.67562915  0.74688026  1
  H+  H316  1  0.16969101  0.55657521  0.57838146  1
  H+  H317  1  0.57972614  0.66646092  0.44168654  1
  H+  H318  1  0.09464290  0.16855921  0.39011860  1
  H+  H319  1  0.52539777  0.38058136  0.86088159  1
  H+  H320  1  0.54006414  -0.00631636  0.95378012  1
  H+  H321  1  0.81251151  0.90772857  0.42971032  1
  H+  H322  1  0.84510004  0.38694355  0.01849019  1
  H+  H323  1  0.17187745  0.59071121  0.94217803  1
  H+  H324  1  0.58439205  0.66655617  0.07002335  1
  H+  H325  1  0.36723070  0.13699208  0.15800538  1
  H+  H326  1  0.58260218  0.67143248  0.78078590  1
  H+  H327  1  0.74129105  0.17753392  0.08578748  1
  H+  H328  1  0.83845483  0.15868107  0.75863902  1
  H+  H329  1  0.85865101  0.42704125  0.76743432  1
  H+  H330  1  0.59812716  0.17084140  0.73741686  1
  H+  H331  1  0.42203669  0.82759022  0.61259881  1
  H+  H332  1  0.77900115  0.22171628  0.09106164  1
  H+  H333  1  0.72197558  0.31502527  0.24357652  1
  H+  H334  1  0.17363009  0.84204862  0.25947684  1
  H+  H335  1  0.77764762  0.63492327  0.00594072  1
  H+  H336  1  0.78884190  0.43461631  0.09010400  1
  H+  H337  1  0.13359089  0.03165042  0.97771597  1
  H+  H338  1  0.59297385  0.16841591  0.43674545  1
  H+  H339  1  0.57410899  0.91010162  0.44200281  1
  H+  H340  1  0.11913929  0.46743318  0.50324371  1
  H+  H341  1  0.83503117  0.91255466  0.76922307  1
  H+  H342  1  0.36217518  0.63892419  0.16741317  1
  H+  H343  1  0.78039690  0.13040965  0.66942801  1
  H+  H344  1  0.89555800  0.01732967  0.66054446  1
  H+  H345  1  0.40277949  0.32901469  0.25341571  1
  H+  H346  1  0.04968217  0.36781959  0.67650444  1
  H+  H347  1  0.15964108  0.07923974  0.24932569  1
  H+  H348  1  0.84815355  0.67311209  0.08405616  1
  H+  H349  1  0.12961280  0.80946621  0.95810318  1
  H+  H350  1  0.67308498  0.83973571  0.90711329  1
  H+  H351  1  0.42914495  0.09398154  0.23237240  1
  H+  H352  1  0.85655522  0.96921405  0.34483320  1
  H+  H353  1  0.60710717  0.57182072  0.59674125  1
  H+  H354  1  0.92123223  0.07743037  0.92537050  1
  H+  H355  1  0.92583365  0.58969133  0.89965932  1
  H+  H356  1  0.09247645  0.69148085  0.42635488  1
  H+  H357  1  0.93687523  0.82846989  0.61974892  1
  H+  H358  1  0.94702845  0.62849867  0.57307218  1
  H+  H359  1  0.60716012  0.88043490  0.34627069  1
  H+  H360  1  0.12219708  0.36623812  0.82475488  1
  H+  H361  1  0.17836632  0.08062209  0.59530701  1
  H+  H362  1  0.78274047  0.36978582  0.45662900  1
  H+  H363  1  0.91491037  0.83004554  0.22109681  1
  H+  H364  1  0.82588121  0.63546599  0.39441784  1
  H+  H365  1  0.17326289  0.34303408  0.27467358  1
  H+  H366  1  0.66560572  0.08220218  0.89918347  1
  H+  H367  1  0.62000149  0.76824954  0.51606078  1
  H+  H368  1  0.89358138  0.39324727  0.67665947  1
  H+  H369  1  0.32526278  0.16711821  0.06441674  1
  H+  H370  1  0.07125930  0.41624856  0.07168855  1
  H+  H371  1  0.09616006  0.17059962  0.71803510  1
  H+  H372  1  0.81966499  0.15394804  0.40421621  1
  H+  H373  1  0.35450831  0.41456799  0.72383261  1
  H+  H374  1  0.89762707  0.33821674  0.94956550  1
  H+  H375  1  0.43051099  0.84357578  0.94621383  1
  H+  H376  1  0.41532335  0.59452431  0.57704100  1
  H+  H377  1  0.10526233  0.93263733  0.77450596  1
  H+  H378  1  0.41219405  0.57717479  0.90360689  1
  H+  H379  1  0.56504878  0.42397405  0.04614062  1
  H+  H380  1  0.08640959  0.42026480  0.40760000  1
  H+  H381  1  0.67769019  0.59798488  0.93604648  1
  H+  H382  1  0.41966561  0.83167541  0.27103025  1
  H+  H383  1  0.60816168  0.38124480  0.73610636  1
  O2-  O384  1  0.08321868  0.15415398  0.14416285  1
  O2-  O385  1  0.11942720  0.19299461  0.46657873  1
  O2-  O386  1  0.08659662  0.17172493  0.80069537  1
  O2-  O387  1  0.06041935  0.40838712  0.15024182  1
  O2-  O388  1  0.09026898  0.40834654  0.48123928  1
  O2-  O389  1  0.06226307  0.41228838  0.86831240  1
  O2-  O390  1  0.04148086  0.58475815  0.13585331  1
  O2-  O391  1  0.09770238  0.70117695  0.47189454  1
  O2-  O392  1  0.10286924  0.69180852  0.82436514  1
  O2-  O393  1  0.09636571  0.92591140  0.14446817  1
  O2-  O394  1  0.10788849  0.92638931  0.46833095  1
  O2-  O395  1  0.09972926  0.93883163  0.81889754  1
  O2-  O396  1  0.33303637  0.16323470  0.14214824  1
  O2-  O397  1  0.35341979  0.18929924  0.47063325  1
  O2-  O398  1  0.37537430  0.22929266  0.82756641  1
  O2-  O399  1  0.33269903  0.42538942  0.14636111  1
  O2-  O400  1  0.35821225  0.41963526  0.41941744  1
  O2-  O401  1  0.33350215  0.41078506  0.80347695  1
  O2-  O402  1  0.32739627  0.66466800  0.15264215  1
  O2-  O403  1  0.32470851  0.66252033  0.49112387  1
  O2-  O404  1  0.34060983  0.68022224  0.82608184  1
  O2-  O405  1  0.34011754  0.92549844  0.14862979  1
  O2-  O406  1  0.33758139  0.93838503  0.46665277  1
  O2-  O407  1  0.36235963  0.96112101  0.81218279  1
  O2-  O408  1  0.59631697  0.15841652  0.15040204  1
  O2-  O409  1  0.59800288  0.17473748  0.48239305  1
  O2-  O410  1  0.59403496  0.18707170  0.81560468  1
  O2-  O411  1  0.54260016  0.45086803  0.11597890  1
  O2-  O412  1  0.64415167  0.42428800  0.47557320  1
  O2-  O413  1  0.58765816  0.41917329  0.87070685  1
  O2-  O414  1  0.58204931  0.67059583  0.14949376  1
  O2-  O415  1  0.57483250  0.67096493  0.48632929  1
  O2-  O416  1  0.58496360  0.67078151  0.82663834  1
  O2-  O417  1  0.57681670  0.90488896  0.12314362  1
  O2-  O418  1  0.57334334  0.91361170  0.48724556  1
  O2-  O419  1  0.60118633  0.93347487  0.81770621  1
  O2-  O420  1  0.81694621  0.13110663  0.19289038  1
  O2-  O421  1  0.81734320  0.15789783  0.48360905  1
  O2-  O422  1  0.83817825  0.15755947  0.80484485  1
  O2-  O423  1  0.77379467  0.44601902  0.13250560  1
  O2-  O424  1  0.79131844  0.36344301  0.50006677  1
  O2-  O425  1  0.84390424  0.42589268  0.81170923  1
  O2-  O426  1  0.85175389  0.67835215  0.13235909  1
  O2-  O427  1  0.77162656  0.57300460  0.50568019  1
  O2-  O428  1  0.83792790  0.66738537  0.81179760  1
  O2-  O429  1  0.83596016  0.90026354  0.13327617  1
  O2-  O430  1  0.80875168  0.90863146  0.47671105  1
  O2-  O431  1  0.83883213  0.91411082  0.81469752  1
  O2-  O432  1  0.16685797  0.07893901  0.18734505  1
  O2-  O433  1  0.18640094  0.09563944  0.51411850  1
  O2-  O434  1  0.16078065  0.09925626  0.85541252  1
  O2-  O435  1  0.15547409  0.33172271  0.14604443  1
  O2-  O436  1  0.20612700  0.35511362  0.49375688  1
  O2-  O437  1  0.14917131  0.34473560  0.79593364  1
  O2-  O438  1  0.16616966  0.56863416  0.19656889  1
  O2-  O439  1  0.16433418  0.55584518  0.53359356  1
  O2-  O440  1  0.16987235  0.59620591  0.86605814  1
  O2-  O441  1  0.18406889  0.84741203  0.18324956  1
  O2-  O442  1  0.18935255  0.84636235  0.51028698  1
  O2-  O443  1  0.19690714  0.86324036  0.86981837  1
  O2-  O444  1  0.42656995  0.09371899  0.18669816  1
  O2-  O445  1  0.46478096  0.16998269  0.54411696  1
  O2-  O446  1  0.43125948  0.12874039  0.84138700  1
  O2-  O447  1  0.40616079  0.32993128  0.17478486  1
  O2-  O448  1  0.47538730  0.36168569  0.44812863  1
  O2-  O449  1  0.41000763  0.30974207  0.85049493  1
  O2-  O450  1  0.42055142  0.59092259  0.19294827  1
  O2-  O451  1  0.40827781  0.58803837  0.53233949  1
  O2-  O452  1  0.41328557  0.58090685  0.85820104  1
  O2-  O453  1  0.41759642  0.83270955  0.18945667  1
  O2-  O454  1  0.40922831  0.82354063  0.54199519  1
  O2-  O455  1  0.42951256  0.85242101  0.86566170  1
  O2-  O456  1  0.65356021  0.05097276  0.18507257  1
  O2-  O457  1  0.65548766  0.07584596  0.52599430  1
  O2-  O458  1  0.70816846  0.13604062  0.87901994  1
  O2-  O459  1  0.73898099  0.30597499  0.20255906  1
  O2-  O460  1  0.70391702  0.32474722  0.52542020  1
  O2-  O461  1  0.66592919  0.35417028  0.80100704  1
  O2-  O462  1  0.65982546  0.58076525  0.19700939  1
  O2-  O463  1  0.64528628  0.60969217  0.56400630  1
  O2-  O464  1  0.67563367  0.59472160  0.85900602  1
  O2-  O465  1  0.69123887  0.88179374  0.19058103  1
  O2-  O466  1  0.65076873  0.82812217  0.53406546  1
  O2-  O467  1  0.67602608  0.83973481  0.86209698  1
  O2-  O468  1  0.90652302  0.07714273  0.13111197  1
  O2-  O469  1  0.89378668  0.06619828  0.51991721  1
  O2-  O470  1  0.92655984  0.08194080  0.84764561  1
  O2-  O471  1  0.90289254  0.31575076  0.20293248  1
  O2-  O472  1  0.91925504  0.31952476  0.52761219  1
  O2-  O473  1  0.86230778  0.31005725  0.87384488  1
  O2-  O474  1  0.90512291  0.58499207  0.18360189  1
  O2-  O475  1  0.94231222  0.64312252  0.53028153  1
  O2-  O476  1  0.93144389  0.59425239  0.85437519  1
  O2-  O477  1  0.91997278  0.83157567  0.17694474  1
  O2-  O478  1  0.93939203  0.78599982  0.48603344  1
  O2-  O479  1  0.92538884  0.83230037  0.84505553  1
  O2-  O480  1  0.15685984  0.08020640  0.29895640  1
  O2-  O481  1  0.17353190  0.07409388  0.64028401  1
  O2-  O482  1  0.16410626  0.09658536  0.96891368  1
  O2-  O483  1  0.16939276  0.33290968  0.31838055  1
  O2-  O484  1  0.20664267  0.33859024  0.62335650  1
  O2-  O485  1  0.16143197  0.33847227  0.98975962  1
  O2-  O486  1  0.16764896  0.58892320  0.32048716  1
  O2-  O487  1  0.17432121  0.56370151  0.66185201  1
  O2-  O488  1  0.17187360  0.58856822  0.98795826  1
  O2-  O489  1  0.16963118  0.84272504  0.30510038  1
  O2-  O490  1  0.18709449  0.83539952  0.65030928  1
  O2-  O491  1  0.14595670  0.81752681  1.00116641  1
  O2-  O492  1  0.43487548  0.09152839  0.30997571  1
  O2-  O493  1  0.43323514  0.08072855  0.65214671  1
  O2-  O494  1  0.40342049  0.07594822  0.99020561  1
  O2-  O495  1  0.40570218  0.33099208  0.29885435  1
  O2-  O496  1  0.44332041  0.30686251  0.64970232  1
  O2-  O497  1  0.40222504  0.32891738  0.97346982  1
  O2-  O498  1  0.41707936  0.58727749  0.31567546  1
  O2-  O499  1  0.42119575  0.59694502  0.65912979  1
  O2-  O500  1  0.41799431  0.58684375  0.98240847  1
  O2-  O501  1  0.41501980  0.83051231  0.31617299  1
  O2-  O502  1  0.42480732  0.83056881  0.65929481  1
  O2-  O503  1  0.42539856  0.84445180  0.99139733  1
  O2-  O504  1  0.65858071  0.06737760  0.31143783  1
  O2-  O505  1  0.67495727  0.07832882  0.64886977  1
  O2-  O506  1  0.59748642  0.03027076  0.97056400  1
  O2-  O507  1  0.68309174  0.33204171  0.31868838  1
  O2-  O508  1  0.69970970  0.33465509  0.65159347  1
  O2-  O509  1  0.65957172  0.32586844  0.98045057  1
  O2-  O510  1  0.64917297  0.56910731  0.31709887  1
  O2-  O511  1  0.55735907  0.51679010  0.66526922  1
  O2-  O512  1  0.67571878  0.59186790  0.98175255  1
  O2-  O513  1  0.66385084  0.82865420  0.31601266  1
  O2-  O514  1  0.67728720  0.82800635  0.65669488  1
  O2-  O515  1  0.66619768  0.83315188  0.98999622  1
  O2-  O516  1  0.90438548  0.06401581  0.32193104  1
  O2-  O517  1  0.92447086  0.07712114  0.64378052  1
  O2-  O518  1  0.91661923  0.07673123  0.97097650  1
  O2-  O519  1  0.92004838  0.32664126  0.32456632  1
  O2-  O520  1  0.93980075  0.33179315  0.65221942  1
  O2-  O521  1  0.90684370  0.33628105  0.99417933  1
  O2-  O522  1  0.92199938  0.58368324  0.30713576  1
  O2-  O523  1  0.94173828  0.59406492  0.65699319  1
  O2-  O524  1  0.91595920  0.58203051  0.97826249  1
  O2-  O525  1  0.91502665  0.82426877  0.36005536  1
  O2-  O526  1  0.93885831  0.82882581  0.66402580  1
  O2-  O527  1  0.91725933  0.82973446  0.96725217  1
  O2-  O528  1  0.07422304  0.16251101  0.02129246  1
  O2-  O529  1  0.08539627  0.16206713  0.34521240  1
  O2-  O530  1  0.09838755  0.16815071  0.67302814  1
  O2-  O531  1  0.07356913  0.41589470  0.02613792  1
  O2-  O532  1  0.08631253  0.42276175  0.36147741  1
  O2-  O533  1  0.11154333  0.39428670  0.68796376  1
  O2-  O534  1  0.07518478  0.65191506  0.02832462  1
  O2-  O535  1  0.08909181  0.67828428  0.35153110  1
  O2-  O536  1  0.10291196  0.67153513  0.69859873  1
  O2-  O537  1  0.08856230  0.93392932  -0.02011401  1
  O2-  O538  1  0.09168845  0.92552745  0.34532557  1
  O2-  O539  1  0.10095857  0.91606323  0.68904257  1
  O2-  O540  1  0.32658060  0.17187081  0.01903488  1
  O2-  O541  1  0.35168481  0.16612531  0.34797805  1
  O2-  O542  1  0.33822716  0.15406833  0.69413996  1
  O2-  O543  1  0.33686227  0.42027292  0.02348455  1
  O2-  O544  1  0.33536165  0.41248619  0.35442329  1
  O2-  O545  1  0.36836658  0.42310180  0.67959030  1
  O2-  O546  1  0.34070988  0.67431415  0.02896303  1
  O2-  O547  1  0.33571958  0.66478279  0.36172592  1
  O2-  O548  1  0.33480241  0.67056302  0.70163989  1
  O2-  O549  1  0.30727671  0.91358130  -0.03265165  1
  O2-  O550  1  0.33874082  0.92225658  0.34771923  1
  O2-  O551  1  0.34693350  0.91823780  0.69281897  1
  O2-  O552  1  0.57739206  0.16242498  0.02758379  1
  O2-  O553  1  0.59131153  0.16298998  0.35993999  1
  O2-  O554  1  0.59948422  0.16751241  0.69222691  1
  O2-  O555  1  0.56892063  0.41471797  0.00158846  1
  O2-  O556  1  0.57101538  0.39556289  0.33685638  1
  O2-  O557  1  0.59925966  0.39462874  0.69423175  1
  O2-  O558  1  0.58441775  0.66657924  0.02462697  1
  O2-  O559  1  0.58239626  0.66781143  0.35860582  1
  O2-  O560  1  0.57914232  0.66842390  0.70539353  1
  O2-  O561  1  0.58134237  0.90843671  0.05615120  1
  O2-  O562  1  0.57659061  0.90967680  0.36201060  1
  O2-  O563  1  0.59593321  0.91698773  0.69518408  1
  O2-  O564  1  0.82127826  0.16105391  -0.01684186  1
  O2-  O565  1  0.82427036  0.15371446  0.35892079  1
  O2-  O566  1  0.84141529  0.16111596  0.68475689  1
  O2-  O567  1  0.81509128  0.42047053  0.02224999  1
  O2-  O568  1  0.86253053  0.43626090  0.36926438  1
  O2-  O569  1  0.86550909  0.42653294  0.69049949  1
  O2-  O570  1  0.83974116  0.66576946  0.01949011  1
  O2-  O571  1  0.82571277  0.65002564  0.35169568  1
  O2-  O572  1  0.86577096  0.66736315  0.69883644  1
  O2-  O573  1  0.83523679  0.90836983  0.01259905  1
  O2-  O574  1  0.82459202  0.90689090  0.36077001  1
  O2-  O575  1  0.84204226  0.91364483  0.69121578  1
