# generated using pymatgen
data_H2O
_symmetry_space_group_name_H-M   'P 1'
_cell_length_a   17.98486135
_cell_length_b   17.98725922
_cell_length_c   22.00356147
_cell_angle_alpha   90.02915406
_cell_angle_beta   90.00057045
_cell_angle_gamma   119.98632448
_symmetry_Int_Tables_number   1
_chemical_formula_structural   H2O
_chemical_formula_sum   'H384 O192'
_cell_volume   6165.31761001
_cell_formula_units_Z   192
loop_
 _symmetry_equiv_pos_site_id
 _symmetry_equiv_pos_as_xyz
  1  'x, y, z'
loop_
 _atom_type_symbol
 _atom_type_oxidation_number
  H+  1.0
  O2-  -2.0
loop_
 _atom_site_type_symbol
 _atom_site_label
 _atom_site_symmetry_multiplicity
 _atom_site_fract_x
 _atom_site_fract_y
 _atom_site_fract_z
 _atom_site_occupancy
  H+  H0  1  0.78140317  0.38675836  0.83518883  1
  H+  H1  1  0.65434660  0.65381130  0.82764028  1
  H+  H2  1  0.39319496  0.35730773  0.82718482  1
  H+  H3  1  0.58277935  0.52478063  0.30010979  1
  H+  H4  1  0.38572263  0.55265865  0.33456189  1
  H+  H5  1  0.08896822  0.25110974  0.93186938  1
  H+  H6  1  0.55044991  0.14885991  0.14201496  1
  H+  H7  1  0.37302052  0.73857289  0.67009257  1
  H+  H8  1  0.56224985  0.15969852  0.79525714  1
  H+  H9  1  0.12802771  0.60878466  0.51392692  1
  H+  H10  1  0.60805125  0.47574324  0.99079358  1
  H+  H11  1  0.58841780  0.97307384  0.49536532  1
  H+  H12  1  0.85139223  0.41725783  0.77337968  1
  H+  H13  1  -0.02040535  0.12399306  0.03283690  1
  H+  H14  1  0.09606657  0.47029547  0.49664750  1
  H+  H15  1  0.12667357  0.22778530  0.66614984  1
  H+  H16  1  0.78035333  0.38975327  0.15819489  1
  H+  H17  1  0.38683947  0.27931184  0.49967463  1
  H+  H18  1  0.65217274  0.28108771  0.16520387  1
  H+  H19  1  0.02249012  0.62931585  0.34281493  1
  H+  H20  1  0.82572006  0.65857795  0.05277648  1
  H+  H21  1  0.63538102  0.86103094  0.17747997  1
  H+  H22  1  0.66648989  0.57271036  0.60585684  1
  H+  H23  1  0.85012121  0.20232455  0.66990365  1
  H+  H24  1  0.87854798  0.85923816  0.51599018  1
  H+  H25  1  0.20823080  0.59737828  0.52417726  1
  H+  H26  1  0.40081599  0.77536552  0.00630871  1
  H+  H27  1  1.00211279  0.62238974  0.69093461  1
  H+  H28  1  0.13556175  0.79663701  0.99745815  1
  H+  H29  1  0.52765200  0.64717496  0.34723768  1
  H+  H30  1  0.14983892  0.37493925  0.83165929  1
  H+  H31  1  0.96881103  0.62291241  0.99385902  1
  H+  H32  1  0.62269611  0.11127462  0.50777495  1
  H+  H33  1  0.48210169  0.62905422  0.66278851  1
  H+  H34  1  0.70353642  0.90495354  0.57572714  1
  H+  H35  1  0.64174714  0.36481582  0.50656930  1
  H+  H36  1  0.48195579  0.95675448  0.73414259  1
  H+  H37  1  0.89293161  0.51940766  0.17533846  1
  H+  H38  1  0.73143517  0.87474508  0.82535972  1
  H+  H39  1  0.96507314  0.35208020  0.51277908  1
  H+  H40  1  0.27861038  0.65162750  0.33178873  1
  H+  H41  1  0.11958198  0.50566583  0.83059445  1
  H+  H42  1  0.22719344  0.38042146  0.51103255  1
  H+  H43  1  0.42474151  0.54094317  0.98799005  1
  H+  H44  1  0.68287863  0.83718979  0.92646043  1
  H+  H45  1  0.39499088  0.77828267  0.33112293  1
  H+  H46  1  0.89429778  0.69558102  0.83103202  1
  H+  H47  1  0.88169920  1.02241588  0.32433985  1
  H+  H48  1  0.12755647  0.86257965  0.83729711  1
  H+  H49  1  0.87775859  0.23681474  0.31440701  1
  H+  H50  1  0.14759694  0.28637715  0.35620547  1
  H+  H51  1  0.72722700  0.61434462  0.97468446  1
  H+  H52  1  0.23276975  0.62256122  0.16676717  1
  H+  H53  1  0.08807289  0.71231504  0.69831300  1
  H+  H54  1  0.77725587  0.14126885  0.32579683  1
  H+  H55  1  0.38093044  0.85053077  0.83571552  1
  H+  H56  1  0.16823998  0.34185608  0.60258657  1
  H+  H57  1  0.10019344  0.14330928  0.85687282  1
  H+  H58  1  0.61179062  0.17791869  0.08521323  1
  H+  H59  1  0.87155158  0.38025064  0.68982327  1
  H+  H60  1  0.89317131  0.26601636  0.14918309  1
  H+  H61  1  0.08420857  0.23349749  1.00200963  1
  H+  H62  1  0.85301707  0.21492544  0.50211160  1
  H+  H63  1  0.61708565  0.45725340  0.67476163  1
  H+  H64  1  0.89031282  0.86710925  0.33774096  1
  H+  H65  1  0.02400737  0.75299764  0.05373273  1
  H+  H66  1  0.86449394  0.38222476  0.15053499  1
  H+  H67  1  0.73939224  0.62195043  0.17082885  1
  H+  H68  1  0.62382982  0.75047117  0.82135847  1
  H+  H69  1  0.35468016  0.12031560  0.36128792  1
  H+  H70  1  0.63592877  0.73540740  -0.00512132  1
  H+  H71  1  0.85604113  0.72672715  -0.00162053  1
  H+  H72  1  1.03997551  0.13813334  0.66458878  1
  H+  H73  1  0.10809444  1.02608894  -0.00336858  1
  H+  H74  1  0.87092969  0.98641614  0.49182783  1
  H+  H75  1  0.35177012  0.21568374  0.82665098  1
  H+  H76  1  0.66549943  0.49432614  0.34665174  1
  H+  H77  1  0.37633828  0.76052965  0.83234165  1
  H+  H78  1  0.35587983  0.61934949  0.49364908  1
  H+  H79  1  0.73431637  0.35253229  0.33063875  1
  H+  H80  1  0.29562645  0.90111585  0.15812845  1
  H+  H81  1  0.77694455  0.89167629  0.34041134  1
  H+  H82  1  0.10060625  0.99165869  0.17593119  1
  H+  H83  1  0.31280255  0.92105315  0.49822196  1
  H+  H84  1  0.31894984  0.15014082  0.77086314  1
  H+  H85  1  0.65114774  0.07239742  0.56294021  1
  H+  H86  1  0.90353032  0.31618512  0.90225848  1
  H+  H87  1  -0.02589343  0.61094182  0.51424764  1
  H+  H88  1  0.16911217  0.73064405  0.47177266  1
  H+  H89  1  0.41588829  1.06819582  0.30046061  1
  H+  H90  1  0.20742750  0.10770080  0.84208257  1
  H+  H91  1  0.23087620  0.36992974  0.65969469  1
  H+  H92  1  0.18280184  0.40727002  0.18733908  1
  H+  H93  1  0.17439566  0.59270615  0.26368096  1
  H+  H94  1  0.02258463  0.88276598  0.35017787  1
  H+  H95  1  0.63177108  0.58677901  0.66905632  1
  H+  H96  1  0.34361067  0.96156723  0.83312557  1
  H+  H97  1  0.13461008  0.09925302  0.32401214  1
  H+  H98  1  0.48674345  0.10685908  0.35206607  1
  H+  H99  1  0.88079072  0.10542572  0.50481543  1
  H+  H100  1  0.92461892  0.31951654  0.24655921  1
  H+  H101  1  0.44287643  0.09673610  0.84988196  1
  H+  H102  1  0.74213356  0.86243659  0.98672462  1
  H+  H103  1  0.18849063  0.85596176  0.68379580  1
  H+  H104  1  0.89222822  0.83446391  0.58318090  1
  H+  H105  1  0.77701464  0.63546430  0.50540748  1
  H+  H106  1  0.10411401  0.37430202  0.67887281  1
  H+  H107  1  0.71588738  0.36234724  -0.00895539  1
  H+  H108  1  0.38360372  0.25176477  0.66568796  1
  H+  H109  1  0.64505606  0.11283861  -0.02185060  1
  H+  H110  1  0.35228020  0.42242972  0.72371571  1
  H+  H111  1  0.60270374  0.38508341  0.99552413  1
  H+  H112  1  0.44533959  0.10975813  0.20576118  1
  H+  H113  1  0.53201400  0.63760460  0.15108837  1
  H+  H114  1  0.84372651  0.75035369  0.19473086  1
  H+  H115  1  0.61610482  0.22218437  0.34573617  1
  H+  H116  1  0.75366340  0.66487544  0.83612725  1
  H+  H117  1  0.90805556  0.82855847  0.93162649  1
  H+  H118  1  0.95697147  0.35298420  0.98766197  1
  H+  H119  1  0.63168610  0.06559979  0.65813971  1
  H+  H120  1  0.86809003  -0.03311762  0.82529105  1
  H+  H121  1  0.53070325  0.37378148  0.82731162  1
  H+  H122  1  0.11471082  0.76889448  0.84608979  1
  H+  H123  1  0.87522311  0.62919537  0.15832036  1
  H+  H124  1  0.11803959  0.65940186  0.16319936  1
  H+  H125  1  0.24865778  0.11912360  0.51255147  1
  H+  H126  1  0.35924563  0.22687358  0.00021416  1
  H+  H127  1  0.87389467  0.81321047  0.25025565  1
  H+  H128  1  0.94435751  0.61287617  0.88970535  1
  H+  H129  1  -0.00342733  0.90288211  0.68061604  1
  H+  H130  1  0.50445824  0.86070477  0.80795304  1
  H+  H131  1  0.50527137  0.34103968  0.32999758  1
  H+  H132  1  0.90756137  0.72357027  0.13489456  1
  H+  H133  1  0.86643035  0.13305328  0.32500514  1
  H+  H134  1  0.11601109  0.90176193  1.00284313  1
  H+  H135  1  0.64257514  0.11608320  0.32868687  1
  H+  H136  1  0.32981440  0.84317237  0.50028826  1
  H+  H137  1  0.88986717  0.61069151  0.33489429  1
  H+  H138  1  0.03994191  0.65254447  0.78592282  1
  H+  H139  1  0.86105660  0.72742579  0.51002128  1
  H+  H140  1  0.77609480  0.63124935  0.68174905  1
  H+  H141  1  0.25587394  0.43489520  0.35809468  1
  H+  H142  1  0.36907973  0.36169065  0.35259510  1
  H+  H143  1  0.40197410  0.86661724  0.14853092  1
  H+  H144  1  0.10878730  0.23294533  0.83948806  1
  H+  H145  1  0.58080061  0.91566173  0.40489795  1
  H+  H146  1  0.38441062  0.39923765  0.16821168  1
  H+  H147  1  0.08198478  0.35745509  -0.00662975  1
  H+  H148  1  0.11773203  0.02059503  0.83989754  1
  H+  H149  1  0.86883222  0.35304853  0.98734355  1
  H+  H150  1  -0.03500695  0.10889757  0.85395306  1
  H+  H151  1  0.29340884  0.38463374  0.18606403  1
  H+  H152  1  0.15619166  0.24209658  0.19533855  1
  H+  H153  1  0.18186789  0.38630416  0.15713795  1
  H+  H154  1  0.10382515  0.58942489  0.68166899  1
  H+  H155  1  0.14619202  0.67855895  0.99225892  1
  H+  H156  1  0.26083186  0.87185554  0.82234605  1
  H+  H157  1  0.01375757  0.87636331  0.82574022  1
  H+  H158  1  0.64022067  0.87334221  0.82216509  1
  H+  H159  1  0.63561334  -0.00872531  0.14862503  1
  H+  H160  1  0.38108947  0.15080466  0.50967617  1
  H+  H161  1  0.39578760  0.52828895  0.17823334  1
  H+  H162  1  0.48481728  0.62480366  0.82913156  1
  H+  H163  1  0.62893340  0.03291103  0.81430282  1
  H+  H164  1  0.08826463  0.45511678  0.68250947  1
  H+  H165  1  0.40782214  0.64443122  0.31996717  1
  H+  H166  1  1.01914114  0.12758666  0.31735321  1
  H+  H167  1  0.36385860  0.12527363  0.67758275  1
  H+  H168  1  0.27609400  0.88913958  1.00308251  1
  H+  H169  1  0.38102252  0.48155788  0.81534691  1
  H+  H170  1  0.66525748  0.40583991  0.35241490  1
  H+  H171  1  0.85521170  0.47371706  0.00003329  1
  H+  H172  1  0.87966096  0.61142809  -0.02061952  1
  H+  H173  1  0.37628409  0.75498773  0.50745458  1
  H+  H174  1  0.85791569  0.46720453  0.34450040  1
  H+  H175  1  0.36720083  0.63660477  0.67318982  1
  H+  H176  1  0.62516472  0.76875484  0.18033142  1
  H+  H177  1  0.10262837  0.11261276  0.16614507  1
  H+  H178  1  0.13256479  0.36875336  0.50830962  1
  H+  H179  1  0.59865500  0.42787976  0.09214999  1
  H+  H180  1  0.64032337  0.34490478  0.65769428  1
  H+  H181  1  0.66007118  0.28404039  0.83138739  1
  H+  H182  1  0.64115180  0.61953996  0.97719125  1
  H+  H183  1  0.35683203  0.10028445  0.84640462  1
  H+  H184  1  0.41860273  0.03533645  0.66100537  1
  H+  H185  1  0.40832555  0.40051127  0.36487345  1
  H+  H186  1  0.10184518  0.89628824  0.50354749  1
  H+  H187  1  0.77317777  0.38400148  0.49737003  1
  H+  H188  1  0.88621163  0.86746514  0.99071341  1
  H+  H189  1  0.13482122  0.01032909  0.33432295  1
  H+  H190  1  0.86261480  0.47183998  0.49969144  1
  H+  H191  1  0.41582266  0.29106462  0.15705975  1
  H+  H192  1  0.61493013  0.64504932  0.34537703  1
  H+  H193  1  0.36830721  0.35569444  -0.02917222  1
  H+  H194  1  0.65385617  0.53130614  0.16483068  1
  H+  H195  1  0.21093169  0.36351953  0.87952549  1
  H+  H196  1  0.28708450  0.43466016  -0.03020465  1
  H+  H197  1  0.21454352  0.85064396  0.32646584  1
  H+  H198  1  0.40021037  0.53053460  0.66118390  1
  H+  H199  1  0.83268425  0.86765530  0.16475790  1
  H+  H200  1  0.36614766  0.14293171  1.00921654  1
  H+  H201  1  0.61777536  0.16446856  0.71032877  1
  H+  H202  1  0.88836399  0.61600243  0.51568284  1
  H+  H203  1  0.49519133  0.87323314  0.33806689  1
  H+  H204  1  0.07677580  0.88395582  0.68004961  1
  H+  H205  1  0.36993341  0.48871408  0.50295969  1
  H+  H206  1  0.13071172  0.02209298  0.65799169  1
  H+  H207  1  0.40696907  0.03778727  0.15472348  1
  H+  H208  1  0.76585121  0.12682193  0.49658455  1
  H+  H209  1  0.14620383  1.01905404  0.50332112  1
  H+  H210  1  0.63915125  0.52337103  0.51242006  1
  H+  H211  1  0.86820672  0.37343702  0.83806448  1
  H+  H212  1  0.53208619  0.89734904  0.00643703  1
  H+  H213  1  0.39118960  0.02549562  1.00086241  1
  H+  H214  1  0.65096296  0.36949077  0.16826064  1
  H+  H215  1  0.61771332  0.22554186  0.99378216  1
  H+  H216  1  0.39589304  0.87041992  0.33748876  1
  H+  H217  1  0.35451986  0.62455073  0.82178380  1
  H+  H218  1  0.80331317  0.87437927  0.66780124  1
  H+  H219  1  0.61832040  0.91829396  0.63452842  1
  H+  H220  1  0.38956219  0.16110690  0.14377088  1
  H+  H221  1  0.62231140  0.64072585  0.15222921  1
  H+  H222  1  0.88001103  0.26098899  0.83867298  1
  H+  H223  1  0.09233200  0.92981565  0.43665113  1
  H+  H224  1  0.10798438  0.38859506  0.34215359  1
  H+  H225  1  0.61944892  0.23047614  0.49703939  1
  H+  H226  1  0.62567018  0.99606720  -0.01071133  1
  H+  H227  1  0.59058649  0.16715842  0.40841665  1
  H+  H228  1  0.09571008  0.76654835  0.52534221  1
  H+  H229  1  0.45805372  0.84999402  0.50553719  1
  H+  H230  1  0.21458207  0.33812235  0.96759599  1
  H+  H231  1  0.87867114  0.35531211  0.51388913  1
  H+  H232  1  0.89401302  0.10126093  0.65825378  1
  H+  H233  1  0.64392924  1.02875213  0.32555600  1
  H+  H234  1  0.77954250  0.63862528  0.35504659  1
  H+  H235  1  0.53177936  0.13466477  -0.00034801  1
  H+  H236  1  0.88104748  0.60336124  0.67060711  1
  H+  H237  1  0.10347851  0.74232171  0.17804310  1
  H+  H238  1  0.36447148  0.88423787  0.01122508  1
  H+  H239  1  0.51564957  0.36921764  0.30233567  1
  H+  H240  1  0.59177759  0.88893159  0.50739571  1
  H+  H241  1  0.64024379  0.61351041  0.51593553  1
  H+  H242  1  0.14516189  0.11757188  0.65412991  1
  H+  H243  1  0.48290915  0.62410442  0.51285730  1
  H+  H244  1  0.50874622  0.63115836  -0.01554580  1
  H+  H245  1  0.28991218  0.39622858  0.80910478  1
  H+  H246  1  0.78910762  0.12988323  0.13797158  1
  H+  H247  1  0.23750971  0.25869038  0.23565440  1
  H+  H248  1  0.64031247  0.78183963  0.33686713  1
  H+  H249  1  0.85833102  0.12575310  0.82313767  1
  H+  H250  1  0.54420934  0.13161283  0.66026752  1
  H+  H251  1  0.88982252  0.77743791  0.34249305  1
  H+  H252  1  0.59207173  0.40576048  0.77047247  1
  H+  H253  1  0.54749288  0.40094703  0.15461381  1
  H+  H254  1  0.37408160  0.39014650  0.66248075  1
  H+  H255  1  0.52441373  0.14825431  0.50307676  1
  H+  H256  1  0.18034962  0.87183049  0.19242675  1
  H+  H257  1  0.01615739  0.37254929  0.83199165  1
  H+  H258  1  0.46351508  0.36880739  0.98412183  1
  H+  H259  1  0.64229225  0.14895850  0.81305465  1
  H+  H260  1  0.96102812  0.33691834  0.66746709  1
  H+  H261  1  0.89151174  0.10667036  0.16792205  1
  H+  H262  1  0.90256748  0.31722400  0.60814961  1
  H+  H263  1  -0.02070317  0.61268285  0.18064739  1
  H+  H264  1  0.06792032  0.85897374  0.16858368  1
  H+  H265  1  0.10755440  0.41417103  0.14086751  1
  H+  H266  1  0.52766869  0.36941924  0.67844801  1
  H+  H267  1  0.37067423  0.63677633  0.15777161  1
  H+  H268  1  0.61833145  0.73099199  0.50251006  1
  H+  H269  1  0.02046355  0.88737770  0.00274158  1
  H+  H270  1  0.10997460  0.65610070  -0.03044540  1
  H+  H271  1  0.62681268  0.99955758  0.70569238  1
  H+  H272  1  0.36474895  0.96345377  0.35909651  1
  H+  H273  1  0.30079471  0.18916888  0.28191273  1
  H+  H274  1  0.14867982  0.16446994  0.47523203  1
  H+  H275  1  0.72846613  0.10964895  0.82947756  1
  H+  H276  1  0.40360135  0.05754460  0.51572268  1
  H+  H277  1  -0.02734856  0.36272991  0.15135077  1
  H+  H278  1  0.38672615  0.64027263  0.99826758  1
  H+  H279  1  0.16189236  0.59414478  0.97959458  1
  H+  H280  1  0.11012100  0.45701571  -0.01419815  1
  H+  H281  1  0.61499679  0.88650317  0.34532608  1
  H+  H282  1  0.39917623  0.77449970  0.14700725  1
  H+  H283  1  0.87718577  0.47397603  0.68996181  1
  H+  H284  1  0.85905891  -0.03441512  0.15671318  1
  H+  H285  1  0.10341577  0.18481761  0.27978040  1
  H+  H286  1  0.10902007  0.47718409  0.33595376  1
  H+  H287  1  0.63271782  0.71777440  0.65751586  1
  H+  H288  1  0.38302061  0.92557412  0.74423845  1
  H+  H289  1  -0.02221111  0.35423628  0.31101794  1
  H+  H290  1  0.92069694  0.07801579  0.55970086  1
  H+  H291  1  0.34007524  0.92536589  0.09262310  1
  H+  H292  1  0.14864335  0.05376390  0.23207640  1
  H+  H293  1  0.43520304  0.46754147  0.05949931  1
  H+  H294  1  0.41469507  0.35260330  0.54913327  1
  H+  H295  1  0.88492195  0.07220260  0.89783235  1
  H+  H296  1  0.05932694  0.89828178  0.10455363  1
  H+  H297  1  0.66123807  0.58340267  0.25894305  1
  H+  H298  1  0.07184455  0.42750530  0.07931431  1
  H+  H299  1  0.07360467  0.15642551  0.11286038  1
  H+  H300  1  0.84584966  0.68859292  0.73141449  1
  H+  H301  1  0.13019840  0.56373589  0.61949337  1
  H+  H302  1  0.61663171  0.43494756  0.43869967  1
  H+  H303  1  0.36131026  0.39764011  0.48550894  1
  H+  H304  1  0.66410553  0.33246990  0.92896243  1
  H+  H305  1  0.83781175  0.66786478  0.41416297  1
  H+  H306  1  0.26132820  0.61919394  0.81889010  1
  H+  H307  1  0.09362623  0.67091012  0.42837774  1
  H+  H308  1  0.65023429  0.26228737  0.64602565  1
  H+  H309  1  0.60872027  0.93874039  0.05836962  1
  H+  H310  1  0.54738843  0.90130544  0.13944821  1
  H+  H311  1  0.26302212  0.11494253  0.35654394  1
  H+  H312  1  0.78169937  0.89588516  0.48448439  1
  H+  H313  1  0.59539962  0.69554342  0.76054230  1
  H+  H314  1  0.14258094  0.61802967  0.32431409  1
  H+  H315  1  0.41340579  0.86254965  0.67136626  1
  H+  H316  1  0.12797275  0.08156757  0.93666060  1
  H+  H317  1  0.68208363  0.09217680  0.22287243  1
  H+  H318  1  0.33559936  0.67389872  0.39246818  1
  H+  H319  1  0.43173175  0.33227510  0.22089735  1
  H+  H320  1  0.53267794  0.39564108  0.48401260  1
  H+  H321  1  0.41385392  0.32510308  0.88901100  1
  H+  H322  1  0.43193296  0.58965469  0.88992933  1
  H+  H323  1  0.85418058  0.13357206  0.08478737  1
  H+  H324  1  0.64862639  0.36751456  0.83708511  1
  H+  H325  1  0.44231268  0.29084671  0.60945931  1
  H+  H326  1  0.67137234  0.33124344  0.56502833  1
  H+  H327  1  0.79941798  0.10459784  -0.02845654  1
  H+  H328  1  0.67232752  0.32622662  0.27152658  1
  H+  H329  1  0.07072728  0.41605243  0.43440918  1
  H+  H330  1  0.82778999  0.41787179  0.06107736  1
  H+  H331  1  0.97777388  0.10325524  0.17840092  1
  H+  H332  1  0.13450603  0.82149490  0.62294375  1
  H+  H333  1  0.14231319  0.82314278  0.26995943  1
  H+  H334  1  0.58953258  0.77330145  0.66562149  1
  H+  H335  1  0.84003286  0.92556066  0.39844666  1
  H+  H336  1  0.40405965  0.81728846  0.60378350  1
  H+  H337  1  0.10916951  0.72202401  0.34012333  1
  H+  H338  1  0.33945993  0.65755179  0.09514822  1
  H+  H339  1  0.11837061  0.59472204  0.83794953  1
  H+  H340  1  0.33078273  0.66312615  0.73343170  1
  H+  H341  1  0.29268266  0.62691937  -0.00721505  1
  H+  H342  1  0.16821614  0.84263312  0.93222408  1
  H+  H343  1  0.43210922  0.09840890  0.60168981  1
  H+  H344  1  0.39019936  0.44862314  0.04703241  1
  H+  H345  1  0.42277083  0.59526187  0.57272114  1
  H+  H346  1  0.27171334  0.12192298  0.67292475  1
  H+  H347  1  0.87206977  0.83725974  0.82928435  1
  H+  H348  1  0.18825992  0.84142991  0.52821013  1
  H+  H349  1  0.06410286  0.70225076  0.08505348  1
  H+  H350  1  0.90805395  0.02032665  0.65434363  1
  H+  H351  1  0.76911350  0.10455460  0.67423909  1
  H+  H352  1  0.82946097  0.40905163  0.40331407  1
  H+  H353  1  0.65724273  0.83362477  0.27471227  1
  H+  H354  1  0.59003875  0.67486711  0.44165167  1
  H+  H355  1  0.17707116  0.32312316  0.29059029  1
  H+  H356  1  0.91541222  0.57924836  0.27408867  1
  H+  H357  1  0.66399325  0.07560662  0.91655916  1
  H+  H358  1  0.13722273  0.54396367  0.16211051  1
  H+  H359  1  0.34412551  0.18613546  0.09192811  1
  H+  H360  1  0.31233769  0.19667573  0.20991985  1
  H+  H361  1  0.17752830  0.56451485  0.91677646  1
  H+  H362  1  0.15077855  0.25130880  0.48206382  1
  H+  H363  1  0.83286858  0.15571247  0.76205584  1
  H+  H364  1  0.06988162  0.91983146  0.76690000  1
  H+  H365  1  0.31779875  0.46423938  0.41425106  1
  H+  H366  1  0.85537461  -0.01982132  1.01627388  1
  H+  H367  1  0.06957850  0.39871606  0.76914105  1
  H+  H368  1  0.43217992  0.59821880  0.23090734  1
  H+  H369  1  0.31607799  0.88334796  0.40443407  1
  H+  H370  1  0.33675334  0.16681978  0.44733338  1
  H+  H371  1  0.67899816  0.61120031  0.89257780  1
  H+  H372  1  0.90774006  0.07637976  0.26107008  1
  H+  H373  1  0.60081621  0.67279926  0.05559340  1
  H+  H374  1  0.40740772  0.08084101  0.94200598  1
  H+  H375  1  0.85107487  0.91299794  0.76334231  1
  H+  H376  1  0.65874627  0.12524819  0.16213080  1
  H+  H377  1  0.17660341  0.08133602  0.57141872  1
  H+  H378  1  0.27925532  0.57284865  0.44909192  1
  H+  H379  1  0.83364337  0.90951211  0.06676217  1
  H+  H380  1  0.10964975  0.87729084  0.34921627  1
  H+  H381  1  0.06647875  0.11832160  1.01521730  1
  H+  H382  1  0.91376220  0.57506709  0.61168384  1
  H+  H383  1  0.43044916  0.83593985  0.06323387  1
  O2-  O384  1  0.08115024  0.15454431  0.15793114  1
  O2-  O385  1  0.15689193  0.21413867  0.45191290  1
  O2-  O386  1  0.07134071  0.17840340  0.86074620  1
  O2-  O387  1  0.07312301  0.43804745  0.12458990  1
  O2-  O388  1  0.07083601  0.41139606  0.47950908  1
  O2-  O389  1  0.07579789  0.40589003  0.81508954  1
  O2-  O390  1  0.07906960  0.68235747  0.15521185  1
  O2-  O391  1  0.10932350  0.68424818  0.47354923  1
  O2-  O392  1  0.04092917  0.65714879  0.83248757  1
  O2-  O393  1  0.03706898  0.88452237  0.14663831  1
  O2-  O394  1  0.09515756  0.94081301  0.48218533  1
  O2-  O395  1  0.07379452  0.91369806  0.81239891  1
  O2-  O396  1  0.35940410  0.19360548  0.13744921  1
  O2-  O397  1  0.34092212  0.17467237  0.49277976  1
  O2-  O398  1  0.31646158  0.15287961  0.81617339  1
  O2-  O399  1  0.34706354  0.42511143  0.16521673  1
  O2-  O400  1  0.33236441  0.43237133  0.48291220  1
  O2-  O401  1  0.35220816  0.42244316  0.79795500  1
  O2-  O402  1  0.33944822  0.66524735  0.14001202  1
  O2-  O403  1  0.31057312  0.62712086  0.47173938  1
  O2-  O404  1  0.32225968  0.65190006  0.80519746  1
  O2-  O405  1  0.35162862  0.93213030  0.13857966  1
  O2-  O406  1  0.28847518  0.86183034  0.48436392  1
  O2-  O407  1  0.32325052  0.90540495  0.81277041  1
  O2-  O408  1  0.61228769  0.17988610  0.13091302  1
  O2-  O409  1  0.58401281  0.16840765  0.48436874  1
  O2-  O410  1  0.62426024  0.18816871  0.79088350  1
  O2-  O411  1  0.60716729  0.43090524  0.13704977  1
  O2-  O412  1  0.59622148  0.42699633  0.48244446  1
  O2-  O413  1  0.59221035  0.40648311  0.81571873  1
  O2-  O414  1  0.59159369  0.66853921  0.13433512  1
  O2-  O415  1  0.58825837  0.67196818  0.48751252  1
  O2-  O416  1  0.59676703  0.68870116  0.80517135  1
  O2-  O417  1  0.60926612  0.93355645  0.12821509  1
  O2-  O418  1  0.56038707  0.91044363  0.48245783  1
  O2-  O419  1  0.55972809  0.88413164  0.78357133  1
  O2-  O420  1  0.85003935  0.15813658  0.12534945  1
  O2-  O421  1  0.82701383  0.15562542  0.48573629  1
  O2-  O422  1  0.83131631  0.15910456  0.80761652  1
  O2-  O423  1  0.83953992  0.41930967  0.13999585  1
  O2-  O424  1  0.83493692  0.41241201  0.48382977  1
  O2-  O425  1  0.84487750  0.41262380  0.82329510  1
  O2-  O426  1  0.85529462  0.66726306  0.13780080  1
  O2-  O427  1  0.83766078  0.66803584  0.49118844  1
  O2-  O428  1  0.85735562  0.72000212  0.81798337  1
  O2-  O429  1  0.82514425  0.90805648  0.13815758  1
  O2-  O430  1  0.84209980  0.92328938  0.47373265  1
  O2-  O431  1  0.83894311  0.90733550  0.80776226  1
  O2-  O432  1  0.13984764  0.05269027  0.18770485  1
  O2-  O433  1  0.18384420  0.08415008  0.52440312  1
  O2-  O434  1  0.14679833  0.08041905  0.85583887  1
  O2-  O435  1  0.19869171  0.28228257  0.22619777  1
  O2-  O436  1  0.16765949  0.34596674  0.52706391  1
  O2-  O437  1  0.18964254  0.35154267  0.83729609  1
  O2-  O438  1  0.17338890  0.59935349  0.18317410  1
  O2-  O439  1  0.14694706  0.57175243  0.53437583  1
  O2-  O440  1  0.15402972  0.56822024  0.84447143  1
  O2-  O441  1  0.12764283  0.82370832  0.20771252  1
  O2-  O442  1  0.13027657  0.82393021  0.54364807  1
  O2-  O443  1  0.15579655  0.83076991  0.85379542  1
  O2-  O444  1  0.44289911  0.10137949  0.16200550  1
  O2-  O445  1  0.43224085  0.11474037  0.53326668  1
  O2-  O446  1  0.38406478  0.06702664  0.86459821  1
  O2-  O447  1  0.44730212  0.34941506  0.17840360  1
  O2-  O448  1  0.41780115  0.34419041  0.50558549  1
  O2-  O449  1  0.41573280  0.32078848  0.84363227  1
  O2-  O450  1  0.42807358  0.59250864  0.18590335  1
  O2-  O451  1  0.42210183  0.59438162  0.52706650  1
  O2-  O452  1  0.42553230  0.58793289  0.84481241  1
  O2-  O453  1  0.43538788  0.83788970  0.13926357  1
  O2-  O454  1  0.39747356  0.81383415  0.52169542  1
  O2-  O455  1  0.41361935  0.82099029  0.84488814  1
  O2-  O456  1  0.68491088  0.09121560  0.17797775  1
  O2-  O457  1  0.64628918  0.07161814  0.51876869  1
  O2-  O458  1  0.66690567  0.08600287  0.84223903  1
  O2-  O459  1  0.67841735  0.33805564  0.18591794  1
  O2-  O460  1  0.67128629  0.33277483  0.51848627  1
  O2-  O461  1  0.68374124  0.34036905  0.85260558  1
  O2-  O462  1  0.67887959  0.59015997  0.18371311  1
  O2-  O463  1  0.66893314  0.58251692  0.53157892  1
  O2-  O464  1  0.69020251  0.62788925  0.84510671  1
  O2-  O465  1  0.62646504  0.81480155  0.20563478  1
  O2-  O466  1  0.64396247  0.86097176  0.56641053  1
  O2-  O467  1  0.67174246  0.84701724  0.84169502  1
  O2-  O468  1  0.91496133  0.07376881  0.18939629  1
  O2-  O469  1  0.91258142  0.07423577  0.51495197  1
  O2-  O470  1  0.90135215  0.06823018  0.85537461  1
  O2-  O471  1  0.91475944  0.32330965  0.16877989  1
  O2-  O472  1  0.90634399  0.32302297  0.53045864  1
  O2-  O473  1  0.90995236  0.32062685  0.85578932  1
  O2-  O474  1  0.91716412  0.57830283  0.19327204  1
  O2-  O475  1  0.91595961  0.58237598  0.53065987  1
  O2-  O476  1  0.95107268  0.63278432  0.84647650  1
  O2-  O477  1  0.83392646  0.79282328  0.21510728  1
  O2-  O478  1  0.89295827  0.82107157  0.53917671  1
  O2-  O479  1  0.90087235  0.80598374  0.84750179  1
  O2-  O480  1  0.16907506  0.06985513  0.31752457  1
  O2-  O481  1  0.17118392  0.08022198  0.64044712  1
  O2-  O482  1  0.11786771  0.08178848  0.98080062  1
  O2-  O483  1  0.16734271  0.33921366  0.33219634  1
  O2-  O484  1  0.16954040  0.33848621  0.64827282  1
  O2-  O485  1  0.10887153  0.28293566  0.97068348  1
  O2-  O486  1  0.17748113  0.59244248  0.30906445  1
  O2-  O487  1  0.12795202  0.55549373  0.66386779  1
  O2-  O488  1  0.18671356  0.56135622  0.96188000  1
  O2-  O489  1  0.15238510  0.82139626  0.31892169  1
  O2-  O490  1  0.13047221  0.81998978  0.66819914  1
  O2-  O491  1  0.17597396  0.85185975  0.97729143  1
  O2-  O492  1  0.42179741  0.06928546  0.34441705  1
  O2-  O493  1  0.43487138  0.09428218  0.64897822  1
  O2-  O494  1  0.42176422  0.08597191  0.98609680  1
  O2-  O495  1  0.31093059  0.22706880  0.24713904  1
  O2-  O496  1  0.42108504  0.30862596  0.64418363  1
  O2-  O497  1  0.40650328  0.33153472  0.96497602  1
  O2-  O498  1  0.43141732  0.60575125  0.31309195  1
  O2-  O499  1  0.42211740  0.59199342  0.64860204  1
  O2-  O500  1  0.44623859  0.59722985  0.96916937  1
  O2-  O501  1  0.43064947  0.84332019  0.32104103  1
  O2-  O502  1  0.41332414  0.81371874  0.64775205  1
  O2-  O503  1  0.42870752  0.83744570  1.01740735  1
  O2-  O504  1  0.67278052  0.08795222  0.30929492  1
  O2-  O505  1  0.65322453  0.02441147  0.66356817  1
  O2-  O506  1  0.66872568  0.07639095  0.96246629  1
  O2-  O507  1  0.67134878  0.32219733  0.31645311  1
  O2-  O508  1  0.67343196  0.32333615  0.63516337  1
  O2-  O509  1  0.65612452  0.33031332  0.97419980  1
  O2-  O510  1  0.64190256  0.57209327  0.30285312  1
  O2-  O511  1  0.66701220  0.56521980  0.65154219  1
  O2-  O512  1  0.66867683  0.58920828  0.95552055  1
  O2-  O513  1  0.66719719  0.84132705  0.32048358  1
  O2-  O514  1  0.59827946  0.85680929  0.62336039  1
  O2-  O515  1  0.68283925  0.82507914  0.97006907  1
  O2-  O516  1  0.90926672  0.08224667  0.30722143  1
  O2-  O517  1  0.93095778  0.08003346  0.64033721  1
  O2-  O518  1  0.87372119  0.08372358  1.02559796  1
  O2-  O519  1  0.92125753  0.31472341  0.29182708  1
  O2-  O520  1  0.89994219  0.31037537  0.65357247  1
  O2-  O521  1  0.89691253  0.32083167  0.97294620  1
  O2-  O522  1  0.91894623  0.57993065  0.31938270  1
  O2-  O523  1  0.91192682  0.57240973  0.65684099  1
  O2-  O524  1  0.91705002  0.58687170  0.96903981  1
  O2-  O525  1  0.92114341  0.83612761  0.32493361  1
  O2-  O526  1  0.90336825  0.86177295  0.66063337  1
  O2-  O527  1  0.91142330  0.83111900  0.97638401  1
  O2-  O528  1  0.04387417  0.15136128  0.03944705  1
  O2-  O529  1  0.08296631  0.15503483  0.31862090  1
  O2-  O530  1  0.10095651  0.16642206  0.67771477  1
  O2-  O531  1  0.06808765  0.40269734  0.00625287  1
  O2-  O532  1  0.07417589  0.41769601  0.35142942  1
  O2-  O533  1  0.06471678  0.39335905  0.69588183  1
  O2-  O534  1  0.04886574  0.71722654  0.04397572  1
  O2-  O535  1  0.08429043  0.66111706  0.35627507  1
  O2-  O536  1  0.05869265  0.65268909  0.71401714  1
  O2-  O537  1  0.07776025  0.91978935  0.02246724  1
  O2-  O538  1  0.08365186  0.91169016  0.36522330  1
  O2-  O539  1  0.06100223  0.92685760  0.69297424  1
  O2-  O540  1  0.33396789  0.17157418  0.02222610  1
  O2-  O541  1  0.32389069  0.15125060  0.37100338  1
  O2-  O542  1  0.33016309  0.15256462  0.69222286  1
  O2-  O543  1  0.27536820  0.37937116  -0.04620119  1
  O2-  O544  1  0.30194710  0.48726788  0.37825419  1
  O2-  O545  1  0.35007678  0.42504246  0.67779587  1
  O2-  O546  1  0.34882925  0.66216351  0.01343116  1
  O2-  O547  1  0.33966227  0.68557102  0.34824641  1
  O2-  O548  1  0.33768772  0.66878984  0.68728737  1
  O2-  O549  1  0.33532040  0.91759846  0.02158395  1
  O2-  O550  1  0.33272956  0.89901662  0.36132524  1
  O2-  O551  1  0.42715688  0.94305014  0.71175985  1
  O2-  O552  1  0.59490898  0.16499490  0.00846647  1
  O2-  O553  1  0.58715344  0.16181790  0.36259425  1
  O2-  O554  1  0.60634818  0.15002914  0.66646234  1
  O2-  O555  1  0.57606135  0.41907188  0.01076446  1
  O2-  O556  1  0.67013161  0.45566736  0.37583548  1
  O2-  O557  1  0.58853430  0.39787414  0.69140359  1
  O2-  O558  1  0.60143549  0.67227632  0.00998011  1
  O2-  O559  1  0.58750510  0.67490090  0.36498346  1
  O2-  O560  1  0.58659407  0.71880045  0.68008976  1
  O2-  O561  1  0.59673797  0.93415759  0.01196782  1
  O2-  O562  1  0.58198106  0.91618646  0.35932232  1
  O2-  O563  1  0.57387430  0.97019642  0.76678698  1
  O2-  O564  1  0.85756362  0.11322350  -0.03355997  1
  O2-  O565  1  0.84053245  0.17168122  0.33571280  1
  O2-  O566  1  0.83011471  0.14287101  0.68579382  1
  O2-  O567  1  0.82094829  0.41435221  0.01577064  1
  O2-  O568  1  0.82674535  0.40681349  0.35818453  1
  O2-  O569  1  0.85669272  0.41909337  0.71253383  1
  O2-  O570  1  0.82485313  0.66339399  0.00799161  1
  O2-  O571  1  0.83932741  0.66856881  0.36827571  1
  O2-  O572  1  0.83786980  0.66114723  0.69159154  1
  O2-  O573  1  0.83892013  0.91810717  0.02063213  1
  O2-  O574  1  0.83863301  0.92290887  0.35269152  1
  O2-  O575  1  0.86192282  0.91011535  0.68294437  1
