# generated using pymatgen
data_H2O
_symmetry_space_group_name_H-M   'P 1'
_cell_length_a   17.96439581
_cell_length_b   17.96416339
_cell_length_c   21.97556250
_cell_angle_alpha   89.98572788
_cell_angle_beta   90.02629452
_cell_angle_gamma   119.95884693
_symmetry_Int_Tables_number   1
_chemical_formula_structural   H2O
_chemical_formula_sum   'H384 O192'
_cell_volume   6144.26791498
_cell_formula_units_Z   192
loop_
 _symmetry_equiv_pos_site_id
 _symmetry_equiv_pos_as_xyz
  1  'x, y, z'
loop_
 _atom_type_symbol
 _atom_type_oxidation_number
  H+  1.0
  O2-  -2.0
loop_
 _atom_site_type_symbol
 _atom_site_label
 _atom_site_symmetry_multiplicity
 _atom_site_fract_x
 _atom_site_fract_y
 _atom_site_fract_z
 _atom_site_occupancy
  H+  H0  1  0.14713113  0.10759325  0.99226332  1
  H+  H1  1  0.03730195  0.36056173  0.35614491  1
  H+  H2  1  0.60801316  0.22783404  0.49819376  1
  H+  H3  1  0.53807674  0.13714498  0.66675097  1
  H+  H4  1  0.99072034  0.11802453  0.50828103  1
  H+  H5  1  0.11546774  0.13352503  0.35591021  1
  H+  H6  1  0.47556100  0.12015980  0.50154529  1
  H+  H7  1  0.77986589  0.13695305  0.49718255  1
  H+  H8  1  0.45099131  0.74359457  0.98084140  1
  H+  H9  1  0.03988940  0.15786662  0.14224597  1
  H+  H10  1  0.19667675  0.61462073  0.72540872  1
  H+  H11  1  0.62604397  0.98722067  0.67043677  1
  H+  H12  1  0.03548288  0.90305664  0.81924213  1
  H+  H13  1  0.81733970  0.61297118  0.50377190  1
  H+  H14  1  0.52358049  0.39929902  0.67064781  1
  H+  H15  1  0.14913345  0.58271174  1.06046972  1
  H+  H16  1  0.72809964  0.75390353  0.06409634  1
  H+  H17  1  0.86247561  0.90774697  0.29859598  1
  H+  H18  1  0.35267038  0.47233342  0.00858552  1
  H+  H19  1  0.84898112  0.46937846  0.49293063  1
  H+  H20  1  0.62957065  0.36510111  0.51377409  1
  H+  H21  1  0.79667802  0.90567849  0.81982570  1
  H+  H22  1  0.08359711  0.46921429  1.00001119  1
  H+  H23  1  0.64833266  0.32989658  0.90498429  1
  H+  H24  1  0.14833895  0.76770849  0.17168804  1
  H+  H25  1  0.10650403  0.63260743  0.49724095  1
  H+  H26  1  0.89008920  0.87199297  0.65363578  1
  H+  H27  1  0.56964653  0.26511621  0.86450738  1
  H+  H28  1  0.90305496  0.03225780  0.84048699  1
  H+  H29  1  0.93214020  0.83526388  0.28505264  1
  H+  H30  1  0.79826459  0.04459118  0.23448058  1
  H+  H31  1  0.55525524  0.87555507  1.00302310  1
  H+  H32  1  0.18309413  0.64639533  0.89963140  1
  H+  H33  1  0.64998583  0.28254806  -0.00235854  1
  H+  H34  1  0.65939297  0.11846719  0.83658616  1
  H+  H35  1  0.88483852  0.78034307  0.65823610  1
  H+  H36  1  0.91954993  0.83635782  0.93398384  1
  H+  H37  1  -0.04210246  0.35544442  -0.02634206  1
  H+  H38  1  0.78577168  0.62746730  0.34529864  1
  H+  H39  1  0.37275722  1.02858444  -0.01946140  1
  H+  H40  1  0.23851450  0.85979218  0.17582895  1
  H+  H41  1  0.26293016  0.48333984  0.94893501  1
  H+  H42  1  0.16618120  0.31494500  0.29527904  1
  H+  H43  1  0.90045614  0.11553934  0.50286942  1
  H+  H44  1  0.89773226  0.11937906  0.85212732  1
  H+  H45  1  0.90185569  0.89177440  0.18985533  1
  H+  H46  1  0.33695656  0.79880955  0.97582804  1
  H+  H47  1  0.69491195  0.73789699  -0.07335153  1
  H+  H48  1  0.66208682  0.58395745  0.93148743  1
  H+  H49  1  0.25296609  0.74204169  0.78655576  1
  H+  H50  1  0.48286796  0.11831996  0.17484755  1
  H+  H51  1  0.36455030  0.23735288  0.49301670  1
  H+  H52  1  0.41915954  0.33857698  0.59996423  1
  H+  H53  1  0.39541830  0.60334785  0.84082929  1
  H+  H54  1  0.86010755  0.24293528  0.34101661  1
  H+  H55  1  0.62252492  0.23122960  0.66519292  1
  H+  H56  1  1.03489235  0.62597356  0.33657138  1
  H+  H57  1  0.66131071  0.79567481  0.83469351  1
  H+  H58  1  0.63451850  0.85595374  0.17920413  1
  H+  H59  1  0.12593573  0.86854720  0.16885513  1
  H+  H60  1  0.75068811  0.38778775  0.82433210  1
  H+  H61  1  1.02263744  0.38584900  0.50504026  1
  H+  H62  1  0.91080516  0.89919895  0.46264370  1
  H+  H63  1  0.27154055  0.37324059  0.35051412  1
  H+  H64  1  0.10607287  0.60615834  0.66264010  1
  H+  H65  1  0.90394975  0.87532298  0.83959209  1
  H+  H66  1  0.35903193  0.74540202  0.31564645  1
  H+  H67  1  0.57895557  0.30179033  0.65553406  1
  H+  H68  1  0.52972648  0.14209158  0.34150901  1
  H+  H69  1  0.61775281  0.48279840  0.16172588  1
  H+  H70  1  0.39290715  0.36383133  0.19612897  1
  H+  H71  1  0.14769233  0.64910564  0.88323520  1
  H+  H72  1  0.27581065  0.38409988  0.18665547  1
  H+  H73  1  0.62992985  0.64713636  0.81840122  1
  H+  H74  1  0.13804251  0.36366020  0.51475597  1
  H+  H75  1  0.02994628  0.87363462  0.49989945  1
  H+  H76  1  0.85930922  0.52768856  0.66067337  1
  H+  H77  1  0.12269565  0.87506514  0.49512755  1
  H+  H78  1  0.65005374  0.61048773  0.33785603  1
  H+  H79  1  0.61389324  0.22961187  0.15736075  1
  H+  H80  1  0.39904316  0.16336132  0.81507921  1
  H+  H81  1  0.39812965  0.02431361  0.64612476  1
  H+  H82  1  0.39592671  0.61108687  0.51557739  1
  H+  H83  1  0.42463201  0.09001594  0.23620724  1
  H+  H84  1  0.85129559  0.64756861  0.40061695  1
  H+  H85  1  0.30320576  0.86095447  0.73546995  1
  H+  H86  1  0.89225732  0.61845641  0.16671821  1
  H+  H87  1  0.23129737  0.85882513  0.50248145  1
  H+  H88  1  0.39334943  0.51925273  0.65914341  1
  H+  H89  1  0.11423456  0.63950925  0.14106195  1
  H+  H90  1  0.22959711  0.12129617  0.64473555  1
  H+  H91  1  0.73937734  0.38328525  0.67454455  1
  H+  H92  1  0.37821107  0.14108150  0.16720391  1
  H+  H93  1  0.38017614  0.50788402  0.84302964  1
  H+  H94  1  0.23691445  0.36110227  0.09428817  1
  H+  H95  1  0.36705765  0.13816697  0.66119394  1
  H+  H96  1  0.88984416  0.30196323  0.82659304  1
  H+  H97  1  0.14197091  0.50065883  0.33606842  1
  H+  H98  1  0.59554189  0.91832160  0.06911801  1
  H+  H99  1  0.13892202  0.03480708  0.64306785  1
  H+  H100  1  0.63178250  0.76479218  0.17744393  1
  H+  H101  1  0.49114503  0.86718488  0.83341667  1
  H+  H102  1  0.63896069  0.36474330  0.15940066  1
  H+  H103  1  0.64792863  0.72285160  0.93028346  1
  H+  H104  1  0.14064679  0.76686059  0.50056004  1
  H+  H105  1  0.38492068  0.36776817  0.50798904  1
  H+  H106  1  0.87695584  0.52766939  0.98239400  1
  H+  H107  1  0.08786048  0.73834173  1.01185788  1
  H+  H108  1  0.08538855  0.71922395  0.66421116  1
  H+  H109  1  0.52885278  0.39412260  0.16237836  1
  H+  H110  1  0.36747009  0.63261303  0.33823593  1
  H+  H111  1  0.96218946  0.38828965  0.66495550  1
  H+  H112  1  0.85937055  0.39300502  0.99149884  1
  H+  H113  1  0.61674074  0.97388396  0.16639792  1
  H+  H114  1  0.22619178  0.11068822  0.33148447  1
  H+  H115  1  0.72266555  0.85585242  0.32851249  1
  H+  H116  1  0.88835328  0.02140292  1.00358866  1
  H+  H117  1  0.61932292  0.71715810  0.35618046  1
  H+  H118  1  0.10374809  0.82822352  1.07422820  1
  H+  H119  1  0.73184954  0.12058973  0.33027606  1
  H+  H120  1  0.31052638  0.64709055  0.79349168  1
  H+  H121  1  0.38753602  0.12113653  0.98970691  1
  H+  H122  1  0.46834593  0.36946486  0.83973147  1
  H+  H123  1  0.39930097  0.87836256  0.66580524  1
  H+  H124  1  0.61977015  -0.02508223  0.34626989  1
  H+  H125  1  0.85056986  0.14312720  0.16511049  1
  H+  H126  1  0.15714460  0.58559559  0.57546082  1
  H+  H127  1  0.09669441  0.39270002  -0.02570801  1
  H+  H128  1  0.86907346  0.13923187  0.00769086  1
  H+  H129  1  0.51645752  0.61073179  0.51012027  1
  H+  H130  1  0.23848886  0.11322639  -0.00246528  1
  H+  H131  1  0.38499022  0.12021239  0.50289988  1
  H+  H132  1  0.86120425  0.22499398  0.00031221  1
  H+  H133  1  0.27156564  0.61789199  0.33310959  1
  H+  H134  1  0.14662653  0.87344609  0.81936315  1
  H+  H135  1  0.12784988  0.27984045  0.87050219  1
  H+  H136  1  0.28013408  0.63391007  0.51360361  1
  H+  H137  1  0.98939334  0.12858386  0.34331679  1
  H+  H138  1  0.39227548  0.27543940  0.65714368  1
  H+  H139  1  0.63731040  0.02234604  0.50463541  1
  H+  H140  1  0.73060299  0.11218452  -0.00583237  1
  H+  H141  1  0.40171589  0.74242369  0.66422813  1
  H+  H142  1  0.16569352  0.27845920  0.12996885  1
  H+  H143  1  0.62563058  0.47819304  0.34655773  1
  H+  H144  1  0.61313524  0.47549778  0.00398774  1
  H+  H145  1  0.39786459  0.72476864  0.82086798  1
  H+  H146  1  0.41624011  0.61738310  0.65433580  1
  H+  H147  1  0.16495494  0.33873332  0.60749784  1
  H+  H148  1  0.33788912  0.60748649  -0.00192432  1
  H+  H149  1  0.12448899  0.15792066  0.86767955  1
  H+  H150  1  0.10769184  0.08347509  0.17356091  1
  H+  H151  1  0.52957961  0.64102044  0.01007241  1
  H+  H152  1  0.88288577  0.36454474  0.50876170  1
  H+  H153  1  0.13371030  0.52434664  0.51757203  1
  H+  H154  1  0.18926044  0.85685872  1.03521333  1
  H+  H155  1  0.36695107  0.22781736  0.34097070  1
  H+  H156  1  0.84852009  0.53295832  0.83189000  1
  H+  H157  1  0.92253899  0.39934355  0.32189524  1
  H+  H158  1  0.11130455  0.89675180  0.66198127  1
  H+  H159  1  0.08355098  0.63899702  0.00467665  1
  H+  H160  1  0.27099840  0.15592246  0.48861278  1
  H+  H161  1  0.31861427  0.88446427  0.01326606  1
  H+  H162  1  1.03164319  0.15414561  0.87138788  1
  H+  H163  1  0.10305604  -0.01243799  1.01519709  1
  H+  H164  1  0.13332575  0.70493968  0.33929690  1
  H+  H165  1  0.63828364  0.11253846  0.50464944  1
  H+  H166  1  0.83748696  0.40042585  0.67318810  1
  H+  H167  1  0.76516710  0.65324166  0.67213277  1
  H+  H168  1  0.85063561  0.62392269  0.83333002  1
  H+  H169  1  0.62347584  0.54326806  0.66343601  1
  H+  H170  1  0.72233151  0.11798313  0.17359441  1
  H+  H171  1  0.29947009  0.89285996  0.34230727  1
  H+  H172  1  0.11984998  0.00099308  0.17757195  1
  H+  H173  1  0.58282744  0.91292687  0.44042192  1
  H+  H174  1  0.88977814  0.78126758  0.83760175  1
  H+  H175  1  0.87164862  0.88808785  0.01508939  1
  H+  H176  1  0.77274387  0.39644703  -0.00193731  1
  H+  H177  1  0.47959181  0.36420950  -0.00617186  1
  H+  H178  1  0.63564419  0.53035964  0.83760988  1
  H+  H179  1  0.21183066  0.85515293  0.65903400  1
  H+  H180  1  0.36236271  0.97971499  0.49587544  1
  H+  H181  1  0.59964080  0.38897397  0.82763306  1
  H+  H182  1  0.32768117  0.40978561  0.73362379  1
  H+  H183  1  0.76714384  0.87767536  0.17164265  1
  H+  H184  1  0.11646343  0.14453687  0.66846416  1
  H+  H185  1  0.32372142  0.68861874  0.00796744  1
  H+  H186  1  0.86825819  0.61991155  0.65986850  1
  H+  H187  1  0.61061510  0.13804149  0.16406052  1
  H+  H188  1  0.91403103  0.07551884  0.94048396  1
  H+  H189  1  0.27765576  0.39266884  0.49759302  1
  H+  H190  1  0.42382483  0.08801698  0.59028683  1
  H+  H191  1  0.59453707  0.65436936  0.41445609  1
  H+  H192  1  0.84447216  0.97306335  0.17611041  1
  H+  H193  1  0.29038172  0.14271679  0.16735343  1
  H+  H194  1  0.47411511  0.86851388  0.50672244  1
  H+  H195  1  0.78605683  0.89996790  0.67505494  1
  H+  H196  1  0.51935790  0.63111595  0.17297465  1
  H+  H197  1  0.26416997  0.78682373  0.29832021  1
  H+  H198  1  0.65087252  0.66672166  0.71430005  1
  H+  H199  1  0.68000558  0.91676509  0.98216349  1
  H+  H200  1  0.11163568  0.77186819  0.82250056  1
  H+  H201  1  0.61324594  0.88341417  0.34796337  1
  H+  H202  1  0.01647145  0.11952934  0.00195987  1
  H+  H203  1  0.35871000  0.38162582  0.67400967  1
  H+  H204  1  0.39525139  0.51851768  0.33744661  1
  H+  H205  1  -0.02588490  0.62588064  0.48992880  1
  H+  H206  1  0.10996889  0.41322652  0.83319967  1
  H+  H207  1  -0.01266152  0.11596780  0.65928710  1
  H+  H208  1  0.26352895  0.38219939  0.83026027  1
  H+  H209  1  0.86241488  0.73129027  0.15885383  1
  H+  H210  1  0.09974141  0.18443304  -0.03093674  1
  H+  H211  1  0.89892118  0.76524973  0.33893129  1
  H+  H212  1  0.31493591  0.40490511  0.25423102  1
  H+  H213  1  0.13817953  0.04900714  0.83507901  1
  H+  H214  1  0.72736642  0.36488664  0.15642517  1
  H+  H215  1  0.89711712  0.04381606  0.33468699  1
  H+  H216  1  0.14979892  0.27981012  0.51543150  1
  H+  H217  1  0.12933602  0.36391337  0.35939389  1
  H+  H218  1  0.59652362  0.49486172  0.49982115  1
  H+  H219  1  0.39130127  0.84845045  0.32377706  1
  H+  H220  1  0.10414081  0.38806451  0.67562915  1
  H+  H221  1  0.13682927  0.58590983  0.33173589  1
  H+  H222  1  0.32250637  0.80249502  -0.05581826  1
  H+  H223  1  0.85780017  0.73130398  0.00529515  1
  H+  H224  1  0.11441700  0.52017187  0.66500837  1
  H+  H225  1  0.62746761  0.98657181  0.82766918  1
  H+  H226  1  0.11666337  0.37846280  0.13135714  1
  H+  H227  1  0.36509172  0.63424798  0.16869109  1
  H+  H228  1  0.39079992  0.77398518  0.16528917  1
  H+  H229  1  0.39326802  0.11940161  0.32895045  1
  H+  H230  1  0.90464815  0.60678698  0.32137123  1
  H+  H231  1  0.62800701  0.89865756  0.82103664  1
  H+  H232  1  0.36641741  0.89133959  0.49764202  1
  H+  H233  1  0.03438955  0.86608084  0.16654595  1
  H+  H234  1  0.98629652  0.64612538  0.81701209  1
  H+  H235  1  0.39647264  0.37286369  -0.00033466  1
  H+  H236  1  0.22199741  0.36604215  0.66698203  1
  H+  H237  1  0.76365325  0.90881131  0.98364151  1
  H+  H238  1  0.64028920  1.02593915  -0.00453459  1
  H+  H239  1  1.02426742  0.88246358  0.35704080  1
  H+  H240  1  0.59393607  0.87542993  0.50526852  1
  H+  H241  1  0.53581663  0.38865655  0.34912748  1
  H+  H242  1  0.64018572  0.36787436  -0.00338544  1
  H+  H243  1  0.70335672  0.77684811  0.05906178  1
  H+  H244  1  0.19342121  0.34065168  -0.04898245  1
  H+  H245  1  0.31942315  0.95317808  0.72276676  1
  H+  H246  1  0.97685076  0.36549251  0.16740155  1
  H+  H247  1  0.39866784  0.27869126  0.18226464  1
  H+  H248  1  0.97067064  0.87039702  -0.00174803  1
  H+  H249  1  0.83993700  0.17671848  0.43970012  1
  H+  H250  1  0.34196650  0.16862678  0.72198701  1
  H+  H251  1  0.72689783  0.62462925  0.83596765  1
  H+  H252  1  0.07224659  0.92699435  0.07339414  1
  H+  H253  1  0.23899035  0.81784441  0.81229154  1
  H+  H254  1  0.38695422  0.52567689  0.19753628  1
  H+  H255  1  0.63876669  0.22762471  0.81369959  1
  H+  H256  1  0.60400711  0.74884938  0.53025964  1
  H+  H257  1  0.65323756  0.37045894  0.35467732  1
  H+  H258  1  0.11040390  0.22886709  0.67610185  1
  H+  H259  1  0.63691257  0.61320472  0.18193900  1
  H+  H260  1  0.78021793  0.72078379  0.79104056  1
  H+  H261  1  0.36716147  0.72231500  0.51052161  1
  H+  H262  1  0.77870046  0.87072260  0.53650641  1
  H+  H263  1  0.08804950  -0.08798714  0.43022605  1
  H+  H264  1  0.36788518  0.23550400  1.01027188  1
  H+  H265  1  0.92431129  0.82595778  0.56506666  1
  H+  H266  1  0.35926521  0.54473519  0.92027777  1
  H+  H267  1  0.99750245  0.94365925  0.21412785  1
  H+  H268  1  0.48647873  0.60604605  0.34242008  1
  H+  H269  1  0.71935358  0.61513957  0.99269683  1
  H+  H270  1  0.22878394  0.60504132  0.14025234  1
  H+  H271  1  0.79143569  0.14901579  0.66779384  1
  H+  H272  1  0.76343723  0.82469561  0.52855774  1
  H+  H273  1  0.39645722  0.36319805  0.33674089  1
  H+  H274  1  0.51302306  0.14184906  0.84102194  1
  H+  H275  1  0.35018030  0.37562906  0.83004315  1
  H+  H276  1  0.91188311  0.75912233  0.51179713  1
  H+  H277  1  0.64892279  0.11677869  0.65437146  1
  H+  H278  1  0.13778779  0.51392830  0.13513299  1
  H+  H279  1  0.86517264  0.20768170  0.89400534  1
  H+  H280  1  0.88726792  0.27754856  0.51381124  1
  H+  H281  1  0.78968446  0.14807911  0.85017197  1
  H+  H282  1  0.12703442  0.22997446  0.36083491  1
  H+  H283  1  0.64466939  0.87274203  0.67503092  1
  H+  H284  1  0.47601997  0.37156924  0.50821084  1
  H+  H285  1  0.82333738  0.67985063  0.73285872  1
  H+  H286  1  -0.00513992  0.64223784  -0.01804128  1
  H+  H287  1  0.80290554  0.42213487  0.76170601  1
  H+  H288  1  0.67481589  0.08280245  0.59536629  1
  H+  H289  1  0.64034978  0.11423013  0.33023373  1
  H+  H290  1  0.66125399  0.79547579  0.69373921  1
  H+  H291  1  0.72750898  0.61664064  0.17771823  1
  H+  H292  1  0.37491462  0.89295311  0.16089376  1
  H+  H293  1  0.10530726  0.16427146  0.44586408  1
  H+  H294  1  0.08837687  0.93819910  0.75739923  1
  H+  H295  1  0.86307758  0.92429880  0.36912886  1
  H+  H296  1  0.42481329  0.57252136  0.57269672  1
  H+  H297  1  0.86892990  0.39700097  0.14924502  1
  H+  H298  1  0.87657825  0.16231321  0.34568562  1
  H+  H299  1  0.58336320  0.16816639  0.43809875  1
  H+  H300  1  0.59984645  0.17846476  0.06759916  1
  H+  H301  1  0.43295610  0.49353524  0.04662707  1
  H+  H302  1  0.59352553  0.93193671  0.73321140  1
  H+  H303  1  0.88470289  0.28161275  0.16926096  1
  H+  H304  1  0.08601286  0.65913788  0.43201120  1
  H+  H305  1  0.41179405  0.33455246  0.90029060  1
  H+  H306  1  0.87700542  0.14824887  0.66958606  1
  H+  H307  1  0.31919672  0.92302706  0.07795440  1
  H+  H308  1  0.09063243  0.15996557  0.08333235  1
  H+  H309  1  0.16115233  0.42342001  0.23884451  1
  H+  H310  1  0.34094015  0.41559642  0.40374753  1
  H+  H311  1  0.57837970  0.42596851  0.76704042  1
  H+  H312  1  0.19784901  0.80893250  0.26716264  1
  H+  H313  1  0.90955679  0.36161852  0.60399860  1
  H+  H314  1  0.85872087  0.93449678  0.76227863  1
  H+  H315  1  0.43253091  0.33640878  0.27852850  1
  H+  H316  1  0.42620761  0.59327482  0.24906788  1
  H+  H317  1  0.40674239  0.82419374  0.22715739  1
  H+  H318  1  0.58418502  0.42047547  0.06579572  1
  H+  H319  1  0.49259350  0.88602732  0.66210450  1
  H+  H320  1  0.16768961  0.57377638  0.79053599  1
  H+  H321  1  0.36919725  0.48040631  0.49744243  1
  H+  H322  1  0.58637669  0.43388601  0.44284628  1
  H+  H323  1  0.89442696  0.09013986  0.25332791  1
  H+  H324  1  0.11820870  0.38295203  0.23909057  1
  H+  H325  1  0.07919519  0.42327017  0.73453397  1
  H+  H326  1  0.90041763  0.34038530  0.91509699  1
  H+  H327  1  0.26746692  0.91116429  0.91815672  1
  H+  H328  1  0.16276109  0.83062619  0.59511035  1
  H+  H329  1  0.35044572  0.92974027  0.40392623  1
  H+  H330  1  0.35143145  0.66078440  0.10156684  1
  H+  H331  1  0.63277153  0.15165307  1.00816816  1
  H+  H332  1  0.76358863  0.38048062  0.50287551  1
  H+  H333  1  0.38791611  0.83192983  0.83615150  1
  H+  H334  1  0.83339981  0.17331887  0.09960448  1
  H+  H335  1  0.02374721  0.89826018  0.66249435  1
  H+  H336  1  0.45532637  0.13096389  0.90092699  1
  H+  H337  1  0.38763989  0.68402640  0.72207556  1
  H+  H338  1  0.08732978  0.41027581  0.44841657  1
  H+  H339  1  0.92760434  0.08265372  0.59854663  1
  H+  H340  1  0.56901729  0.64438585  0.11030888  1
  H+  H341  1  0.87517903  0.38369178  0.82484060  1
  H+  H342  1  0.15380161  0.11664603  0.55370759  1
  H+  H343  1  0.61823472  0.41265906  0.67072191  1
  H+  H344  1  0.25665575  0.94638358  0.91888320  1
  H+  H345  1  0.15232089  0.07044085  0.27964787  1
  H+  H346  1  0.83024975  0.67441279  0.09843839  1
  H+  H347  1  0.02643813  0.42119352  0.82411225  1
  H+  H348  1  0.84315368  0.91801216  0.07685325  1
  H+  H349  1  0.02959817  0.64517062  0.15269706  1
  H+  H350  1  0.89001814  0.58932921  0.92381547  1
  H+  H351  1  0.42034037  0.84658388  0.56802360  1
  H+  H352  1  0.17731953  0.60482936  0.98935418  1
  H+  H353  1  0.64704676  0.32587462  0.57469089  1
  H+  H354  1  0.85191044  0.63953600  0.00520463  1
  H+  H355  1  0.67489046  0.08487902  0.90162557  1
  H+  H356  1  0.65454840  0.81474200  0.27629273  1
  H+  H357  1  0.67607159  0.58306540  0.27534871  1
  H+  H358  1  0.58711450  0.59727040  0.01255841  1
  H+  H359  1  0.89316010  0.53032925  0.16141872  1
  H+  H360  1  0.04594469  0.66584537  0.75836166  1
  H+  H361  1  0.63744214  0.61001615  0.61037030  1
  H+  H362  1  0.90893040  0.98604305  0.46327425  1
  H+  H363  1  0.78365131  0.35961049  0.30430297  1
  H+  H364  1  0.33317457  0.16820823  0.39915208  1
  H+  H365  1  0.34501339  0.17631562  0.07006246  1
  H+  H366  1  0.36353431  0.22626094  0.81436389  1
  H+  H367  1  0.52798488  0.88463768  0.16369697  1
  H+  H368  1  -0.00800427  0.63153264  0.66432220  1
  H+  H369  1  0.66847677  0.08593139  0.23616857  1
  H+  H370  1  0.62862590  0.81020129  0.58736772  1
  H+  H371  1  0.11340939  -0.02364566  0.35718113  1
  H+  H372  1  0.93544298  0.58618081  0.25977915  1
  H+  H373  1  0.62198729  0.22820536  0.35040142  1
  H+  H374  1  0.84116968  0.42710590  0.08846181  1
  H+  H375  1  0.89948339  0.34743102  0.25976282  1
  H+  H376  1  0.87821182  0.98765470  0.66839579  1
  H+  H377  1  0.69770466  0.86929231  0.88832137  1
  H+  H378  1  0.37290246  -0.01755640  0.16717080  1
  H+  H379  1  0.60846492  0.16769666  0.75445114  1
  H+  H380  1  0.06716533  0.39619080  0.07931850  1
  H+  H381  1  0.17635938  0.08991345  0.89947153  1
  H+  H382  1  0.39874753  0.03280094  0.33033368  1
  H+  H383  1  0.46957198  0.80311079  0.92281897  1
  O2-  O384  1  0.09571581  0.16719656  0.12890705  1
  O2-  O385  1  0.10881761  0.16760956  0.49305921  1
  O2-  O386  1  0.09421863  0.19186756  0.88188065  1
  O2-  O387  1  0.07846256  0.40244627  0.12399904  1
  O2-  O388  1  0.08527125  0.41437885  0.49370164  1
  O2-  O389  1  0.08835132  0.44790270  0.81332465  1
  O2-  O390  1  0.08989197  0.67780278  0.13688632  1
  O2-  O391  1  0.08023107  0.66467014  0.47741388  1
  O2-  O392  1  0.04658642  0.67270592  0.80344974  1
  O2-  O393  1  0.09119813  0.89175420  0.14695007  1
  O2-  O394  1  0.09093916  0.90693996  0.48288827  1
  O2-  O395  1  0.09411928  0.94054623  0.80253678  1
  O2-  O396  1  0.34921024  0.17468506  0.15237581  1
  O2-  O397  1  0.33143530  0.17628442  0.47739783  1
  O2-  O398  1  0.35548261  0.17338375  0.79476555  1
  O2-  O399  1  0.33005513  0.41255118  0.21096503  1
  O2-  O400  1  0.33730214  0.41945131  0.48088677  1
  O2-  O401  1  0.32176142  0.40732337  0.81265450  1
  O2-  O402  1  0.33703233  0.66148822  0.14527244  1
  O2-  O403  1  0.34167912  0.65990308  0.50354299  1
  O2-  O404  1  0.37272940  0.66708034  0.80101397  1
  O2-  O405  1  0.34161311  0.92252779  0.15032348  1
  O2-  O406  1  0.33373379  0.91937047  0.48067762  1
  O2-  O407  1  0.28426047  0.80473238  0.79468441  1
  O2-  O408  1  0.57917430  0.16577715  0.14705138  1
  O2-  O409  1  0.57921024  0.16647619  0.48353144  1
  O2-  O410  1  0.61382629  0.16758104  0.80046233  1
  O2-  O411  1  0.58631832  0.42474451  0.14242403  1
  O2-  O412  1  0.57910907  0.43464164  0.48784173  1
  O2-  O413  1  0.57551307  0.42498661  0.81248172  1
  O2-  O414  1  0.57838147  0.65829841  0.15454100  1
  O2-  O415  1  0.58247842  0.64219358  0.49813657  1
  O2-  O416  1  0.61450696  0.68739673  0.79569625  1
  O2-  O417  1  0.58991403  0.91345372  0.15114275  1
  O2-  O418  1  0.57835442  0.91632677  0.48589120  1
  O2-  O419  1  0.59417765  0.92742871  0.80976195  1
  O2-  O420  1  0.82946232  0.17841444  0.14479096  1
  O2-  O421  1  0.84155671  0.16954255  0.48443361  1
  O2-  O422  1  0.85436833  0.18700256  0.85201136  1
  O2-  O423  1  0.84018924  0.42841045  0.13386689  1
  O2-  O424  1  0.82286394  0.40733280  0.48604628  1
  O2-  O425  1  0.80886090  0.42474221  0.80848620  1
  O2-  O426  1  0.83195670  0.67209071  0.14443397  1
  O2-  O427  1  0.87343118  0.64560406  0.48368633  1
  O2-  O428  1  0.81031383  0.69071173  0.80443200  1
  O2-  O429  1  0.82938450  0.91574480  0.15990074  1
  O2-  O430  1  0.90965325  0.94261697  0.43616456  1
  O2-  O431  1  0.85880760  0.93527207  0.80815263  1
  O2-  O432  1  0.10953193  0.04154457  0.20180734  1
  O2-  O433  1  0.15687166  0.12329156  0.50794915  1
  O2-  O434  1  0.16549116  0.10414445  0.85791984  1
  O2-  O435  1  0.19936972  0.34276811  0.13005378  1
  O2-  O436  1  0.17583537  0.34023582  0.52870135  1
  O2-  O437  1  0.15836938  0.35003431  0.86814728  1
  O2-  O438  1  0.16656598  0.57721408  0.12806200  1
  O2-  O439  1  0.16035236  0.58581538  0.52995910  1
  O2-  O440  1  0.21186278  0.62577226  0.76985446  1
  O2-  O441  1  0.17867778  0.82633787  0.19230708  1
  O2-  O442  1  0.17005962  0.82721864  0.51730746  1
  O2-  O443  1  0.16206306  0.83025916  0.83252882  1
  O2-  O444  1  0.42124141  0.08768187  0.19041874  1
  O2-  O445  1  0.41435933  0.08873187  0.51705561  1
  O2-  O446  1  0.47952398  0.16412227  0.86206452  1
  O2-  O447  1  0.43042272  0.33796620  0.19949037  1
  O2-  O448  1  0.41482947  0.33602007  0.52246503  1
  O2-  O449  1  0.40816189  0.33487164  0.85498270  1
  O2-  O450  1  0.41963119  0.58900224  0.20325038  1
  O2-  O451  1  0.42399801  0.57547134  0.52531895  1
  O2-  O452  1  0.40656916  0.56319520  0.86615622  1
  O2-  O453  1  0.42088862  0.83345103  0.18198522  1
  O2-  O454  1  0.41366425  0.84032770  0.52287773  1
  O2-  O455  1  0.43497301  0.82380902  0.85203608  1
  O2-  O456  1  0.66368742  0.08132752  0.19051550  1
  O2-  O457  1  0.67132046  0.08421590  0.51752273  1
  O2-  O458  1  0.68569079  0.08682777  0.85651675  1
  O2-  O459  1  0.66655553  0.33024951  0.16895219  1
  O2-  O460  1  0.65330982  0.32892323  0.52756379  1
  O2-  O461  1  0.62822421  0.31774942  0.86119816  1
  O2-  O462  1  0.66912866  0.58409165  0.19590326  1
  O2-  O463  1  0.62074102  0.59887219  0.52844365  1
  O2-  O464  1  0.66483182  0.59014778  0.85416613  1
  O2-  O465  1  0.66351003  0.82415707  0.19484050  1
  O2-  O466  1  0.60195698  0.79879725  0.54654268  1
  O2-  O467  1  0.69031735  0.85800120  0.84296403  1
  O2-  O468  1  0.85555834  0.06874529  0.21662823  1
  O2-  O469  1  0.92835492  0.08167543  0.51513539  1
  O2-  O470  1  0.92682761  0.08697571  0.86496380  1
  O2-  O471  1  0.91795423  0.34279690  0.18358689  1
  O2-  O472  1  0.91782656  0.33932924  0.52531149  1
  O2-  O473  1  0.91407253  0.36236382  0.83978793  1
  O2-  O474  1  0.92604218  0.59060481  0.17763785  1
  O2-  O475  1  0.91058533  0.59157916  0.50067584  1
  O2-  O476  1  0.87811925  0.59206473  0.84962401  1
  O2-  O477  1  0.94791262  0.88456738  0.21041276  1
  O2-  O478  1  0.93281855  0.82031281  0.52009717  1
  O2-  O479  1  0.92910650  0.84049175  0.85538255  1
  O2-  O480  1  0.16257095  0.07716417  0.32407416  1
  O2-  O481  1  0.17010305  0.09563063  0.62818497  1
  O2-  O482  1  0.17942662  0.07854237  0.97974647  1
  O2-  O483  1  0.17541246  0.31978011  0.33906449  1
  O2-  O484  1  0.16090493  0.33821347  0.65277531  1
  O2-  O485  1  0.17165909  0.37607441  0.93291097  1
  O2-  O486  1  0.16683350  0.55654890  0.31478954  1
  O2-  O487  1  0.14607624  0.58321547  0.65520572  1
  O2-  O488  1  0.12737211  0.57788770  1.01605947  1
  O2-  O489  1  0.21576211  0.79769685  0.30748659  1
  O2-  O490  1  0.15442217  0.83154649  0.64006414  1
  O2-  O491  1  0.12466729  0.82110139  1.03458498  1
  O2-  O492  1  0.42709053  0.09306457  0.31321046  1
  O2-  O493  1  0.42698772  0.08543884  0.63635053  1
  O2-  O494  1  0.41109795  0.08840830  0.96878164  1
  O2-  O495  1  0.42953046  0.33419033  0.32393493  1
  O2-  O496  1  0.42159486  0.33785574  0.64564695  1
  O2-  O497  1  0.41788108  0.33645815  0.98060214  1
  O2-  O498  1  0.42827960  0.57967103  0.32352201  1
  O2-  O499  1  0.43392047  0.57520415  0.64033535  1
  O2-  O500  1  0.32136162  0.52708617  0.96148090  1
  O2-  O501  1  0.36755518  0.80094376  0.29434973  1
  O2-  O502  1  0.43205357  0.85517900  0.64558028  1
  O2-  O503  1  0.49693291  0.79214030  0.95821901  1
  O2-  O504  1  0.67266357  0.08667131  0.31334483  1
  O2-  O505  1  0.67558175  0.08222892  0.64087768  1
  O2-  O506  1  0.67100983  0.08548779  0.97788828  1
  O2-  O507  1  0.68623230  0.33848807  0.35345607  1
  O2-  O508  1  0.63806960  0.32021721  0.64433494  1
  O2-  O509  1  0.67364147  0.34248336  0.97852390  1
  O2-  O510  1  0.68016598  0.58108648  0.32059698  1
  O2-  O511  1  0.65096066  0.60574332  0.65389934  1
  O2-  O512  1  0.65941867  0.57913721  0.97721920  1
  O2-  O513  1  0.66004699  0.81772754  0.32147239  1
  O2-  O514  1  0.67593831  0.84140668  0.66351590  1
  O2-  O515  1  0.72314052  0.91374225  0.95575345  1
  O2-  O516  1  0.93004590  0.10666254  0.32610164  1
  O2-  O517  1  0.92572982  0.08209403  0.64362542  1
  O2-  O518  1  0.91652700  0.08128934  0.98619083  1
  O2-  O519  1  0.88161227  0.34454490  0.30343025  1
  O2-  O520  1  0.91172783  0.38550554  0.64499508  1
  O2-  O521  1  0.89680702  0.32541496  0.95962755  1
  O2-  O522  1  0.93815896  0.58146255  0.30455973  1
  O2-  O523  1  0.89501610  0.58662264  0.64438171  1
  O2-  O524  1  0.90118409  0.58948289  0.96908220  1
  O2-  O525  1  0.92921707  0.82808998  0.32966592  1
  O2-  O526  1  0.91824734  0.83873212  0.63885591  1
  O2-  O527  1  0.91266198  0.83128213  0.97949374  1
  O2-  O528  1  0.08127139  0.15279494  0.00808995  1
  O2-  O529  1  0.08981951  0.16554607  0.37549676  1
  O2-  O530  1  0.08168661  0.16701379  0.68745061  1
  O2-  O531  1  0.05968078  0.40567560  0.00060839  1
  O2-  O532  1  0.09509852  0.39537899  0.37228853  1
  O2-  O533  1  0.07273160  0.41782340  0.68963960  1
  O2-  O534  1  0.06119069  0.67688773  -0.01094620  1
  O2-  O535  1  0.09188084  0.64847769  0.35800766  1
  O2-  O536  1  0.05383676  0.65969209  0.68006653  1
  O2-  O537  1  0.05139188  0.94491886  0.03821346  1
  O2-  O538  1  0.08560799  0.91624367  0.37324243  1
  O2-  O539  1  0.08555492  0.93216728  0.67508310  1
  O2-  O540  1  0.33919813  0.17459173  0.02518871  1
  O2-  O541  1  0.33295452  0.16587804  0.35357837  1
  O2-  O542  1  0.33682249  0.16817948  0.67584951  1
  O2-  O543  1  0.37458128  0.44539786  0.03818433  1
  O2-  O544  1  0.33762401  0.41038636  0.35807593  1
  O2-  O545  1  0.32754775  0.41129654  0.68828812  1
  O2-  O546  1  0.35675232  0.66266885  0.02263194  1
  O2-  O547  1  0.33259823  0.66052053  0.34422457  1
  O2-  O548  1  0.38238841  0.68297325  0.67716158  1
  O2-  O549  1  0.29749849  0.91775716  0.03483147  1
  O2-  O550  1  0.35721575  0.93459786  0.35862795  1
  O2-  O551  1  0.31494918  0.90395580  0.70075556  1
  O2-  O552  1  0.61422760  0.19153669  0.02385785  1
  O2-  O553  1  0.58855033  0.16532638  0.35942940  1
  O2-  O554  1  0.59842506  0.16857114  0.68111247  1
  O2-  O555  1  0.58297428  0.41546338  0.02020673  1
  O2-  O556  1  0.59568518  0.41957513  0.36555876  1
  O2-  O557  1  0.58340295  0.43675356  0.68737878  1
  O2-  O558  1  0.54199917  0.60400731  0.03539444  1
  O2-  O559  1  0.59283860  0.65576905  0.36931085  1
  O2-  O560  1  0.67430632  0.71616454  0.74405392  1
  O2-  O561  1  0.60243213  0.92715336  0.02438604  1
  O2-  O562  1  0.58743518  0.91675567  0.36415300  1
  O2-  O563  1  0.59210848  0.92688958  0.68774164  1
  O2-  O564  1  0.83717095  0.16887569  0.02155592  1
  O2-  O565  1  0.83817877  0.18477892  0.35848724  1
  O2-  O566  1  0.85033355  0.18151864  0.68394012  1
  O2-  O567  1  0.83644262  0.42864372  0.00906927  1
  O2-  O568  1  0.73754002  0.37410497  0.29830040  1
  O2-  O569  1  0.79848163  0.42031345  0.69136108  1
  O2-  O570  1  0.82434928  0.67119011  0.02262920  1
  O2-  O571  1  0.84800489  0.65704618  0.35672479  1
  O2-  O572  1  0.82563944  0.67990313  0.68620849  1
  O2-  O573  1  0.84831989  0.92412456  0.03204987  1
  O2-  O574  1  0.83808765  0.92923937  0.32894703  1
  O2-  O575  1  0.84834480  0.92661100  0.68562752  1
