# generated using pymatgen
data_H2O
_symmetry_space_group_name_H-M   'P 1'
_cell_length_a   18.00010327
_cell_length_b   17.99814746
_cell_length_c   22.00186508
_cell_angle_alpha   89.98476372
_cell_angle_beta   90.01667177
_cell_angle_gamma   120.01677259
_symmetry_Int_Tables_number   1
_chemical_formula_structural   H2O
_chemical_formula_sum   'H384 O192'
_cell_volume   6171.90856006
_cell_formula_units_Z   192
loop_
 _symmetry_equiv_pos_site_id
 _symmetry_equiv_pos_as_xyz
  1  'x, y, z'
loop_
 _atom_type_symbol
 _atom_type_oxidation_number
  H+  1.0
  O2-  -2.0
loop_
 _atom_site_type_symbol
 _atom_site_label
 _atom_site_symmetry_multiplicity
 _atom_site_fract_x
 _atom_site_fract_y
 _atom_site_fract_z
 _atom_site_occupancy
  H+  H0  1  0.81352150  0.90936375  0.09685416  1
  H+  H1  1  0.15438358  0.29184248  0.91871170  1
  H+  H2  1  0.38933686  0.65880109  1.00153979  1
  H+  H3  1  0.53244638  0.14196777  0.16826311  1
  H+  H4  1  0.44885657  0.57865069  0.35969504  1
  H+  H5  1  0.14821902  0.77931746  0.99452012  1
  H+  H6  1  0.05852891  0.85237743  0.04269060  1
  H+  H7  1  0.13667709  0.12150301  0.16969043  1
  H+  H8  1  0.38091081  0.10379884  0.82776362  1
  H+  H9  1  0.34043230  0.22557616  0.49826612  1
  H+  H10  1  0.86662543  0.89124638  0.82735565  1
  H+  H11  1  0.30934322  0.60799663  0.51032019  1
  H+  H12  1  0.80861091  0.78226634  0.61743689  1
  H+  H13  1  0.46753330  0.39849166  0.53276337  1
  H+  H14  1  0.53374663  0.90014140  0.64957454  1
  H+  H15  1  -0.02648409  0.86350818  0.83569465  1
  H+  H16  1  0.38393944  0.88762800  0.00853783  1
  H+  H17  1  0.12053093  0.70998096  0.65519897  1
  H+  H18  1  0.58265908  0.41650013  0.76092298  1
  H+  H19  1  0.15380950  1.00667704  0.34872545  1
  H+  H20  1  0.46921296  0.10357240  0.82537392  1
  H+  H21  1  0.62459651  0.50832396  0.33173499  1
  H+  H22  1  0.28922380  0.88691150  0.34575198  1
  H+  H23  1  0.12899691  0.23929943  0.98816659  1
  H+  H24  1  0.64172291  0.87378088  0.99699216  1
  H+  H25  1  0.60931033  0.84908431  0.50405847  1
  H+  H26  1  0.36320338  0.83482493  0.51307163  1
  H+  H27  1  0.11159991  0.66542557  0.16584179  1
  H+  H28  1  0.35548848  0.72968631  0.82768417  1
  H+  H29  1  0.24001079  0.36677612  0.67546989  1
  H+  H30  1  0.83600571  0.92529084  0.77044374  1
  H+  H31  1  0.15027836  0.58357406  0.74365878  1
  H+  H32  1  0.62483962  -0.01908954  1.00699150  1
  H+  H33  1  0.77163853  0.88454098  0.16316685  1
  H+  H34  1  -0.03135353  0.36614479  0.17472138  1
  H+  H35  1  0.65528174  0.74413298  0.81716714  1
  H+  H36  1  0.08407533  0.41948499  0.38919403  1
  H+  H37  1  0.08266781  0.34955061  0.29461598  1
  H+  H38  1  0.13069896  0.62338346  0.33839262  1
  H+  H39  1  0.89182839  0.36387611  0.83667423  1
  H+  H40  1  0.59323186  0.71946863  0.49696966  1
  H+  H41  1  0.07966034  0.68443040  0.76251889  1
  H+  H42  1  0.47858760  0.58366899  0.98350838  1
  H+  H43  1  0.14584332  0.12488913  0.69744443  1
  H+  H44  1  0.84579297  0.41334348  0.39590928  1
  H+  H45  1  0.75518695  0.89869803  0.35753751  1
  H+  H46  1  -0.02252893  0.14081808  0.53063242  1
  H+  H47  1  0.14253006  0.63301865  0.50676568  1
  H+  H48  1  0.72884452  0.37522161  0.64138463  1
  H+  H49  1  0.89247484  0.60554439  0.66453725  1
  H+  H50  1  -0.02163993  0.63070446  0.18015278  1
  H+  H51  1  0.53667483  0.63061267  0.16914526  1
  H+  H52  1  0.22080385  0.61787926  0.79501173  1
  H+  H53  1  0.89942070  0.03136454  0.84023385  1
  H+  H54  1  0.79986213  0.78127732  0.29823477  1
  H+  H55  1  0.86393122  0.64140828  0.50507194  1
  H+  H56  1  0.45350246  0.33129895  0.98317273  1
  H+  H57  1  0.12553917  0.23183906  0.50896910  1
  H+  H58  1  0.85953397  0.64557068  0.00325955  1
  H+  H59  1  0.01324166  0.64731492  0.34685535  1
  H+  H60  1  0.24218670  0.35796092  0.34924008  1
  H+  H61  1  0.36355747  0.18845907  0.33548469  1
  H+  H62  1  0.11105153  0.64731634  0.81195757  1
  H+  H63  1  0.28756852  0.09056552  0.36166222  1
  H+  H64  1  0.87240197  0.12356379  0.34781889  1
  H+  H65  1  -0.03540658  0.11667678  0.34022894  1
  H+  H66  1  0.42247147  0.83853850  0.93237401  1
  H+  H67  1  0.77582582  0.66191785  -0.00017850  1
  H+  H68  1  0.66307423  0.62734902  0.82611339  1
  H+  H69  1  0.64173822  0.77422815  0.18071077  1
  H+  H70  1  0.38969221  0.10926081  0.65415836  1
  H+  H71  1  0.20571581  0.11754545  0.49663293  1
  H+  H72  1  0.89353343  0.78190338  0.13278636  1
  H+  H73  1  0.65034495  0.65784222  0.98110786  1
  H+  H74  1  0.26398458  0.88175317  0.81803512  1
  H+  H75  1  0.64833706  0.87248796  0.64070129  1
  H+  H76  1  0.50507608  0.08269296  0.51152413  1
  H+  H77  1  0.11219808  0.51612192  0.17169669  1
  H+  H78  1  -0.02517105  0.36938470  0.00432204  1
  H+  H79  1  0.28560375  0.30987978  0.48087055  1
  H+  H80  1  0.45480626  0.86541589  0.84187724  1
  H+  H81  1  0.41313789  0.60877301  0.19142580  1
  H+  H82  1  0.35116044  0.44475794  -0.00348902  1
  H+  H83  1  0.72090549  0.11872618  0.99545681  1
  H+  H84  1  -0.10893915  0.87131039  0.13224061  1
  H+  H85  1  0.41537707  0.82128441  0.27583182  1
  H+  H86  1  0.97838217  0.35382366  0.65276055  1
  H+  H87  1  0.78325298  0.65195774  0.16374604  1
  H+  H88  1  0.34336382  0.63560737  0.82687009  1
  H+  H89  1  0.22498305  0.65649047  0.18698029  1
  H+  H90  1  0.40656112  0.10630907  0.34427980  1
  H+  H91  1  0.58813553  0.72265789  0.01413402  1
  H+  H92  1  0.37810639  0.35092176  0.17295624  1
  H+  H93  1  0.13409859  0.77519578  0.83091547  1
  H+  H94  1  0.86242881  0.17845552  0.00482851  1
  H+  H95  1  0.85343699  0.95411066  -0.00288027  1
  H+  H96  1  0.15464496  0.57072225  0.98383673  1
  H+  H97  1  0.77824258  0.38343001  0.34061884  1
  H+  H98  1  0.61638046  0.38061357  0.34535510  1
  H+  H99  1  0.12146768  1.00511698  -0.00340499  1
  H+  H100  1  0.86901957  0.02157095  0.34894329  1
  H+  H101  1  0.63466716  0.03654371  0.64736134  1
  H+  H102  1  0.76638922  0.36756350  0.81847097  1
  H+  H103  1  0.85349550  0.62398773  0.34858292  1
  H+  H104  1  0.28041662  0.88425251  0.50879281  1
  H+  H105  1  0.86723361  0.72581636  0.82282078  1
  H+  H106  1  0.41585097  0.17175022  0.51445129  1
  H+  H107  1  0.10076856  0.47952421  0.33127236  1
  H+  H108  1  0.26935831  0.13761343  0.82033872  1
  H+  H109  1  0.86177251  0.59450954  0.84158582  1
  H+  H110  1  0.37551434  0.26600382  0.82874786  1
  H+  H111  1  0.64155174  0.86337436  0.18093633  1
  H+  H112  1  0.45139214  0.58150466  0.24732443  1
  H+  H113  1  0.32144629  0.43593270  0.80749337  1
  H+  H114  1  0.84942517  0.36874320  0.48835231  1
  H+  H115  1  0.87933852  0.29698533  0.99763032  1
  H+  H116  1  0.07465110  0.23187339  0.30944320  1
  H+  H117  1  0.32562066  0.15567194  0.06381214  1
  H+  H118  1  0.91374240  0.88367235  0.50625773  1
  H+  H119  1  0.88187853  0.00150189  0.51156416  1
  H+  H120  1  0.60871013  0.22543605  0.82109818  1
  H+  H121  1  0.39173331  0.25545906  0.67573806  1
  H+  H122  1  0.36262122  0.24857329  0.98328153  1
  H+  H123  1  0.87048056  0.23519345  0.84185178  1
  H+  H124  1  0.48439899  0.85559653  0.49538632  1
  H+  H125  1  0.96031659  0.86224069  0.99070520  1
  H+  H126  1  0.76362985  0.16529012  0.51382406  1
  H+  H127  1  0.86112149  0.89600670  0.67398213  1
  H+  H128  1  0.85976766  0.48981167  0.15462366  1
  H+  H129  1  0.50570423  0.84200740  0.76341570  1
  H+  H130  1  0.15053201  0.76064178  0.53204157  1
  H+  H131  1  0.40075663  0.87397661  0.65784519  1
  H+  H132  1  0.29073097  0.88041989  0.00662322  1
  H+  H133  1  0.88592471  0.07932256  0.99414396  1
  H+  H134  1  0.89242500  0.11541472  0.15914234  1
  H+  H135  1  0.37881412  0.98819371  0.16614901  1
  H+  H136  1  0.34683972  0.63156377  -0.01410057  1
  H+  H137  1  0.19782264  0.62789128  1.04180552  1
  H+  H138  1  0.17301274  0.87726622  0.98313005  1
  H+  H139  1  0.11513775  0.43063714  0.17954251  1
  H+  H140  1  0.65936828  0.53000923  0.00528282  1
  H+  H141  1  0.62954541  0.61555010  0.50893794  1
  H+  H142  1  0.11696819  0.31976964  0.83000047  1
  H+  H143  1  0.62831847  0.64517606  0.66592786  1
  H+  H144  1  0.63118677  0.73575632  0.66192837  1
  H+  H145  1  0.74396548  0.88069197  0.84522417  1
  H+  H146  1  0.86727525  0.14369000  0.84270013  1
  H+  H147  1  0.34651673  0.73928158  0.51877939  1
  H+  H148  1  0.47820651  0.62081342  0.75830627  1
  H+  H149  1  0.80193149  0.51540664  0.88177195  1
  H+  H150  1  0.48132462  0.31356449  0.31672321  1
  H+  H151  1  0.63240495  0.36067138  0.17758756  1
  H+  H152  1  0.15272373  0.95057914  0.40564640  1
  H+  H153  1  0.09128278  0.22079437  0.37840978  1
  H+  H154  1  0.03377099  0.38539475  0.81970428  1
  H+  H155  1  0.75937975  0.61369744  0.35246071  1
  H+  H156  1  0.11278400  0.10377896  0.67279253  1
  H+  H157  1  0.12205786  0.46832361  0.80368323  1
  H+  H158  1  0.86841558  0.22648400  0.15722820  1
  H+  H159  1  0.77833817  0.63709493  0.82302936  1
  H+  H160  1  0.67134427  0.33497305  0.27445706  1
  H+  H161  1  0.62846960  0.25523829  0.99044891  1
  H+  H162  1  0.26033617  0.62318346  0.65908170  1
  H+  H163  1  0.51982500  0.38732057  0.81798534  1
  H+  H164  1  0.88744247  0.12138051  0.68175290  1
  H+  H165  1  0.64397853  0.11631236  0.17764763  1
  H+  H166  1  0.32122328  0.90288536  0.72480919  1
  H+  H167  1  0.83544219  0.88850336  0.36069570  1
  H+  H168  1  0.90157691  0.82783547  0.59129599  1
  H+  H169  1  0.64698850  0.03506991  0.83587773  1
  H+  H170  1  0.11590541  0.75502189  0.16332795  1
  H+  H171  1  0.40963116  0.56231261  0.81645285  1
  H+  H172  1  0.02164133  0.11902434  0.00407192  1
  H+  H173  1  0.56971451  0.40502260  0.39805974  1
  H+  H174  1  0.26263795  0.11621612  0.00597027  1
  H+  H175  1  0.61176389  0.39189775  0.66202297  1
  H+  H176  1  0.33303087  0.55510188  0.39895150  1
  H+  H177  1  0.22553041  0.15259696  0.32831405  1
  H+  H178  1  0.82507382  0.18048805  0.07059764  1
  H+  H179  1  0.17865961  0.89384287  0.32906225  1
  H+  H180  1  0.40203329  1.01643607  0.33752201  1
  H+  H181  1  0.36297712  0.46708428  0.16233036  1
  H+  H182  1  0.63865244  0.01886682  0.33135103  1
  H+  H183  1  0.38197277  0.36634563  0.67994259  1
  H+  H184  1  0.18990322  0.85698901  0.23461270  1
  H+  H185  1  0.73774151  0.86336870  0.99579974  1
  H+  H186  1  0.62230370  0.85498301  0.33659618  1
  H+  H187  1  0.59907739  0.71693531  0.34233800  1
  H+  H188  1  0.86024953  0.71640774  0.66912102  1
  H+  H189  1  0.62316777  -0.01943364  0.16658901  1
  H+  H190  1  0.84543232  0.86070749  0.99810718  1
  H+  H191  1  0.22672039  0.37892449  0.37144419  1
  H+  H192  1  0.96947200  0.35658819  0.32528624  1
  H+  H193  1  0.88845713  0.62487999  0.17850487  1
  H+  H194  1  0.61495705  0.13972044  0.82411444  1
  H+  H195  1  0.37693934  0.12738427  0.51526536  1
  H+  H196  1  0.35614264  0.97020445  0.81409445  1
  H+  H197  1  -0.02272828  0.63965326  -0.00687970  1
  H+  H198  1  0.51734821  0.87921869  0.34227773  1
  H+  H199  1  0.40812434  0.77574651  0.98759743  1
  H+  H200  1  0.04379955  0.87692070  0.48063252  1
  H+  H201  1  0.39271465  0.11552989  0.18044870  1
  H+  H202  1  0.15820989  0.37416424  0.65308380  1
  H+  H203  1  0.84831842  0.39871777  0.00051277  1
  H+  H204  1  0.48294517  0.86501816  0.18431534  1
  H+  H205  1  0.64080376  0.69747142  0.75106671  1
  H+  H206  1  0.01631866  0.16749964  0.69498277  1
  H+  H207  1  0.13477849  0.48506841  0.47828876  1
  H+  H208  1  0.30017631  0.78196918  0.06464894  1
  H+  H209  1  0.38264314  -0.04277097  0.50539913  1
  H+  H210  1  0.50090789  0.92452624  0.75740905  1
  H+  H211  1  0.86449585  0.46746938  0.66652648  1
  H+  H212  1  0.24964486  0.88614923  0.17337206  1
  H+  H213  1  0.14677940  0.79239513  0.32502665  1
  H+  H214  1  0.24184653  0.10781349  0.64423200  1
  H+  H215  1  0.11267561  0.25544844  0.68891465  1
  H+  H216  1  0.39589634  0.02451713  1.00273428  1
  H+  H217  1  0.83033276  0.66055992  0.44386070  1
  H+  H218  1  0.03358924  0.86504813  0.33100007  1
  H+  H219  1  0.72152558  0.61788628  0.50641131  1
  H+  H220  1  0.91028450  0.59041739  0.93841493  1
  H+  H221  1  -0.00714899  0.87541713  0.07984805  1
  H+  H222  1  0.09913705  0.64542244  0.02024161  1
  H+  H223  1  0.36571019  0.22122875  0.15524523  1
  H+  H224  1  0.45672371  0.61435662  0.52134719  1
  H+  H225  1  0.59344506  0.91959554  0.10840707  1
  H+  H226  1  0.34943196  0.36043044  0.80491165  1
  H+  H227  1  0.53794313  0.88974329  0.00627940  1
  H+  H228  1  0.62615320  0.59928999  0.33469642  1
  H+  H229  1  0.84931357  0.45752300  0.81976400  1
  H+  H230  1  0.11324138  0.47468694  0.66588882  1
  H+  H231  1  0.11705351  0.41464253  0.02417884  1
  H+  H232  1  0.14291603  0.01089386  0.17465280  1
  H+  H233  1  0.16543574  -0.03032551  0.64947162  1
  H+  H234  1  0.05768994  0.72162463  0.39484300  1
  H+  H235  1  0.68712840  0.63765070  0.92131975  1
  H+  H236  1  0.10637735  0.22074147  0.14653631  1
  H+  H237  1  0.50893614  0.12164626  0.67341470  1
  H+  H238  1  0.87820245  0.76734732  -0.00764270  1
  H+  H239  1  0.30797633  0.59267254  0.13178631  1
  H+  H240  1  0.77755418  0.13769794  0.15795169  1
  H+  H241  1  0.61183288  0.12740168  0.66551722  1
  H+  H242  1  0.41314358  0.41480694  0.36435553  1
  H+  H243  1  0.52102660  0.13380695  0.01607275  1
  H+  H244  1  0.53753128  0.13555830  0.34113356  1
  H+  H245  1  0.83578083  0.75018473  0.35083807  1
  H+  H246  1  0.63974035  0.52780963  0.83713176  1
  H+  H247  1  0.36620453  0.86351156  0.84345996  1
  H+  H248  1  0.12921271  0.09614964  0.99509129  1
  H+  H249  1  0.38869850  0.85082611  0.33685269  1
  H+  H250  1  0.64584678  0.27272824  0.33239155  1
  H+  H251  1  0.15293469  0.91383268  0.17387867  1
  H+  H252  1  -0.00978824  0.61085114  0.51767713  1
  H+  H253  1  0.63017894  0.35842829  0.83402791  1
  H+  H254  1  0.60794553  0.12982414  0.01293707  1
  H+  H255  1  0.21369423  0.34381331  0.56514903  1
  H+  H256  1  0.38867367  0.10864325  0.99925197  1
  H+  H257  1  0.63236228  0.16057084  0.49558913  1
  H+  H258  1  0.88929716  1.02527281  0.16165563  1
  H+  H259  1  0.98711945  0.83638294  0.33894011  1
  H+  H260  1  0.73156103  0.60597929  0.65736350  1
  H+  H261  1  0.84248902  0.17672389  0.74627328  1
  H+  H262  1  0.34981767  0.70914745  0.35210437  1
  H+  H263  1  0.39791057  0.86977648  0.18432243  1
  H+  H264  1  0.87933493  0.35254831  0.32450306  1
  H+  H265  1  0.73575638  0.41175371  0.45078227  1
  H+  H266  1  0.69070692  1.06852185  0.51334274  1
  H+  H267  1  0.83782013  0.66260679  0.73118081  1
  H+  H268  1  0.58961047  0.16968797  0.10781320  1
  H+  H269  1  0.27679750  0.13624875  0.16022075  1
  H+  H270  1  0.64000616  0.27661995  0.17897041  1
  H+  H271  1  0.27699529  0.87474231  0.65800225  1
  H+  H272  1  0.65543370  0.32242062  0.89322360  1
  H+  H273  1  0.66096226  0.51826819  0.97231621  1
  H+  H274  1  0.07831617  0.69320667  0.07109036  1
  H+  H275  1  0.86547605  0.23001470  0.34110677  1
  H+  H276  1  0.64987416  0.86999607  0.84204888  1
  H+  H277  1  0.58233573  0.42369387  -0.00131968  1
  H+  H278  1  0.22391246  0.33492592  0.98131244  1
  H+  H279  1  0.71216520  0.35144470  0.98894504  1
  H+  H280  1  0.10359035  0.97477920  0.82510283  1
  H+  H281  1  0.59063117  0.34037156  -0.00259335  1
  H+  H282  1  0.88897776  0.35223259  0.65324281  1
  H+  H283  1  0.67500177  0.53314695  0.19078519  1
  H+  H284  1  0.44605670  0.59035097  0.73552568  1
  H+  H285  1  0.38715744  0.36910417  0.37477088  1
  H+  H286  1  0.15156783  0.85195177  0.62946919  1
  H+  H287  1  0.37285213  0.60671422  0.62186223  1
  H+  H288  1  0.94733926  0.89264182  0.24270435  1
  H+  H289  1  0.07450691  0.41756223  0.08574443  1
  H+  H290  1  0.82486992  0.40016390  0.72022582  1
  H+  H291  1  0.89879952  0.78752894  0.50310758  1
  H+  H292  1  0.44973968  0.22443721  0.70712064  1
  H+  H293  1  0.66986764  0.58050990  0.59816264  1
  H+  H294  1  0.92085765  0.10076906  0.62046502  1
  H+  H295  1  0.41636552  0.82370885  0.60503865  1
  H+  H296  1  0.34569994  0.35559581  0.00172952  1
  H+  H297  1  0.72938746  0.10734950  0.33367708  1
  H+  H298  1  0.73721945  0.87662269  0.65296752  1
  H+  H299  1  0.42423528  0.08684230  0.24077651  1
  H+  H300  1  0.07099993  0.15408377  0.46331485  1
  H+  H301  1  0.87018556  0.99000190  0.68078339  1
  H+  H302  1  0.33987101  0.90960132  0.40933746  1
  H+  H303  1  0.01701538  0.12876339  0.15101967  1
  H+  H304  1  0.81098000  0.42140488  0.05820002  1
  H+  H305  1  0.54679119  0.95373010  0.49890320  1
  H+  H306  1  0.42271518  0.28705535  0.25782710  1
  H+  H307  1  0.11868530  0.09385592  0.52527244  1
  H+  H308  1  0.60115562  0.48456576  0.49170700  1
  H+  H309  1  0.66945333  0.83930497  0.93393736  1
  H+  H310  1  0.17153928  0.10746773  0.23482151  1
  H+  H311  1  0.10657188  0.88792128  0.82726545  1
  H+  H312  1  0.08261249  0.20556160  0.77405654  1
  H+  H313  1  0.73465032  0.12304424  0.84542363  1
  H+  H314  1  0.56948030  0.91183295  0.40355410  1
  H+  H315  1  0.91256638  0.31746781  0.23230649  1
  H+  H316  1  0.12736173  0.34493651  0.11462675  1
  H+  H317  1  0.13303956  0.14302440  0.32323024  1
  H+  H318  1  0.68430765  0.37283852  0.57943627  1
  H+  H319  1  0.67846780  0.11761086  0.60138892  1
  H+  H320  1  0.04480901  0.39687087  0.48139336  1
  H+  H321  1  0.19817706  0.53953320  0.90848775  1
  H+  H322  1  0.92225295  0.57856847  0.60457686  1
  H+  H323  1  0.20086925  0.06423914  0.58083753  1
  H+  H324  1  0.16385231  0.61423045  0.24486680  1
  H+  H325  1  0.08807799  0.40482990  0.71788996  1
  H+  H326  1  0.10619674  0.31688782  0.23230593  1
  H+  H327  1  0.91603598  0.58641953  0.27272562  1
  H+  H328  1  0.17527617  0.56421237  0.90213165  1
  H+  H329  1  0.37902864  0.01456159  0.66072734  1
  H+  H330  1  0.34655052  0.48513943  0.43317315  1
  H+  H331  1  0.66240816  0.83088822  0.55308346  1
  H+  H332  1  0.62701501  0.13786289  0.34113951  1
  H+  H333  1  0.89562707  0.15060976  0.52513487  1
  H+  H334  1  0.55877277  0.65060267  0.44363768  1
  H+  H335  1  0.62807260  0.63990083  0.16258615  1
  H+  H336  1  0.89977920  0.52596298  0.51074976  1
  H+  H337  1  0.07136776  0.89545519  0.67055444  1
  H+  H338  1  0.58553455  0.46375829  0.12782275  1
  H+  H339  1  0.17389687  0.83403824  0.89026668  1
  H+  H340  1  0.16380975  0.08330397  0.89513477  1
  H+  H341  1  0.08082820  0.15587920  0.06514508  1
  H+  H342  1  0.12416247  0.86804173  0.49540792  1
  H+  H343  1  0.57295793  0.66158989  0.07100041  1
  H+  H344  1  0.14043792  0.12870794  0.84227144  1
  H+  H345  1  0.57628286  0.15860671  0.73304868  1
  H+  H346  1  0.33247085  0.41175801  0.09998773  1
  H+  H347  1  0.33913526  0.66050396  0.70425594  1
  H+  H348  1  0.61249353  0.47913498  0.67033431  1
  H+  H349  1  0.82829930  0.66531359  0.09790311  1
  H+  H350  1  0.58939597  0.16817792  0.43542876  1
  H+  H351  1  0.31143331  0.19709270  0.43130588  1
  H+  H352  1  0.10286359  0.66532550  0.45561379  1
  H+  H353  1  0.77377282  0.40058028  0.15839467  1
  H+  H354  1  0.29864067  0.65354927  0.41068207  1
  H+  H355  1  0.92877431  0.35029762  0.89959699  1
  H+  H356  1  0.67373681  0.58578772  0.24680015  1
  H+  H357  1  0.21637963  0.61741398  0.33533346  1
  H+  H358  1  0.67532233  0.08467898  0.23527058  1
  H+  H359  1  0.02881250  0.62852763  0.66974835  1
  H+  H360  1  0.33945829  0.17254789  0.76462222  1
  H+  H361  1  0.47483378  0.51098958  0.94306401  1
  H+  H362  1  0.10081610  0.93608940  0.11733053  1
  H+  H363  1  0.44817304  0.05186290  0.57211752  1
  H+  H364  1  0.60498837  0.93309559  0.70167685  1
  H+  H365  1  0.66272425  0.08203722  0.93547457  1
  H+  H366  1  0.90841601  0.82842136  0.89255568  1
  H+  H367  1  0.84165987  0.18463457  0.40733918  1
  H+  H368  1  0.21371587  0.36381009  0.15020789  1
  H+  H369  1  0.56345509  0.38346659  0.08761648  1
  H+  H370  1  0.46813661  0.35419328  0.16452204  1
  H+  H371  1  0.88978692  0.52088376  0.32930686  1
  H+  H372  1  0.66065161  0.83017695  0.27909048  1
  H+  H373  1  0.93789043  0.84761458  0.23743725  1
  H+  H374  1  0.87027132  0.22743295  0.68222690  1
  H+  H375  1  0.35116807  0.92589212  0.10694616  1
  H+  H376  1  0.84248036  0.94092852  0.45449598  1
  H+  H377  1  0.92094740  0.06703972  0.93011448  1
  H+  H378  1  0.38600249  0.53463163  0.88480014  1
  H+  H379  1  0.98545163  0.12642800  0.84795903  1
  H+  H380  1  0.47370595  0.37737419  0.66213883  1
  H+  H381  1  0.32341407  0.71859100  0.09895911  1
  H+  H382  1  0.39257234  0.64174811  0.09569005  1
  H+  H383  1  0.39698261  0.32791967  0.88571835  1
  O2-  O384  1  0.08085728  0.15875501  0.13638193  1
  O2-  O385  1  0.07826156  0.16994366  0.50605318  1
  O2-  O386  1  0.08977716  0.19624425  0.82514684  1
  O2-  O387  1  0.08376609  0.45468036  0.15896341  1
  O2-  O388  1  0.09948354  0.42609718  0.45973023  1
  O2-  O389  1  0.09209546  0.40399284  0.80383009  1
  O2-  O390  1  0.08156992  0.69484268  0.14880402  1
  O2-  O391  1  0.10536192  0.66288518  0.49993707  1
  O2-  O392  1  0.08317439  0.68270837  0.80760772  1
  O2-  O393  1  0.11932887  0.94638132  0.16120545  1
  O2-  O394  1  0.09420587  0.87791818  0.46162497  1
  O2-  O395  1  0.07080971  0.91330686  0.81488396  1
  O2-  O396  1  0.33515271  0.15904960  0.14288512  1
  O2-  O397  1  0.29513004  0.21591535  0.46949491  1
  O2-  O398  1  0.33170872  0.16819467  0.80977603  1
  O2-  O399  1  0.32575342  0.40914196  0.14486356  1
  O2-  O400  1  0.28678745  0.36418141  0.49224559  1
  O2-  O401  1  0.30790827  0.38007017  0.78643800  1
  O2-  O402  1  0.36397426  0.64495959  0.13253280  1
  O2-  O403  1  0.28044018  0.63556733  0.48905063  1
  O2-  O404  1  0.33775673  0.67798608  0.80229424  1
  O2-  O405  1  0.34639203  0.92670105  0.15199309  1
  O2-  O406  1  0.33410123  0.90277042  0.48577645  1
  O2-  O407  1  0.32523394  0.90656317  0.80307218  1
  O2-  O408  1  0.59291552  0.17197154  0.15341974  1
  O2-  O409  1  0.58396998  0.16639772  0.48037595  1
  O2-  O410  1  0.58156931  0.16449944  0.80591364  1
  O2-  O411  1  0.56906163  0.40342872  0.13138341  1
  O2-  O412  1  0.56229667  0.42287684  0.47881803  1
  O2-  O413  1  0.58117667  0.41556518  0.80684348  1
  O2-  O414  1  0.59347271  0.66547321  0.14840250  1
  O2-  O415  1  0.56313874  0.65517219  0.48828062  1
  O2-  O416  1  0.66703481  0.70532217  0.79347685  1
  O2-  O417  1  0.59351008  0.91877304  0.15328284  1
  O2-  O418  1  0.54331872  0.90190227  0.48203668  1
  O2-  O419  1  0.53146837  0.90058338  0.77932165  1
  O2-  O420  1  0.83496574  0.16681881  0.13762993  1
  O2-  O421  1  0.85913270  0.21719849  0.47971386  1
  O2-  O422  1  0.83495525  0.17252983  0.83056021  1
  O2-  O423  1  0.82605083  0.43413507  0.13386090  1
  O2-  O424  1  0.84114061  0.41678169  0.47343935  1
  O2-  O425  1  0.82686490  0.39829339  0.80385448  1
  O2-  O426  1  0.83932326  0.67534444  0.14289047  1
  O2-  O427  1  0.83306010  0.66983253  0.48896108  1
  O2-  O428  1  0.83923772  0.66503164  0.80813963  1
  O2-  O429  1  0.82763497  0.91571565  0.14053981  1
  O2-  O430  1  0.86810765  0.94518400  0.49480620  1
  O2-  O431  1  0.83911431  0.92669612  0.81626277  1
  O2-  O432  1  0.17221670  0.09869422  0.18960233  1
  O2-  O433  1  0.15713744  0.07039496  0.51891944  1
  O2-  O434  1  0.16608037  0.09206741  0.85063367  1
  O2-  O435  1  0.14965441  0.33275666  0.15229258  1
  O2-  O436  1  0.20223220  0.33303284  0.52041890  1
  O2-  O437  1  0.13996331  0.28490709  0.85000406  1
  O2-  O438  1  0.16516102  0.61948391  0.19857680  1
  O2-  O439  1  0.19004232  0.58399007  0.50866222  1
  O2-  O440  1  0.15817204  0.58053541  0.78928244  1
  O2-  O441  1  0.18812392  0.86156516  0.18884446  1
  O2-  O442  1  0.17692948  0.82273248  0.54601434  1
  O2-  O443  1  0.16742486  0.83801582  0.84616962  1
  O2-  O444  1  0.42535562  0.08777482  0.19542502  1
  O2-  O445  1  0.46425830  0.03033800  0.53607276  1
  O2-  O446  1  0.40735512  0.06776999  0.83458276  1
  O2-  O447  1  0.40980776  0.32046666  0.18267438  1
  O2-  O448  1  0.47667484  0.41277656  0.48935271  1
  O2-  O449  1  0.40064343  0.32917158  0.84052120  1
  O2-  O450  1  0.43833471  0.57309383  0.20308133  1
  O2-  O451  1  0.39745022  0.59265670  0.53765705  1
  O2-  O452  1  0.36073827  0.53002707  0.84392194  1
  O2-  O453  1  0.42276560  0.83482417  0.19881337  1
  O2-  O454  1  0.38875486  0.79990990  0.52870254  1
  O2-  O455  1  0.39899906  0.83633012  0.86306223  1
  O2-  O456  1  0.67467449  0.08505502  0.18985004  1
  O2-  O457  1  0.70335026  0.12470556  0.52801008  1
  O2-  O458  1  0.67073399  0.09062547  0.85595527  1
  O2-  O459  1  0.66599347  0.33657173  0.19532769  1
  O2-  O460  1  0.74896906  0.38481707  0.48462860  1
  O2-  O461  1  0.65869683  0.32575850  0.84772244  1
  O2-  O462  1  0.68152372  0.58883252  0.20083022  1
  O2-  O463  1  0.66061181  0.58399297  0.52007862  1
  O2-  O464  1  0.67669690  0.58768758  0.85118770  1
  O2-  O465  1  0.67217052  0.83369050  0.19703015  1
  O2-  O466  1  0.64294317  0.82029132  0.51010992  1
  O2-  O467  1  0.68327123  0.84897298  0.86319833  1
  O2-  O468  1  0.92523658  0.08698774  0.17210529  1
  O2-  O469  1  0.91565161  0.11262288  0.54169698  1
  O2-  O470  1  0.92512080  0.08771607  0.86250423  1
  O2-  O471  1  0.91433468  0.31603180  0.18718961  1
  O2-  O472  1  0.90216612  0.30322956  0.48577829  1
  O2-  O473  1  0.92663354  0.34008057  0.85500341  1
  O2-  O474  1  0.91874544  0.59605014  0.19584272  1
  O2-  O475  1  0.92788515  0.58529813  0.52644084  1
  O2-  O476  1  0.85963686  0.54500853  0.86462174  1
  O2-  O477  1  0.92506685  0.84368811  0.12004384  1
  O2-  O478  1  0.93747937  0.84606512  0.51923726  1
  O2-  O479  1  0.90999121  0.83150195  0.84753653  1
  O2-  O480  1  0.16862899  0.11734945  0.30998815  1
  O2-  O481  1  0.22989811  0.05892172  0.61883252  1
  O2-  O482  1  0.15601878  0.06291012  0.97931287  1
  O2-  O483  1  0.07360483  0.29849136  0.27046593  1
  O2-  O484  1  0.18878092  0.34065789  0.64721178  1
  O2-  O485  1  0.16188786  0.29854289  0.96583948  1
  O2-  O486  1  0.15704433  0.59516090  0.31628441  1
  O2-  O487  1  0.15355118  0.58160829  0.66810598  1
  O2-  O488  1  0.14309940  0.57974261  1.02583484  1
  O2-  O489  1  0.18915359  0.84967798  0.30893149  1
  O2-  O490  1  0.17816149  0.81553240  0.61273186  1
  O2-  O491  1  0.19189650  0.83617281  0.97490090  1
  O2-  O492  1  0.43077552  0.07668548  0.32098049  1
  O2-  O493  1  0.41704206  0.07454622  0.64529070  1
  O2-  O494  1  0.42664088  0.08486693  0.98990124  1
  O2-  O495  1  0.43590898  0.26371975  0.29426629  1
  O2-  O496  1  0.41104860  0.34333268  0.65294498  1
  O2-  O497  1  0.39345648  0.30990194  0.96842712  1
  O2-  O498  1  0.49007899  0.61036711  0.32469649  1
  O2-  O499  1  0.40755482  0.58256081  0.60228355  1
  O2-  O500  1  0.43866785  0.53347915  0.95758638  1
  O2-  O501  1  0.41486576  0.81681071  0.32147313  1
  O2-  O502  1  0.43762583  0.84968928  0.64597973  1
  O2-  O503  1  0.43527085  0.83679889  0.97746672  1
  O2-  O504  1  0.67143667  0.07865559  0.31482508  1
  O2-  O505  1  0.65791951  0.10018598  0.64413149  1
  O2-  O506  1  0.66131931  0.07818286  0.98078187  1
  O2-  O507  1  0.67462671  0.33489527  0.31984703  1
  O2-  O508  1  0.67242256  0.36018515  0.62262708  1
  O2-  O509  1  0.65099597  0.31363372  0.97150563  1
  O2-  O510  1  0.65808907  0.57084048  0.31969188  1
  O2-  O511  1  0.67070220  0.58006240  0.64356806  1
  O2-  O512  1  0.70329159  0.67448628  0.95829206  1
  O2-  O513  1  0.65403440  0.82450799  0.32408259  1
  O2-  O514  1  0.68075940  0.84228611  0.63213763  1
  O2-  O515  1  0.66773367  0.83695044  0.98058430  1
  O2-  O516  1  0.90074793  0.08465288  0.33310532  1
  O2-  O517  1  0.92212937  0.09371052  0.66535089  1
  O2-  O518  1  0.91830855  0.05462282  0.97647178  1
  O2-  O519  1  0.90825879  0.31961285  0.31162973  1
  O2-  O520  1  0.91614428  0.31733614  0.64430685  1
  O2-  O521  1  0.92205722  0.35404727  0.98122441  1
  O2-  O522  1  0.91625185  0.58314860  0.31841740  1
  O2-  O523  1  0.92225560  0.57478209  0.64983383  1
  O2-  O524  1  0.91615827  0.60988021  0.98096242  1
  O2-  O525  1  0.83670457  0.80191324  0.33386781  1
  O2-  O526  1  0.86826935  0.81069239  0.63092521  1
  O2-  O527  1  0.90246594  0.82745974  0.97338386  1
  O2-  O528  1  0.08230387  0.15410299  0.01839469  1
  O2-  O529  1  0.07031902  0.18652069  0.34140698  1
  O2-  O530  1  0.06773377  0.21332207  0.71738860  1
  O2-  O531  1  0.07210527  0.37808077  0.05279469  1
  O2-  O532  1  0.07376186  0.41841325  0.34329745  1
  O2-  O533  1  0.09079714  0.41132464  0.67306124  1
  O2-  O534  1  0.08119972  0.68954884  0.02570897  1
  O2-  O535  1  0.07116713  0.68966195  0.36516695  1
  O2-  O536  1  0.08787298  0.66608857  0.68615258  1
  O2-  O537  1  0.05007009  0.90095976  0.05097081  1
  O2-  O538  1  0.18419215  0.97958232  0.36703117  1
  O2-  O539  1  0.13035953  0.90873574  0.66568165  1
  O2-  O540  1  0.32355266  0.15374700  0.01832253  1
  O2-  O541  1  0.33076515  0.15046966  0.37133635  1
  O2-  O542  1  0.39011395  0.20156542  0.69482437  1
  O2-  O543  1  0.31478292  0.38723966  0.01520262  1
  O2-  O544  1  0.37569613  0.53898690  0.41018588  1
  O2-  O545  1  0.32915271  0.40499122  0.72135936  1
  O2-  O546  1  0.27786047  0.72210589  0.07683114  1
  O2-  O547  1  0.30727758  0.65025335  0.36625836  1
  O2-  O548  1  0.32431155  0.64714986  0.66139350  1
  O2-  O549  1  0.34641344  0.90575503  0.02934990  1
  O2-  O550  1  0.34759040  0.91391038  0.36392227  1
  O2-  O551  1  0.33172567  0.91068913  0.67986528  1
  O2-  O552  1  0.58358223  0.16418631  0.02994152  1
  O2-  O553  1  0.59826298  0.17013716  0.35513263  1
  O2-  O554  1  0.57176656  0.15541794  0.68697017  1
  O2-  O555  1  0.55245295  0.36458648  0.01414012  1
  O2-  O556  1  0.57764560  0.40470680  0.35328438  1
  O2-  O557  1  0.58108397  0.41766547  0.68418715  1
  O2-  O558  1  0.56027653  0.66208168  0.02662220  1
  O2-  O559  1  0.57374673  0.65500425  0.35575566  1
  O2-  O560  1  0.60719157  0.68122746  0.68486332  1
  O2-  O561  1  0.59819515  0.91942956  0.02192287  1
  O2-  O562  1  0.57777725  0.91344573  0.35866980  1
  O2-  O563  1  0.59972759  0.93355826  0.65742843  1
  O2-  O564  1  0.81976181  0.18859090  0.02415735  1
  O2-  O565  1  0.83599936  0.17084724  0.36238919  1
  O2-  O566  1  0.84184998  0.16878590  0.70202753  1
  O2-  O567  1  0.80279518  0.41034778  0.01334739  1
  O2-  O568  1  0.84133275  0.41406805  0.35062530  1
  O2-  O569  1  0.82776628  0.40465744  0.67528725  1
  O2-  O570  1  0.83017357  0.67654080  0.02213512  1
  O2-  O571  1  0.81936997  0.64746141  0.36804881  1
  O2-  O572  1  0.83634081  0.65757914  0.68563479  1
  O2-  O573  1  0.81538241  0.89401811  0.01285893  1
  O2-  O574  1  0.81615688  0.93047951  0.37167369  1
  O2-  O575  1  0.83509885  0.92738754  0.69320019  1
