# generated using pymatgen
data_H2O
_symmetry_space_group_name_H-M   'P 1'
_cell_length_a   17.99217166
_cell_length_b   17.98511372
_cell_length_c   22.01017046
_cell_angle_alpha   89.98743696
_cell_angle_beta   89.98636844
_cell_angle_gamma   119.98099408
_symmetry_Int_Tables_number   1
_chemical_formula_structural   H2O
_chemical_formula_sum   'H384 O192'
_cell_volume   6169.27186425
_cell_formula_units_Z   192
loop_
 _symmetry_equiv_pos_site_id
 _symmetry_equiv_pos_as_xyz
  1  'x, y, z'
loop_
 _atom_type_symbol
 _atom_type_oxidation_number
  H+  1.0
  O2-  -2.0
loop_
 _atom_site_type_symbol
 _atom_site_label
 _atom_site_symmetry_multiplicity
 _atom_site_fract_x
 _atom_site_fract_y
 _atom_site_fract_z
 _atom_site_occupancy
  H+  H0  1  0.72217713  0.36953145  0.33011430  1
  H+  H1  1  0.00115692  0.11353265  0.49321641  1
  H+  H2  1  0.61564995  0.98084415  0.33805621  1
  H+  H3  1  0.86183777  0.48761566  0.82783107  1
  H+  H4  1  -0.02027105  0.36200679  0.51042324  1
  H+  H5  1  0.77551448  0.14176106  0.83055793  1
  H+  H6  1  0.97657697  0.85568842  0.49282395  1
  H+  H7  1  0.87056107  0.75769210  0.84337736  1
  H+  H8  1  0.65853571  0.62572639  1.00205306  1
  H+  H9  1  0.29711881  0.39741311  0.33276893  1
  H+  H10  1  0.73401833  0.87028345  0.17017253  1
  H+  H11  1  0.38608297  0.52242324  0.65551087  1
  H+  H12  1  0.88068373  0.84998963  0.67491941  1
  H+  H13  1  0.37446269  0.65526298  0.17635946  1
  H+  H14  1  0.85423088  0.47433990  0.34215522  1
  H+  H15  1  0.74344516  0.32549018  0.52542946  1
  H+  H16  1  0.71992639  0.35684359  0.67435399  1
  H+  H17  1  0.83798892  0.42842783  0.10105102  1
  H+  H18  1  0.10442006  0.71612090  0.18732371  1
  H+  H19  1  0.49065670  0.63223875  0.50615735  1
  H+  H20  1  0.27267012  0.66028885  0.03927742  1
  H+  H21  1  0.36002025  0.73507434  0.48898788  1
  H+  H22  1  0.10972959  0.47381439  0.67287644  1
  H+  H23  1  0.24624630  0.61947002  0.19404022  1
  H+  H24  1  0.64503184  0.78097907  0.16960581  1
  H+  H25  1  0.66421631  0.40620604  0.54546704  1
  H+  H26  1  0.86002812  0.47754742  0.16368724  1
  H+  H27  1  0.29718529  0.89803814  0.16801982  1
  H+  H28  1  0.37100192  0.96892657  0.81368081  1
  H+  H29  1  0.78012451  0.62679702  0.00863226  1
  H+  H30  1  0.63592796  0.52961651  0.31592604  1
  H+  H31  1  0.96147195  0.61880757  0.32750072  1
  H+  H32  1  0.15428691  0.11555471  0.16639292  1
  H+  H33  1  0.46505479  0.37106633  0.49996830  1
  H+  H34  1  0.88448825  0.60867136  0.65612475  1
  H+  H35  1  0.13184283  0.61571009  1.02111086  1
  H+  H36  1  0.59392341  0.67463969  0.06250826  1
  H+  H37  1  0.38101987  0.26893029  0.82497147  1
  H+  H38  1  0.45505627  0.86874424  0.49075386  1
  H+  H39  1  0.11766223  0.61542434  0.82080515  1
  H+  H40  1  0.10640099  0.38421635  0.67683468  1
  H+  H41  1  0.56574729  0.87611269  0.50844080  1
  H+  H42  1  0.77188113  0.13196452  0.50597011  1
  H+  H43  1  0.36163523  0.88719914  0.34005183  1
  H+  H44  1  0.08752108  0.71394456  0.81787202  1
  H+  H45  1  0.37379927  0.74584496  0.18538865  1
  H+  H46  1  0.27208217  0.39129671  0.66998515  1
  H+  H47  1  0.86248725  0.21945881  0.50556765  1
  H+  H48  1  0.12951412  0.76940599  0.51011091  1
  H+  H49  1  0.64993157  0.56286490  0.56815197  1
  H+  H50  1  0.88103191  0.27303125  0.66153311  1
  H+  H51  1  0.97818741  0.82895998  0.97256308  1
  H+  H52  1  0.34583451  0.42656364  0.76239456  1
  H+  H53  1  0.11116370  0.93776311  0.33588396  1
  H+  H54  1  0.13681461  0.02835183  0.99505970  1
  H+  H55  1  0.28853845  0.32377051  0.04563562  1
  H+  H56  1  0.62176194  0.89344059  0.16222353  1
  H+  H57  1  0.26629862  0.11522579  0.34466371  1
  H+  H58  1  0.31162578  0.91261739  0.42870715  1
  H+  H59  1  0.96929998  0.60939292  0.18137617  1
  H+  H60  1  0.29282950  0.63979381  0.66072095  1
  H+  H61  1  0.77764626  0.88763775  0.00099491  1
  H+  H62  1  0.46456742  0.10649305  0.65537125  1
  H+  H63  1  0.39850963  0.12751710  -0.01829028  1
  H+  H64  1  0.40593572  0.85640337  0.66441442  1
  H+  H65  1  0.22552905  0.62080325  0.49747478  1
  H+  H66  1  0.10961090  0.48209492  0.82189817  1
  H+  H67  1  0.87294799  0.14575544  0.15562056  1
  H+  H68  1  0.85986457  0.72144185  0.33442015  1
  H+  H69  1  0.53202470  0.64673771  0.15723812  1
  H+  H70  1  0.23291021  0.87493378  0.99324391  1
  H+  H71  1  0.21817342  0.12388406  0.83094934  1
  H+  H72  1  0.22557911  0.85574220  0.65492810  1
  H+  H73  1  0.67329082  0.83609744  0.59910501  1
  H+  H74  1  0.08375562  0.20491652  0.49842306  1
  H+  H75  1  0.36772599  0.96467335  0.66388443  1
  H+  H76  1  0.60076505  0.57896418  0.85893746  1
  H+  H77  1  0.97537037  0.84525994  0.32903342  1
  H+  H78  1  0.64213807  0.62179778  0.31777266  1
  H+  H79  1  0.62671730  0.78874311  0.83446373  1
  H+  H80  1  0.01548357  0.63063419  0.49335639  1
  H+  H81  1  0.76676125  0.88170448  0.67798334  1
  H+  H82  1  0.63552300  0.10015125  0.66233403  1
  H+  H83  1  0.14282491  0.97754165  0.16985130  1
  H+  H84  1  0.14241553  0.85331945  0.20401825  1
  H+  H85  1  0.34733013  0.12978125  0.81138014  1
  H+  H86  1  0.35832031  0.42740124  0.39080994  1
  H+  H87  1  0.27334002  0.63212103  0.82041590  1
  H+  H88  1  0.37329356  0.39846477  0.48858625  1
  H+  H89  1  0.85947902  0.39557945  0.82949547  1
  H+  H90  1  0.08759551  0.47056022  0.34112093  1
  H+  H91  1  0.11528656  0.15074297  0.83250488  1
  H+  H92  1  0.85833666  0.13647331  0.67328156  1
  H+  H93  1  0.85638423  0.22339084  0.33034239  1
  H+  H94  1  0.61991237  0.64403130  0.15448586  1
  H+  H95  1  0.61470412  0.23299263  0.16979742  1
  H+  H96  1  0.60333162  0.49214095  0.48545059  1
  H+  H97  1  0.49135320  0.62750003  0.83246668  1
  H+  H98  1  0.87109415  0.87796490  0.48463343  1
  H+  H99  1  0.49246996  0.87451667  0.33817986  1
  H+  H100  1  0.91962911  0.58164719  0.59959134  1
  H+  H101  1  0.61528809  0.72659956  0.66700085  1
  H+  H102  1  0.86342867  0.62596265  0.15981730  1
  H+  H103  1  0.60779214  0.22178966  0.66451971  1
  H+  H104  1  0.64273525  0.77774774  0.99107700  1
  H+  H105  1  0.74998097  0.86040376  0.50353559  1
  H+  H106  1  0.56647993  0.39545294  0.92761430  1
  H+  H107  1  0.24428018  0.11921519  0.16970380  1
  H+  H108  1  0.35121638  0.22531530  0.49750400  1
  H+  H109  1  0.40864537  0.53656517  0.32367159  1
  H+  H110  1  0.65481524  0.68610970  0.81162401  1
  H+  H111  1  0.96701497  0.84873961  0.66640613  1
  H+  H112  1  0.13624836  0.09072659  0.32971681  1
  H+  H113  1  0.11797533  0.35636343  0.50951456  1
  H+  H114  1  0.40933499  0.62589582  0.33000543  1
  H+  H115  1  0.26400231  0.13433039  0.50081641  1
  H+  H116  1  0.40394702  0.37513028  0.31465493  1
  H+  H117  1  0.26807405  0.13846856  0.66421255  1
  H+  H118  1  0.41501329  0.51403429  0.98466374  1
  H+  H119  1  0.10489321  0.62869303  0.17945598  1
  H+  H120  1  0.14563718  0.87450630  -0.00273475  1
  H+  H121  1  0.86424883  -0.03359616  0.48808339  1
  H+  H122  1  0.62966113  0.35725771  0.66140626  1
  H+  H123  1  0.45742524  0.10536947  0.84374167  1
  H+  H124  1  0.87028024  0.84911564  0.84323879  1
  H+  H125  1  0.88746738  0.27694386  0.16991615  1
  H+  H126  1  0.38378869  0.28004244  0.65296329  1
  H+  H127  1  0.39707124  0.38007597  0.16706973  1
  H+  H128  1  0.02761645  0.13586271  0.68050463  1
  H+  H129  1  0.11021915  0.88449256  0.82400342  1
  H+  H130  1  0.58672339  0.12634845  0.86511105  1
  H+  H131  1  0.10945333  0.47202631  0.15826907  1
  H+  H132  1  0.61332609  0.39128933  0.33591543  1
  H+  H133  1  0.98490045  0.95548956  0.21778722  1
  H+  H134  1  0.86912906  0.60669063  0.32572159  1
  H+  H135  1  0.35757774  0.22721865  -0.00994997  1
  H+  H136  1  0.63543618  0.60798117  0.50071396  1
  H+  H137  1  0.36176666  0.39125066  0.66511089  1
  H+  H138  1  0.12922244  0.36591319  -0.00942258  1
  H+  H139  1  0.64038692  0.01074465  0.67010996  1
  H+  H140  1  -0.02226414  0.37460059  -0.00814199  1
  H+  H141  1  0.29980156  0.42390841  0.47438320  1
  H+  H142  1  0.63167883  0.73834308  0.33800793  1
  H+  H143  1  0.63374962  0.48257919  0.00565222  1
  H+  H144  1  0.60106886  0.22093133  0.86348047  1
  H+  H145  1  0.36786548  0.99524337  0.16399400  1
  H+  H146  1  -0.07711738  0.15612135  0.31129013  1
  H+  H147  1  0.88386441  0.51373234  0.50434699  1
  H+  H148  1  0.25750104  0.88506669  0.49136222  1
  H+  H149  1  0.27810205  0.39751165  0.16708339  1
  H+  H150  1  0.39455040  0.53859509  0.17345224  1
  H+  H151  1  0.88668341  0.11957541  0.83966739  1
  H+  H152  1  0.68029328  0.40276843  0.51448343  1
  H+  H153  1  0.24100529  0.89605066  0.83996463  1
  H+  H154  1  0.86903096  0.38098064  0.49451252  1
  H+  H155  1  0.63734449  0.86366562  0.65825979  1
  H+  H156  1  0.47462358  0.36943050  0.65372961  1
  H+  H157  1  0.04694832  0.14468596  0.33762498  1
  H+  H158  1  0.35572514  0.97211505  0.33865799  1
  H+  H159  1  0.11414593  0.88303578  0.49567009  1
  H+  H160  1  0.88795477  1.02951805  -0.00666107  1
  H+  H161  1  0.97315010  0.02738370  0.62473701  1
  H+  H162  1  0.52339553  0.12419368  1.02243723  1
  H+  H163  1  0.37705528  1.02219733  0.50238706  1
  H+  H164  1  0.36336052  0.86018201  0.49465910  1
  H+  H165  1  0.62871595  0.59506354  0.64139670  1
  H+  H166  1  0.57789853  0.97062262  0.82668402  1
  H+  H167  1  0.65694659  0.93562586  0.72460926  1
  H+  H168  1  0.13734783  0.27615426  0.33020403  1
  H+  H169  1  0.63213840  0.28161361  0.33146810  1
  H+  H170  1  0.37860194  0.35571293  0.97808881  1
  H+  H171  1  0.88796113  0.42145508  1.00130016  1
  H+  H172  1  0.88572927  0.76706475  0.49413140  1
  H+  H173  1  0.39199609  0.11972988  0.19846119  1
  H+  H174  1  0.62632230  0.73253685  0.49335509  1
  H+  H175  1  0.60687443  0.47901841  0.65050503  1
  H+  H176  1  0.88779101  0.11942424  0.99496925  1
  H+  H177  1  0.77012217  0.62778171  0.15330454  1
  H+  H178  1  0.77166917  0.62456516  0.83397763  1
  H+  H179  1  0.13402938  0.61806335  0.50073988  1
  H+  H180  1  0.38987243  0.87685096  1.00984313  1
  H+  H181  1  0.66129241  0.83992501  0.93368773  1
  H+  H182  1  0.61949102  0.50294478  0.86927933  1
  H+  H183  1  0.11735781  0.48227573  1.01130187  1
  H+  H184  1  0.52687502  0.63727628  0.67125230  1
  H+  H185  1  0.69424099  0.02086929  0.87213667  1
  H+  H186  1  0.54711618  0.63095336  -0.00133263  1
  H+  H187  1  0.54228227  0.65000171  0.33778719  1
  H+  H188  1  0.76630446  0.62388642  0.49067264  1
  H+  H189  1  0.64073735  0.52658253  0.16088098  1
  H+  H190  1  0.95791204  0.35897455  0.32731614  1
  H+  H191  1  0.05881184  0.25781547  0.29381852  1
  H+  H192  1  0.18773190  0.32612481  0.51295758  1
  H+  H193  1  0.10291431  0.70841815  0.32878606  1
  H+  H194  1  0.49566492  0.85460708  0.67779625  1
  H+  H195  1  0.62893484  0.10054677  0.51334953  1
  H+  H196  1  0.33116402  0.42565464  0.10610094  1
  H+  H197  1  0.65225355  0.87177456  0.32579736  1
  H+  H198  1  0.60789022  0.97856840  0.49991932  1
  H+  H199  1  0.38122389  0.63572194  0.66510928  1
  H+  H200  1  0.62116168  0.98267500  0.16004807  1
  H+  H201  1  0.42316986  0.58706558  0.59669465  1
  H+  H202  1  0.11504749  0.88921196  0.66816175  1
  H+  H203  1  0.87378354  0.10245084  0.50947118  1
  H+  H204  1  0.30232035  0.64781292  0.34155825  1
  H+  H205  1  0.97481111  0.36849206  0.83956258  1
  H+  H206  1  0.40461359  0.78584698  0.33753327  1
  H+  H207  1  0.22540343  0.11467590  0.98631573  1
  H+  H208  1  0.34241520  0.90271637  0.72085694  1
  H+  H209  1  0.90491766  0.81387703  0.92792715  1
  H+  H210  1  0.40531804  0.54267471  0.50186649  1
  H+  H211  1  0.50317531  0.38158524  0.31790438  1
  H+  H212  1  -0.00433418  0.62024472  0.82382922  1
  H+  H213  1  0.68522329  0.30156661  0.58540190  1
  H+  H214  1  0.84234670  0.70495847  0.66241443  1
  H+  H215  1  0.63785617  0.35640134  0.85950758  1
  H+  H216  1  0.48585381  0.86934828  0.18253591  1
  H+  H217  1  0.02498105  0.14121928  0.00248500  1
  H+  H218  1  0.11535971  0.48125667  0.49192560  1
  H+  H219  1  0.11466200  0.14132699  0.99835606  1
  H+  H220  1  0.60684619  0.14606748  0.34353686  1
  H+  H221  1  0.76767318  0.63558422  0.33166991  1
  H+  H222  1  0.85001745  0.38330523  0.33792297  1
  H+  H223  1  0.78850782  0.88514256  0.33311004  1
  H+  H224  1  0.47823299  0.86591148  0.01102099  1
  H+  H225  1  0.39456447  0.74738812  0.67013141  1
  H+  H226  1  0.25213258  0.86093551  0.27643128  1
  H+  H227  1  0.88591893  0.27998043  0.84045973  1
  H+  H228  1  0.86396277  0.62981251  0.83395210  1
  H+  H229  1  0.66947808  0.87144603  0.49859653  1
  H+  H230  1  0.88572888  0.36572888  0.16939298  1
  H+  H231  1  0.11878749  0.26830211  0.83887121  1
  H+  H232  1  1.01861062  0.38514135  0.15935377  1
  H+  H233  1  0.38004145  0.10846653  0.34162815  1
  H+  H234  1  0.85529375  -0.02179696  0.83277584  1
  H+  H235  1  0.84950042  0.38258232  0.67779043  1
  H+  H236  1  0.12401391  0.10284650  0.51003280  1
  H+  H237  1  0.87349803  0.70954155  1.00677036  1
  H+  H238  1  0.37599325  -0.01323439  1.00327495  1
  H+  H239  1  0.01277921  0.60743004  0.02764016  1
  H+  H240  1  0.43465495  0.88326098  0.82101145  1
  H+  H241  1  0.72818438  0.36220618  0.84050194  1
  H+  H242  1  0.78812356  0.12406647  0.32713867  1
  H+  H243  1  0.64521248  0.12230916  0.17168002  1
  H+  H244  1  0.55259593  0.03486565  0.28527314  1
  H+  H245  1  0.09136335  0.38183452  0.33767651  1
  H+  H246  1  0.89718618  0.03418869  0.16516005  1
  H+  H247  1  0.88132607  0.60208313  0.50176875  1
  H+  H248  1  0.87656379  0.56944647  1.00683463  1
  H+  H249  1  0.11258021  -0.02851194  0.49212260  1
  H+  H250  1  0.02072452  0.14553338  0.83270179  1
  H+  H251  1  0.76611095  0.12883022  0.67288807  1
  H+  H252  1  0.38405484  0.24775737  0.15250673  1
  H+  H253  1  0.02811543  0.90624610  0.03810485  1
  H+  H254  1  0.86351376  0.23621808  0.00474256  1
  H+  H255  1  0.58729854  0.39383591  0.47826102  1
  H+  H256  1  0.62069261  0.20790352  0.50786157  1
  H+  H257  1  0.51992750  0.13209432  0.49807388  1
  H+  H258  1  0.58979951  0.41900693  0.08883620  1
  H+  H259  1  0.07725171  0.90254462  0.72964828  1
  H+  H260  1  0.13479591  0.11068278  0.66816546  1
  H+  H261  1  0.89167736  1.00007486  0.66421511  1
  H+  H262  1  0.86575435  0.88612195  0.00082662  1
  H+  H263  1  0.42593970  0.66820093  0.97550029  1
  H+  H264  1  -0.01034022  0.11967291  0.15924621  1
  H+  H265  1  0.43781603  0.70666776  -0.04398528  1
  H+  H266  1  0.13662874  0.36167031  0.16925252  1
  H+  H267  1  0.07023301  0.76955593  0.35224448  1
  H+  H268  1  0.38062411  0.11260555  0.50685898  1
  H+  H269  1  0.61436595  0.39223725  0.15312970  1
  H+  H270  1  0.12277221  0.36889907  0.83684406  1
  H+  H271  1  0.02201105  0.64463810  0.66389725  1
  H+  H272  1  0.15971375  0.61816335  0.34695071  1
  H+  H273  1  0.52813727  0.14222893  0.17930172  1
  H+  H274  1  0.13177957  0.77003572  0.65834949  1
  H+  H275  1  0.73486597  0.12135346  0.17182356  1
  H+  H276  1  0.39693154  0.61495450  0.83932161  1
  H+  H277  1  0.87526840  0.90336294  0.16010943  1
  H+  H278  1  0.63893012  0.39524403  0.00415072  1
  H+  H279  1  0.64112015  0.02296003  1.00279661  1
  H+  H280  1  0.84397897  0.91027946  0.39315191  1
  H+  H281  1  0.72478477  0.36827502  0.17314761  1
  H+  H282  1  0.60672637  0.86545431  0.84023089  1
  H+  H283  1  0.96917393  0.36229642  0.66382410  1
  H+  H284  1  0.35706355  0.13840315  0.66467378  1
  H+  H285  1  0.25462284  0.37347048  0.00793850  1
  H+  H286  1  0.61119952  0.88439502  0.00976280  1
  H+  H287  1  0.48850281  0.38094322  0.16014025  1
  H+  H288  1  0.67262181  0.07615480  0.91487016  1
  H+  H289  1  0.19154508  0.61599965  0.96683388  1
  H+  H290  1  0.59870367  0.92721676  0.40034368  1
  H+  H291  1  0.64441339  0.07833028  0.25713090  1
  H+  H292  1  0.20080037  0.52963150  0.22667086  1
  H+  H293  1  0.37015554  0.05278565  0.87863668  1
  H+  H294  1  0.77622673  0.14465561  0.00776924  1
  H+  H295  1  0.91805601  0.33400029  0.56921987  1
  H+  H296  1  0.08690486  0.15250361  0.40329336  1
  H+  H297  1  0.75436159  0.39043421  -0.00886868  1
  H+  H298  1  0.15776498  0.32767649  0.22977477  1
  H+  H299  1  0.34030851  0.66111810  0.76768307  1
  H+  H300  1  0.59683400  0.68204563  0.75610441  1
  H+  H301  1  0.82912128  0.16928520  0.76824501  1
  H+  H302  1  0.43717582  0.35144804  0.25041361  1
  H+  H303  1  0.44897496  0.56402957  0.92241598  1
  H+  H304  1  0.82091880  0.91347696  0.74109883  1
  H+  H305  1  0.19385692  0.88822230  0.90272648  1
  H+  H306  1  0.15182095  0.58990626  0.87865061  1
  H+  H307  1  0.13333856  0.27599087  0.67033694  1
  H+  H308  1  0.76089272  0.89641504  0.83331905  1
  H+  H309  1  0.39854239  0.32025690  0.91706624  1
  H+  H310  1  0.13196103  0.01870485  0.66554964  1
  H+  H311  1  0.42103977  0.08614316  0.25552198  1
  H+  H312  1  0.40297576  0.07528657  0.59873020  1
  H+  H313  1  0.83675574  0.65355778  0.08991497  1
  H+  H314  1  0.40997076  0.34386064  0.56289793  1
  H+  H315  1  0.15652626  0.07625619  0.56977291  1
  H+  H316  1  0.90599015  0.33403032  0.26453469  1
  H+  H317  1  0.47427907  0.12798669  0.94082868  1
  H+  H318  1  0.91519048  0.08971582  0.90008284  1
  H+  H319  1  0.21945805  0.52454792  0.61262141  1
  H+  H320  1  0.05023777  0.89846353  0.17478933  1
  H+  H321  1  0.84008492  0.92043629  0.09731353  1
  H+  H322  1  0.58510665  0.15817779  0.61186621  1
  H+  H323  1  0.34116413  0.93674243  0.06703875  1
  H+  H324  1  0.58569634  0.91573523  0.07135114  1
  H+  H325  1  0.33521995  0.69486378  0.09827550  1
  H+  H326  1  0.08324280  0.17462872  0.74133710  1
  H+  H327  1  0.16208194  0.09172820  0.89181922  1
  H+  H328  1  0.15334085  0.33680997  0.90049196  1
  H+  H329  1  0.82703569  0.40485346  0.43845450  1
  H+  H330  1  0.82421037  0.65409405  0.43091099  1
  H+  H331  1  0.07991708  0.41371966  0.06439900  1
  H+  H332  1  0.89004271  0.85569520  0.32739533  1
  H+  H333  1  0.51402435  0.37122660  0.86524997  1
  H+  H334  1  0.10160060  0.92281802  0.08360383  1
  H+  H335  1  0.56170191  0.91732762  0.76532962  1
  H+  H336  1  0.14795010  0.58772876  0.27805832  1
  H+  H337  1  0.66612611  0.34332517  0.23336760  1
  H+  H338  1  0.67624972  0.83974196  0.26473312  1
  H+  H339  1  0.08063567  0.89467973  0.40020249  1
  H+  H340  1  0.90355351  0.58018233  0.23760939  1
  H+  H341  1  0.58135907  0.15355249  0.08211441  1
  H+  H342  1  0.07868501  0.41691726  0.76588422  1
  H+  H343  1  0.43336675  0.84725965  0.24537693  1
  H+  H344  1  0.07868328  0.41636486  0.43510289  1
  H+  H345  1  0.32240880  0.15459403  0.40461708  1
  H+  H346  1  0.83865375  0.17516073  0.09865378  1
  H+  H347  1  0.67081234  0.58616814  0.22138439  1
  H+  H348  1  0.68868384  0.34052255  0.93768955  1
  H+  H349  1  0.43369723  0.59810243  0.23224590  1
  H+  H350  1  0.07353802  0.67758273  0.43542260  1
  H+  H351  1  0.38323309  0.48440246  0.82136775  1
  H+  H352  1  0.09673190  0.17144950  0.09321938  1
  H+  H353  1  0.95665785  0.13071603  0.25117655  1
  H+  H354  1  0.57396489  0.42473760  0.39160520  1
  H+  H355  1  0.58054532  0.42725419  0.71674182  1
  H+  H356  1  0.47404888  0.11604239  0.34401058  1
  H+  H357  1  0.33194114  0.17152549  0.05152969  1
  H+  H358  1  0.37699459  0.77449368  0.02616238  1
  H+  H359  1  0.12779887  0.27450066  0.98708541  1
  H+  H360  1  0.91642794  0.34607592  0.93345815  1
  H+  H361  1  0.12560601  0.22817608  0.15396432  1
  H+  H362  1  0.67817313  0.58988050  0.94157737  1
  H+  H363  1  0.59319436  0.67579247  0.43269775  1
  H+  H364  1  0.18292004  0.58070818  0.58852692  1
  H+  H365  1  0.36847390  0.64868202  0.49542044  1
  H+  H366  1  0.63581011  0.10899390  0.00614678  1
  H+  H367  1  0.16900604  0.06872389  0.26881615  1
  H+  H368  1  0.40913414  0.18403827  0.12174128  1
  H+  H369  1  0.93786381  0.86123172  0.24216950  1
  H+  H370  1  0.15113751  0.32843889  0.60858962  1
  H+  H371  1  1.00996755  0.85608511  0.82020300  1
  H+  H372  1  0.91842675  0.57719131  0.89055574  1
  H+  H373  1  0.75875291  0.61379940  0.64962959  1
  H+  H374  1  0.07228027  0.65436192  0.08534686  1
  H+  H375  1  0.82237656  0.41361717  0.73812388  1
  H+  H376  1  0.39000094  0.36459661  0.82699842  1
  H+  H377  1  0.32317519  0.16719903  0.75387041  1
  H+  H378  1  0.16286133  0.83037839  0.56981859  1
  H+  H379  1  0.58651872  0.17351332  0.40816137  1
  H+  H380  1  0.07813171  0.67008980  0.72361637  1
  H+  H381  1  0.34954274  0.67346808  0.40594169  1
  H+  H382  1  0.65964987  0.06934384  0.57319509  1
  H+  H383  1  0.90630644  0.06424668  0.56383273  1
  O2-  O384  1  0.09838771  0.16812608  0.13861288  1
  O2-  O385  1  0.06408182  0.14720996  0.48155144  1
  O2-  O386  1  0.08183969  0.18182977  0.81881324  1
  O2-  O387  1  0.07936990  0.41244493  0.14319119  1
  O2-  O388  1  0.08589161  0.41906638  0.48029827  1
  O2-  O389  1  0.08126969  0.41894264  0.81164526  1
  O2-  O390  1  0.07565079  0.65907846  0.16580928  1
  O2-  O391  1  0.07730686  0.66516236  0.47870182  1
  O2-  O392  1  0.06279121  0.65400981  0.80595522  1
  O2-  O393  1  0.10918114  0.91479629  0.16035339  1
  O2-  O394  1  0.08557275  0.91225175  0.47534459  1
  O2-  O395  1  0.05916321  0.86181535  0.79684948  1
  O2-  O396  1  0.35994288  0.18690728  0.13772270  1
  O2-  O397  1  0.32460842  0.16425724  0.48538284  1
  O2-  O398  1  0.32210944  0.16577585  0.79951466  1
  O2-  O399  1  0.33837927  0.43017767  0.15102404  1
  O2-  O400  1  0.35859739  0.43957458  0.46468833  1
  O2-  O401  1  0.35143439  0.42407081  0.80692897  1
  O2-  O402  1  0.33801084  0.68235786  0.17119438  1
  O2-  O403  1  0.33420823  0.67186396  0.47597487  1
  O2-  O404  1  0.33459822  0.65341917  0.81192010  1
  O2-  O405  1  0.32808377  0.94545073  0.13902295  1
  O2-  O406  1  0.31725822  0.91743903  0.47365880  1
  O2-  O407  1  0.34226258  0.90741490  0.79929257  1
  O2-  O408  1  0.58602193  0.17037503  0.15984622  1
  O2-  O409  1  0.58008113  0.15436183  0.48372374  1
  O2-  O410  1  0.55718979  0.15874825  0.87140756  1
  O2-  O411  1  0.58616072  0.42297389  0.13497913  1
  O2-  O412  1  0.56135633  0.42694803  0.46349245  1
  O2-  O413  1  0.57369385  0.40126349  0.88294168  1
  O2-  O414  1  0.59193895  0.67694668  0.14082197  1
  O2-  O415  1  0.58783492  0.67300208  0.47796094  1
  O2-  O416  1  0.60420772  0.69070721  0.80230547  1
  O2-  O417  1  0.58905878  0.92131495  0.14693811  1
  O2-  O418  1  0.57562765  0.91975319  0.47834469  1
  O2-  O419  1  0.54411287  0.91212365  0.81007097  1
  O2-  O420  1  0.83931619  0.17428688  0.14421257  1
  O2-  O421  1  0.83271481  0.15785522  0.49394400  1
  O2-  O422  1  0.83446370  0.17314558  0.81353801  1
  O2-  O423  1  0.83138038  0.41868116  0.14551382  1
  O2-  O424  1  0.83231308  0.40640794  0.48340459  1
  O2-  O425  1  0.82615344  0.42225361  0.81521011  1
  O2-  O426  1  0.83263498  0.65450336  0.13849276  1
  O2-  O427  1  0.82720139  0.65399727  0.47600672  1
  O2-  O428  1  0.83255494  0.66327993  0.82638823  1
  O2-  O429  1  0.83923583  0.92557082  0.14244762  1
  O2-  O430  1  0.83587120  0.90674789  0.47170486  1
  O2-  O431  1  0.82043437  0.91731731  0.81919820  1
  O2-  O432  1  0.18447950  0.08647845  0.18372521  1
  O2-  O433  1  0.15884406  0.07704646  0.52430483  1
  O2-  O434  1  0.15946625  0.10180327  0.84789366  1
  O2-  O435  1  0.17054942  0.33571157  0.18520972  1
  O2-  O436  1  0.13338334  0.31524973  0.53007747  1
  O2-  O437  1  0.14918578  0.33356064  0.85407048  1
  O2-  O438  1  0.18717396  0.57131146  0.20917807  1
  O2-  O439  1  0.16599542  0.58813981  0.51417644  1
  O2-  O440  1  0.15377223  0.58699264  0.83465233  1
  O2-  O441  1  0.14293262  0.80721442  0.22964692  1
  O2-  O442  1  0.16158628  0.83054565  0.52336915  1
  O2-  O443  1  0.20598845  0.91554556  0.86148794  1
  O2-  O444  1  0.42477921  0.09152235  0.20915609  1
  O2-  O445  1  0.41053163  0.08110523  0.52022546  1
  O2-  O446  1  0.39386413  0.06759322  0.83739917  1
  O2-  O447  1  0.42883984  0.34966936  0.17916182  1
  O2-  O448  1  0.40500832  0.34206850  0.51703589  1
  O2-  O449  1  0.41278825  0.32718482  0.84398131  1
  O2-  O450  1  0.42891813  0.59952198  0.18702089  1
  O2-  O451  1  0.42893492  0.60000615  0.52095195  1
  O2-  O452  1  0.43433551  0.59010538  0.85045027  1
  O2-  O453  1  0.42738568  0.84007613  0.20051685  1
  O2-  O454  1  0.39662463  0.83105494  0.50612803  1
  O2-  O455  1  0.37693450  0.86612612  0.83855678  1
  O2-  O456  1  0.67350047  0.08915925  0.18536295  1
  O2-  O457  1  0.65831544  0.06877137  0.52748680  1
  O2-  O458  1  0.67691060  0.06430735  0.86992612  1
  O2-  O459  1  0.66427153  0.34093929  0.18797692  1
  O2-  O460  1  0.69713868  0.27688528  0.54854459  1
  O2-  O461  1  0.66994901  0.32480617  0.86018840  1
  O2-  O462  1  0.67439779  0.58766035  0.17569443  1
  O2-  O463  1  0.65559012  0.56776284  0.51201745  1
  O2-  O464  1  0.64757951  0.56791997  0.86740021  1
  O2-  O465  1  0.67404324  0.84076563  0.18619128  1
  O2-  O466  1  0.68780022  0.83594060  0.52019508  1
  O2-  O467  1  0.64676892  0.84565525  0.85413886  1
  O2-  O468  1  0.93070552  0.09622341  0.17637450  1
  O2-  O469  1  0.90309519  0.06713145  0.51914298  1
  O2-  O470  1  0.91591493  0.08808167  0.85459481  1
  O2-  O471  1  0.91774474  0.33771474  0.18546272  1
  O2-  O472  1  0.91892241  0.33042913  0.52370065  1
  O2-  O473  1  0.91586226  0.33948092  0.85699681  1
  O2-  O474  1  0.90651352  0.58092813  0.19137539  1
  O2-  O475  1  0.91617821  0.57594800  0.51546438  1
  O2-  O476  1  0.91387376  0.57896481  0.84658251  1
  O2-  O477  1  0.95747536  0.89656621  0.20275204  1
  O2-  O478  1  0.91473691  0.82940908  0.50304447  1
  O2-  O479  1  0.90085704  0.82034320  0.85882268  1
  O2-  O480  1  0.16141680  0.05643235  0.31283122  1
  O2-  O481  1  0.16101707  0.07970347  0.64851296  1
  O2-  O482  1  0.16291242  0.08556368  0.97545516  1
  O2-  O483  1  0.11810389  0.30795856  0.30369736  1
  O2-  O484  1  0.16067258  0.33603939  0.65326902  1
  O2-  O485  1  0.15881342  0.33589260  0.97237547  1
  O2-  O486  1  0.11796221  0.57868756  0.31777099  1
  O2-  O487  1  0.20116508  0.56413506  0.62730591  1
  O2-  O488  1  0.17331157  0.59369024  1.00771080  1
  O2-  O489  1  0.23398896  0.83236973  0.23569853  1
  O2-  O490  1  0.16566518  0.83274038  0.64182584  1
  O2-  O491  1  0.17556681  0.85047721  0.97434985  1
  O2-  O492  1  0.41509076  0.08072971  0.32708724  1
  O2-  O493  1  0.40243586  0.07425310  0.64432567  1
  O2-  O494  1  0.42842751  0.09511888  0.97067398  1
  O2-  O495  1  0.43826751  0.34978341  0.29710884  1
  O2-  O496  1  0.41273590  0.34100798  0.63871953  1
  O2-  O497  1  0.39977488  0.31854761  0.96287050  1
  O2-  O498  1  0.43882392  0.59737883  0.31034029  1
  O2-  O499  1  0.41989845  0.58486268  0.64235539  1
  O2-  O500  1  0.46702847  0.54883356  0.96128177  1
  O2-  O501  1  0.43123332  0.84670748  0.32455862  1
  O2-  O502  1  0.43705379  0.82261146  0.65969477  1
  O2-  O503  1  0.41439459  0.83655389  1.00176518  1
  O2-  O504  1  0.61287340  0.06442081  0.29743853  1
  O2-  O505  1  0.66867035  0.07200043  0.64985827  1
  O2-  O506  1  0.67023265  0.08336179  0.98759398  1
  O2-  O507  1  0.66139633  0.34096281  0.31381601  1
  O2-  O508  1  0.65844995  0.32272506  0.65645589  1
  O2-  O509  1  0.69312867  0.35223231  0.98221332  1
  O2-  O510  1  0.66720933  0.58832714  0.29840998  1
  O2-  O511  1  0.64757578  0.55771550  0.62267644  1
  O2-  O512  1  0.68693157  0.59323177  0.98670308  1
  O2-  O513  1  0.67871526  0.83839653  0.31010863  1
  O2-  O514  1  0.66601816  0.83064835  0.64408101  1
  O2-  O515  1  0.67000348  0.83964363  0.97840814  1
  O2-  O516  1  0.97519400  0.15943513  0.29142042  1
  O2-  O517  1  0.93896256  0.05129809  0.64088917  1
  O2-  O518  1  0.91860010  0.09006430  0.97877800  1
  O2-  O519  1  0.89896161  0.33026957  0.30970991  1
  O2-  O520  1  0.91064152  0.33278510  0.64588254  1
  O2-  O521  1  0.91662169  0.34951209  0.97916980  1
  O2-  O522  1  0.90327609  0.57862790  0.31157056  1
  O2-  O523  1  0.92605316  0.58942315  0.64389073  1
  O2-  O524  1  0.91054463  0.54149384  0.99514180  1
  O2-  O525  1  0.91758533  0.82229689  0.30931767  1
  O2-  O526  1  0.90541189  0.81792396  0.65585931  1
  O2-  O527  1  0.91763252  0.81265596  0.97400122  1
  O2-  O528  1  0.08689164  0.17396163  0.01471289  1
  O2-  O529  1  0.10137987  0.15952582  0.35911108  1
  O2-  O530  1  0.08670810  0.17443626  0.69588783  1
  O2-  O531  1  0.08351314  0.41903114  0.01910169  1
  O2-  O532  1  0.06304966  0.41119407  0.35735409  1
  O2-  O533  1  0.07612473  0.41572356  0.69053434  1
  O2-  O534  1  0.07255623  0.64659435  0.04085127  1
  O2-  O535  1  0.06143293  0.71070865  0.35608269  1
  O2-  O536  1  0.08418163  0.67709656  0.67903434  1
  O2-  O537  1  0.08974728  0.92777065  0.03944200  1
  O2-  O538  1  0.07637216  0.88096315  0.35555290  1
  O2-  O539  1  0.08490587  0.91862568  0.68488682  1
  O2-  O540  1  0.33102782  0.16589263  0.00703830  1
  O2-  O541  1  0.32611947  0.15059900  0.35981680  1
  O2-  O542  1  0.32976681  0.17273156  0.67711389  1
  O2-  O543  1  0.30643513  0.38169785  0.03127899  1
  O2-  O544  1  0.35742751  0.42552202  0.34471488  1
  O2-  O545  1  0.33424159  0.42467765  0.68028369  1
  O2-  O546  1  0.33319559  0.69758272  0.05258944  1
  O2-  O547  1  0.35928849  0.67667241  0.35966381  1
  O2-  O548  1  0.35151068  0.66974604  0.67998168  1
  O2-  O549  1  0.34571716  0.92894987  0.02187775  1
  O2-  O550  1  0.32034433  0.90849045  0.34476531  1
  O2-  O551  1  0.34626595  0.90346804  0.67562258  1
  O2-  O552  1  0.58185583  0.14495511  0.03757626  1
  O2-  O553  1  0.58333311  0.17967026  0.36282828  1
  O2-  O554  1  0.57747946  0.15707897  0.65585447  1
  O2-  O555  1  0.60053257  0.42015166  0.01470858  1
  O2-  O556  1  0.57987921  0.42214012  0.34526857  1
  O2-  O557  1  0.57438682  0.41586908  0.67324885  1
  O2-  O558  1  0.60272000  0.67556247  0.01757999  1
  O2-  O559  1  0.60228906  0.67734835  0.35343643  1
  O2-  O560  1  0.58744529  0.66756396  0.68522196  1
  O2-  O561  1  0.58092530  0.91437597  0.02561254  1
  O2-  O562  1  0.59921205  0.92348361  0.35532171  1
  O2-  O563  1  0.60734938  0.92469575  0.69989525  1
  O2-  O564  1  0.83827783  0.17629406  0.02009890  1
  O2-  O565  1  0.84546405  0.16492350  0.34121727  1
  O2-  O566  1  0.82740433  0.16396198  0.68909849  1
  O2-  O567  1  0.86088959  0.45424926  0.02016692  1
  O2-  O568  1  0.82137619  0.41353293  0.35638513  1
  O2-  O569  1  0.81203738  0.40343251  0.69359390  1
  O2-  O570  1  0.84127046  0.65072310  0.02519582  1
  O2-  O571  1  0.82613767  0.66049304  0.34979179  1
  O2-  O572  1  0.81490676  0.64240511  0.67050558  1
  O2-  O573  1  0.83824721  0.91791366  0.01647196  1
  O2-  O574  1  0.84819770  0.90919108  0.34798666  1
  O2-  O575  1  0.82562804  0.91354093  0.69586954  1
