# generated using pymatgen
data_H2O
_symmetry_space_group_name_H-M   'P 1'
_cell_length_a   17.99529112
_cell_length_b   17.99511555
_cell_length_c   22.00777551
_cell_angle_alpha   89.96550727
_cell_angle_beta   90.00526265
_cell_angle_gamma   119.98262959
_symmetry_Int_Tables_number   1
_chemical_formula_structural   H2O
_chemical_formula_sum   'H384 O192'
_cell_volume   6172.99882909
_cell_formula_units_Z   192
loop_
 _symmetry_equiv_pos_site_id
 _symmetry_equiv_pos_as_xyz
  1  'x, y, z'
loop_
 _atom_type_symbol
 _atom_type_oxidation_number
  H+  1.0
  O2-  -2.0
loop_
 _atom_site_type_symbol
 _atom_site_label
 _atom_site_symmetry_multiplicity
 _atom_site_fract_x
 _atom_site_fract_y
 _atom_site_fract_z
 _atom_site_occupancy
  H+  H0  1  0.12348930  0.38749837  0.16125604  1
  H+  H1  1  0.36999407  0.13341561  0.49783996  1
  H+  H2  1  0.35177288  0.37739141  0.82055338  1
  H+  H3  1  0.13041846  0.95710448  0.16007326  1
  H+  H4  1  0.52306211  0.81762384  0.69997943  1
  H+  H5  1  0.64903746  0.52867858  0.17053748  1
  H+  H6  1  0.46767126  0.35915303  0.83509341  1
  H+  H7  1  0.63851910  0.86873255  0.65999066  1
  H+  H8  1  0.59102501  0.21339360  -0.00978088  1
  H+  H9  1  0.23036934  0.86281236  0.33392622  1
  H+  H10  1  0.47259346  0.10569662  0.83731062  1
  H+  H11  1  0.63762308  0.51633197  0.33168724  1
  H+  H12  1  0.72247540  0.36154921  0.15949977  1
  H+  H13  1  0.37013906  0.89223022  0.15129872  1
  H+  H14  1  0.15779499  0.32101992  0.27303369  1
  H+  H15  1  0.87786485  0.12728262  0.18235252  1
  H+  H16  1  0.86873365  0.84203279  1.02414635  1
  H+  H17  1  0.61458078  -0.03185640  0.82985615  1
  H+  H18  1  0.62713763  0.09194276  0.84319855  1
  H+  H19  1  0.85565082  0.42738786  0.11438416  1
  H+  H20  1  0.38006373  0.26665085  0.83133353  1
  H+  H21  1  0.02392799  0.64382324  -0.00030487  1
  H+  H22  1  0.36641343  0.63226375  0.16444832  1
  H+  H23  1  0.85905045  0.48094288  0.35171188  1
  H+  H24  1  0.10264283  0.13189321  0.01196640  1
  H+  H25  1  0.64436996  0.62878309  0.64942150  1
  H+  H26  1  0.62919223  0.27606213  0.15273937  1
  H+  H27  1  0.61654457  0.19810413  0.82048304  1
  H+  H28  1  0.13787553  0.02361884  0.50700751  1
  H+  H29  1  0.15097431  0.60925783  0.16473634  1
  H+  H30  1  0.85004777  0.87958352  0.67350094  1
  H+  H31  1  0.36396882  0.88750628  0.48932658  1
  H+  H32  1  0.10699471  0.22278943  0.81865831  1
  H+  H33  1  0.78212277  0.67656120  0.48989385  1
  H+  H34  1  0.77416775  0.13863656  1.01118571  1
  H+  H35  1  0.51394383  0.62188442  0.16881068  1
  H+  H36  1  0.13797089  0.35607880  0.64562060  1
  H+  H37  1  0.60496313  0.50205063  0.68071174  1
  H+  H38  1  0.79585414  0.79687493  0.22720430  1
  H+  H39  1  0.38736244  0.13007389  0.33941534  1
  H+  H40  1  0.86504496  0.37777416  0.67306177  1
  H+  H41  1  0.13183631  0.26505216  0.49774751  1
  H+  H42  1  0.47820215  0.85248291  0.16021287  1
  H+  H43  1  0.12701739  0.86400627  0.83759049  1
  H+  H44  1  0.26761460  0.38224498  0.00595298  1
  H+  H45  1  0.49646760  0.37189563  0.98165510  1
  H+  H46  1  0.24112077  0.10419224  0.18269918  1
  H+  H47  1  0.27736149  0.12979326  0.49839862  1
  H+  H48  1  0.14568969  0.53811595  0.85242676  1
  H+  H49  1  0.12877480  0.52088560  0.51025555  1
  H+  H50  1  0.12126278  0.90079545  0.34957589  1
  H+  H51  1  1.02394177  0.88838238  0.50752055  1
  H+  H52  1  0.77440524  0.63587397  0.34931787  1
  H+  H53  1  0.76853438  0.14615680  0.15960868  1
  H+  H54  1  0.02977839  0.60516331  0.21089109  1
  H+  H55  1  0.57905584  0.65924778  0.56719251  1
  H+  H56  1  0.51412290  0.41290960  0.67922264  1
  H+  H57  1  0.48091358  0.86819326  0.84925091  1
  H+  H58  1  0.88205225  0.25680869  0.65488581  1
  H+  H59  1  0.13714238  0.28408655  0.16930127  1
  H+  H60  1  0.61804815  0.51480338  1.00633972  1
  H+  H61  1  0.23875432  0.61727034  0.00249882  1
  H+  H62  1  0.38561569  0.51466204  0.84277235  1
  H+  H63  1  0.88142220  0.85449300  0.34001180  1
  H+  H64  1  1.01939610  0.63640528  0.33971079  1
  H+  H65  1  0.13290411  0.51977952  0.66052865  1
  H+  H66  1  0.73458806  0.63307938  0.15432541  1
  H+  H67  1  0.36439816  0.98736327  0.33811211  1
  H+  H68  1  0.97864594  0.61050348  0.66790118  1
  H+  H69  1  0.27637465  0.88810892  0.82668350  1
  H+  H70  1  0.11503725  0.22728932  0.34219397  1
  H+  H71  1  0.37430399  0.00991312  0.98865529  1
  H+  H72  1  0.68996727  0.34563666  0.95894929  1
  H+  H73  1  0.79879170  0.37830498  0.82610489  1
  H+  H74  1  0.53736150  0.65670535  0.33461767  1
  H+  H75  1  0.89555961  0.61561517  0.82221238  1
  H+  H76  1  0.15510899  0.73092857  0.15395600  1
  H+  H77  1  0.45775037  0.86524059  0.65875698  1
  H+  H78  1  0.21491126  0.86778109  0.69470721  1
  H+  H79  1  0.72943216  0.87060136  0.66196136  1
  H+  H80  1  0.26074281  0.63198322  0.49388821  1
  H+  H81  1  0.53017134  0.14170722  0.34123198  1
  H+  H82  1  0.96783069  0.85409181  0.84713438  1
  H+  H83  1  0.39024398  0.28055871  0.33367246  1
  H+  H84  1  0.64157148  0.86835308  0.33211428  1
  H+  H85  1  0.33568685  0.41805032  0.11009965  1
  H+  H86  1  0.40566885  0.41188509  0.34675679  1
  H+  H87  1  0.83334849  0.21890862  0.80718152  1
  H+  H88  1  0.35731206  0.13112526  0.82571186  1
  H+  H89  1  0.61770431  0.34455090  0.50157236  1
  H+  H90  1  0.37260936  0.13918397  0.16242107  1
  H+  H91  1  0.52480071  0.12763075  0.66947851  1
  H+  H92  1  0.12052545  0.48231229  0.16169983  1
  H+  H93  1  0.11061631  0.88731673  0.48902894  1
  H+  H94  1  0.88482181  0.62002739  0.33638640  1
  H+  H95  1  0.36729970  0.39128050  0.16944005  1
  H+  H96  1  0.83903206  0.74368174  0.15974694  1
  H+  H97  1  0.12672900  0.34866245  0.33208029  1
  H+  H98  1  0.34896836  0.63102071  0.49090054  1
  H+  H99  1  0.63931044  0.02144740  0.62260187  1
  H+  H100  1  0.35236129  0.21368422  0.00119727  1
  H+  H101  1  0.87221001  0.96833955  0.50565958  1
  H+  H102  1  0.72553145  0.35672777  0.70208741  1
  H+  H103  1  0.82659895  0.42903038  0.41312555  1
  H+  H104  1  0.88258882  0.11007784  -0.00651142  1
  H+  H105  1  0.67615848  0.31824336  0.78777077  1
  H+  H106  1  0.14144571  0.07201160  0.18265692  1
  H+  H107  1  0.37994574  0.26487037  0.51132232  1
  H+  H108  1  0.15785461  0.57189445  0.26955481  1
  H+  H109  1  0.86320367  0.72976118  0.34608783  1
  H+  H110  1  0.63812107  0.86796055  0.17627576  1
  H+  H111  1  1.00644634  0.38035749  1.01308027  1
  H+  H112  1  0.92136741  0.59554507  0.57706889  1
  H+  H113  1  0.86370486  -0.00154748  0.16755920  1
  H+  H114  1  0.85879188  0.18357649  0.48147629  1
  H+  H115  1  0.87657529  0.27156850  0.18208387  1
  H+  H116  1  0.89405537  0.54012254  0.98675469  1
  H+  H117  1  0.85839912  0.12079012  0.66898310  1
  H+  H118  1  0.02819194  0.64127217  0.83289582  1
  H+  H119  1  0.41613923  0.33206578  0.23895892  1
  H+  H120  1  0.09608019  0.15396522  0.15880350  1
  H+  H121  1  0.16057061  0.83419307  0.42224498  1
  H+  H122  1  0.14599594  1.03055234  0.34317615  1
  H+  H123  1  0.65042478  0.78625444  0.32259391  1
  H+  H124  1  0.13966033  0.77046729  0.33460696  1
  H+  H125  1  0.73228471  0.87164615  -0.00253697  1
  H+  H126  1  0.51932224  0.64072206  0.65741373  1
  H+  H127  1  0.26743574  0.13005792  0.82555402  1
  H+  H128  1  0.11326065  0.97245490  0.83447078  1
  H+  H129  1  0.28787605  0.64176285  0.82878498  1
  H+  H130  1  0.61026661  0.73289413  0.65640326  1
  H+  H131  1  0.84803692  0.47417851  0.17204493  1
  H+  H132  1  0.87959526  0.85223666  0.83898217  1
  H+  H133  1  0.22133205  0.86223289  -0.01328267  1
  H+  H134  1  0.67494314  0.85221029  0.23837799  1
  H+  H135  1  0.02917324  0.13399856  0.65831624  1
  H+  H136  1  0.66300603  0.01361491  0.48731523  1
  H+  H137  1  0.38967521  0.27641314  0.66218478  1
  H+  H138  1  0.14579035  0.37867784  0.98447598  1
  H+  H139  1  0.75150318  0.61131705  -0.09435527  1
  H+  H140  1  0.87279227  0.08741954  0.52012349  1
  H+  H141  1  0.03291185  0.40424820  0.84395897  1
  H+  H142  1  0.33524191  0.92409106  0.73489301  1
  H+  H143  1  0.35328690  0.87570298  0.00079503  1
  H+  H144  1  0.88101905  0.11222745  0.83383607  1
  H+  H145  1  0.08112015  0.41299652  0.09972524  1
  H+  H146  1  0.48495809  0.36365078  0.32737830  1
  H+  H147  1  0.69689152  0.09780520  0.57758138  1
  H+  H148  1  0.86549924  -0.02588198  1.00714394  1
  H+  H149  1  0.35713037  0.97962895  0.67299777  1
  H+  H150  1  0.85402047  0.87018023  0.18230907  1
  H+  H151  1  0.83898807  0.67825081  0.43394623  1
  H+  H152  1  0.78080574  0.88977821  0.34598213  1
  H+  H153  1  0.23058366  0.37014831  0.17742472  1
  H+  H154  1  0.11767382  0.22457393  0.65929024  1
  H+  H155  1  0.11433884  0.72615914  0.69707218  1
  H+  H156  1  0.50287205  0.93476909  0.19616561  1
  H+  H157  1  0.12812407  0.10540528  0.83763072  1
  H+  H158  1  0.50589976  0.37427568  0.49337977  1
  H+  H159  1  0.11749989  0.63808966  0.68373404  1
  H+  H160  1  0.01604936  0.96598254  0.71846116  1
  H+  H161  1  0.37320870  0.51415705  0.50583488  1
  H+  H162  1  0.12326823  0.13466199  0.34420369  1
  H+  H163  1  0.93534182  0.08930035  0.70073969  1
  H+  H164  1  0.53500442  0.62280971  0.85809211  1
  H+  H165  1  0.60586437  0.62782314  0.50952764  1
  H+  H166  1  0.39327629  0.11570313  0.65707454  1
  H+  H167  1  0.79144342  0.64160869  0.80252411  1
  H+  H168  1  0.84184269  0.39773989  0.51372152  1
  H+  H169  1  0.38384066  0.62569553  0.33170372  1
  H+  H170  1  0.85974961  0.97220268  0.82674857  1
  H+  H171  1  0.21719739  0.60700633  0.32859565  1
  H+  H172  1  0.48559491  0.11033283  0.16356344  1
  H+  H173  1  0.11851088  0.86558268  0.15658537  1
  H+  H174  1  0.97056848  0.11356572  0.83392821  1
  H+  H175  1  0.12914181  0.86083473  0.98899517  1
  H+  H176  1  0.22099642  0.35852053  0.82872340  1
  H+  H177  1  0.10938686  0.12883019  0.49406917  1
  H+  H178  1  0.13399912  0.77132644  0.47766843  1
  H+  H179  1  0.63741900  0.26847816  0.70136092  1
  H+  H180  1  0.61910302  0.99854737  0.03564377  1
  H+  H181  1  0.34653546  0.70933987  0.15944041  1
  H+  H182  1  0.51663554  0.87148201  0.35699251  1
  H+  H183  1  0.89210323  0.39164451  0.83581948  1
  H+  H184  1  0.88495729  0.40692810  0.01114641  1
  H+  H185  1  0.18147840  0.36090281  0.92343316  1
  H+  H186  1  0.35567115  0.37642397  0.49897015  1
  H+  H187  1  0.37034274  0.77099203  0.50357045  1
  H+  H188  1  0.40326271  0.54681870  0.33542521  1
  H+  H189  1  0.14285433  0.11456112  0.65576050  1
  H+  H190  1  0.77031111  0.12549909  0.66157837  1
  H+  H191  1  0.47775742  0.36538632  0.18175184  1
  H+  H192  1  0.63778390  0.86050603  -0.00018463  1
  H+  H193  1  0.43620397  0.04945312  0.21943262  1
  H+  H194  1  0.88849517  0.25018273  0.32753459  1
  H+  H195  1  0.61938945  0.64477606  0.33507241  1
  H+  H196  1  0.87080592  0.31257500  0.47657970  1
  H+  H197  1  0.59634639  0.46089750  0.49613883  1
  H+  H198  1  0.46193140  0.60353502  0.51080940  1
  H+  H199  1  0.62293201  0.22482498  0.48899558  1
  H+  H200  1  0.37437602  0.09950156  0.99175643  1
  H+  H201  1  0.10619287  0.46692111  0.33981130  1
  H+  H202  1  0.62770982  0.73822664  0.00098601  1
  H+  H203  1  0.22629676  0.59153719  0.17622394  1
  H+  H204  1  0.12856889  0.76619908  0.83970644  1
  H+  H205  1  0.71912111  0.09997808  0.84094348  1
  H+  H206  1  0.61196595  0.13886065  0.14902164  1
  H+  H207  1  0.73373144  0.60555760  0.98193766  1
  H+  H208  1  0.50575977  0.86137207  1.02137301  1
  H+  H209  1  1.01190519  0.86804251  1.01681888  1
  H+  H210  1  0.11352162  0.38035050  0.49308421  1
  H+  H211  1  0.61629065  0.38462094  0.34174264  1
  H+  H212  1  0.89041906  0.62905867  0.51836321  1
  H+  H213  1  0.93480107  0.28701445  0.86354981  1
  H+  H214  1  0.36792146  0.34386686  0.98616207  1
  H+  H215  1  0.48944682  0.11219961  0.50436013  1
  H+  H216  1  0.63475250  0.61209758  0.01585685  1
  H+  H217  1  0.41766299  0.59399731  0.24346460  1
  H+  H218  1  0.27015068  0.63628386  0.67161208  1
  H+  H219  1  0.38122736  0.61487937  0.65858232  1
  H+  H220  1  0.21256923  0.10011825  0.99450037  1
  H+  H221  1  0.38746803  0.52824268  0.18558948  1
  H+  H222  1  0.71242040  0.36355184  0.50832811  1
  H+  H223  1  0.63446622  0.11423243  0.99340348  1
  H+  H224  1  0.38251051  0.36218111  0.65939410  1
  H+  H225  1  0.87450736  0.73082127  0.81359195  1
  H+  H226  1  0.13561460  0.02376233  0.65979462  1
  H+  H227  1  0.13668950  0.61967311  -0.00294825  1
  H+  H228  1  0.47003297  0.62760767  0.99229077  1
  H+  H229  1  0.35000028  0.72709807  0.34022953  1
  H+  H230  1  0.89739444  0.77827599  0.51583051  1
  H+  H231  1  0.65884536  0.52807503  0.84164688  1
  H+  H232  1  0.27943009  0.13567780  0.67006494  1
  H+  H233  1  0.36895331  0.86478706  0.66038674  1
  H+  H234  1  0.27919799  0.89497664  0.47865885  1
  H+  H235  1  0.89345516  0.86413796  0.52197736  1
  H+  H236  1  0.37611923  0.76694989  0.99268995  1
  H+  H237  1  0.12602688  0.60889511  0.50956847  1
  H+  H238  1  0.64506510  0.91915952  0.49756359  1
  H+  H239  1  0.72711983  0.37079541  0.33933841  1
  H+  H240  1  0.60183092  0.38675822  0.80929846  1
  H+  H241  1  0.01853219  0.12682852  0.49626912  1
  H+  H242  1  0.38494536  0.86993889  0.32783256  1
  H+  H243  1  0.64168233  0.28044741  0.33203070  1
  H+  H244  1  0.39510449  0.87400436  0.84857211  1
  H+  H245  1  0.27398300  0.38707402  0.66514181  1
  H+  H246  1  0.01639979  0.36940416  0.66095162  1
  H+  H247  1  0.82962885  0.61330361  0.95592738  1
  H+  H248  1  0.64420806  0.03350382  0.15625698  1
  H+  H249  1  0.46497503  0.49155724  0.38680323  1
  H+  H250  1  0.58497558  0.91288481  0.41157382  1
  H+  H251  1  0.31959526  0.66616510  0.39939421  1
  H+  H252  1  0.39640971  0.31900969  0.92165752  1
  H+  H253  1  0.33525351  0.16392407  0.73049298  1
  H+  H254  1  -0.00868723  0.87955707  0.68709250  1
  H+  H255  1  0.27700065  0.14779357  0.35112906  1
  H+  H256  1  0.01893403  0.63954878  0.49814369  1
  H+  H257  1  0.85493220  0.61876707  0.16492285  1
  H+  H258  1  0.61516862  0.13125396  0.66352954  1
  H+  H259  1  0.80730048  0.42054176  0.02840544  1
  H+  H260  1  0.41804764  0.11647942  0.27606161  1
  H+  H261  1  0.13555011  0.36421053  0.82994533  1
  H+  H262  1  0.71789555  0.56021010  0.51614063  1
  H+  H263  1  0.62005335  0.71449802  0.85586791  1
  H+  H264  1  0.87950009  0.36289257  0.19283141  1
  H+  H265  1  0.12316572  0.85028837  0.67535368  1
  H+  H266  1  0.02511714  0.37931011  0.49786937  1
  H+  H267  1  0.39825105  0.02585581  0.50295335  1
  H+  H268  1  0.80049525  0.23708401  0.51712616  1
  H+  H269  1  0.85866482  0.49430388  0.51030644  1
  H+  H270  1  0.89291304  0.52092886  0.66198932  1
  H+  H271  1  0.78272683  0.88075754  0.50244643  1
  H+  H272  1  0.23476568  0.85915942  0.18002380  1
  H+  H273  1  0.85611338  0.41620424  0.73578171  1
  H+  H274  1  0.41005839  0.58486291  0.93447459  1
  H+  H275  1  0.35474620  0.72855318  0.67014990  1
  H+  H276  1  0.11358539  0.73054307  -0.00315107  1
  H+  H277  1  0.50795043  0.12211393  0.99889177  1
  H+  H278  1  0.22306415  0.35441374  0.49590620  1
  H+  H279  1  -0.03312707  0.13137244  0.18639484  1
  H+  H280  1  0.12316743  0.01247372  0.99383507  1
  H+  H281  1  0.62273661  0.39495869  0.16041661  1
  H+  H282  1  0.72520068  0.85823872  0.83909722  1
  H+  H283  1  0.63571970  0.11191765  0.31352539  1
  H+  H284  1  0.83206656  0.30086439  0.96815821  1
  H+  H285  1  1.03970014  0.65084146  0.21452371  1
  H+  H286  1  0.09414052  0.46913406  0.01011888  1
  H+  H287  1  0.64258403  0.78049329  0.50990088  1
  H+  H288  1  0.57505986  0.13541743  0.76478979  1
  H+  H289  1  0.90171633  0.31573525  0.59637488  1
  H+  H290  1  0.07382117  0.91144952  0.77615845  1
  H+  H291  1  0.81955433  0.15455509  0.75399266  1
  H+  H292  1  0.10493811  0.62910153  0.34031417  1
  H+  H293  1  0.89895023  0.58420139  0.27454332  1
  H+  H294  1  0.41076929  0.32844835  0.56953022  1
  H+  H295  1  0.59542941  0.16382888  0.39602304  1
  H+  H296  1  0.57044053  0.43904863  0.76982789  1
  H+  H297  1  0.33904866  0.17579306  0.40976933  1
  H+  H298  1  0.60129119  0.69589335  0.06550023  1
  H+  H299  1  0.08182968  0.15999123  0.40519785  1
  H+  H300  1  0.40301764  0.57951588  0.59844557  1
  H+  H301  1  0.91114341  0.08240912  0.93246994  1
  H+  H302  1  0.85989489  0.70981211  0.71346367  1
  H+  H303  1  0.81452848  0.13031783  0.38851765  1
  H+  H304  1  0.21518299  0.86235007  0.58372978  1
  H+  H305  1  0.15932793  0.83275852  0.90230601  1
  H+  H306  1  0.66023945  0.08206448  0.22323801  1
  H+  H307  1  0.66569879  0.07534381  0.94080314  1
  H+  H308  1  0.86621962  0.76582906  -0.01289551  1
  H+  H309  1  0.36228242  0.97948365  0.82811955  1
  H+  H310  1  0.86129976  -0.02237049  0.67296469  1
  H+  H311  1  0.35205716  0.62558106  0.00084034  1
  H+  H312  1  0.63011895  0.61119309  0.16641376  1
  H+  H313  1  0.07785802  0.40935980  0.40010131  1
  H+  H314  1  0.71581220  0.09681328  0.30977148  1
  H+  H315  1  0.41927517  0.83697867  0.93841149  1
  H+  H316  1  0.57750353  0.41172132  0.39908868  1
  H+  H317  1  0.67615174  0.57893431  0.27436901  1
  H+  H318  1  0.01626921  0.13476590  0.00723491  1
  H+  H319  1  0.67040936  0.83814998  0.89999679  1
  H+  H320  1  0.41218614  0.07963716  0.89697405  1
  H+  H321  1  0.42169938  0.84073360  0.27269971  1
  H+  H322  1  0.34374563  0.92900816  0.39767091  1
  H+  H323  1  0.86377200  0.22677546  0.01025484  1
  H+  H324  1  0.36102622  0.47800514  0.66939209  1
  H+  H325  1  0.36077622  0.97422734  0.14843398  1
  H+  H326  1  0.07167413  0.65428581  0.43532069  1
  H+  H327  1  0.15927336  0.58225534  0.60381821  1
  H+  H328  1  0.83696602  0.90956778  0.40632147  1
  H+  H329  1  0.08851873  0.92984617  0.40820397  1
  H+  H330  1  0.42271237  0.08329895  0.59824975  1
  H+  H331  1  0.07025403  0.45750675  0.78326691  1
  H+  H332  1  0.17066065  0.08521924  0.56449244  1
  H+  H333  1  0.90722300  0.82437076  0.28009430  1
  H+  H334  1  0.66157354  0.31753765  0.86373603  1
  H+  H335  1  0.77318187  0.91073540  0.16370207  1
  H+  H336  1  0.83390324  0.92917672  0.07175952  1
  H+  H337  1  0.17087227  0.32739936  0.58795435  1
  H+  H338  1  0.88232999  0.10468314  0.28628795  1
  H+  H339  1  0.39702032  0.83069737  0.56227487  1
  H+  H340  1  0.91914942  0.58847779  0.92143103  1
  H+  H341  1  0.53399849  0.58909771  0.10869025  1
  H+  H342  1  0.67091604  0.57588252  0.57125209  1
  H+  H343  1  0.57019381  0.89936354  0.73971298  1
  H+  H344  1  0.07816456  0.38570525  0.71708879  1
  H+  H345  1  0.93643940  0.61245417  0.17899825  1
  H+  H346  1  0.08577201  0.90456300  0.06614786  1
  H+  H347  1  0.58268920  0.43540657  0.11448941  1
  H+  H348  1  0.92395890  0.34042161  0.92340369  1
  H+  H349  1  0.91786521  0.07642132  0.57900845  1
  H+  H350  1  0.08073241  0.16303666  0.75992157  1
  H+  H351  1  0.73920480  0.64132907  0.65260473  1
  H+  H352  1  0.33578566  0.65905930  0.76536197  1
  H+  H353  1  0.67579461  0.84204889  0.56652078  1
  H+  H354  1  0.26634654  0.31150823  0.04779819  1
  H+  H355  1  0.09244532  0.66838140  0.77648309  1
  H+  H356  1  0.55724819  0.37184122  0.03258741  1
  H+  H357  1  0.15580446  0.07754280  0.89943510  1
  H+  H358  1  0.60451983  0.34870655  0.95700646  1
  H+  H359  1  0.65838251  0.61613744  0.85440414  1
  H+  H360  1  0.91101581  0.31852176  0.26023871  1
  H+  H361  1  -0.02196879  0.34574806  0.32950783  1
  H+  H362  1  0.31948045  0.65045989  0.06480088  1
  H+  H363  1  0.17318068  0.82643870  0.23907119  1
  H+  H364  1  0.18144390  0.81572521  0.58560560  1
  H+  H365  1  0.83450339  0.17632099  0.10365068  1
  H+  H366  1  0.17785482  0.08660772  0.28138485  1
  H+  H367  1  0.57533152  0.16265281  0.08938938  1
  H+  H368  1  0.32708116  0.41377748  0.76225258  1
  H+  H369  1  0.90310187  0.81137450  0.61009721  1
  H+  H370  1  0.32942234  0.16163785  0.06411650  1
  H+  H371  1  0.39202623  0.60565371  0.83908787  1
  H+  H372  1  0.82942992  0.91344970  0.76731321  1
  H+  H373  1  0.16918129  0.58961167  0.93649261  1
  H+  H374  1  0.34647640  0.41911453  0.43809685  1
  H+  H375  1  0.83674255  0.71638931  0.09075344  1
  H+  H376  1  0.14571576  0.62741116  0.85276264  1
  H+  H377  1  0.12007172  0.67753066  0.09198327  1
  H+  H378  1  0.07126480  0.17662715  0.09475335  1
  H+  H379  1  0.64333491  0.14786145  0.48390407  1
  H+  H380  1  0.89709353  0.52606022  0.83140842  1
  H+  H381  1  0.61205378  0.87772904  0.82817103  1
  H+  H382  1  0.36847112  0.22592809  0.16521680  1
  H+  H383  1  0.32160746  0.90624244  0.05830760  1
  O2-  O384  1  0.07174427  0.18674355  0.14144235  1
  O2-  O385  1  0.07699632  0.15675194  0.47748841  1
  O2-  O386  1  0.07657567  0.16138319  0.80499552  1
  O2-  O387  1  0.09071923  0.41758550  0.14561523  1
  O2-  O388  1  0.08262227  0.41217164  0.48073938  1
  O2-  O389  1  0.08854668  0.43997814  0.81963225  1
  O2-  O390  1  0.15440463  0.68465186  0.12868485  1
  O2-  O391  1  0.07789336  0.66213391  0.48042353  1
  O2-  O392  1  0.09152505  0.67456727  0.82280683  1
  O2-  O393  1  0.09654800  0.90194416  0.13914887  1
  O2-  O394  1  0.08137407  0.92193670  0.48734103  1
  O2-  O395  1  0.08512956  0.91052047  0.82056903  1
  O2-  O396  1  0.33841673  0.16553669  0.14958088  1
  O2-  O397  1  0.33834740  0.16331437  0.48439501  1
  O2-  O398  1  0.32716954  0.16104403  0.80951051  1
  O2-  O399  1  0.33868481  0.42378983  0.15510902  1
  O2-  O400  1  0.32716077  0.40774267  0.48121751  1
  O2-  O401  1  0.32251977  0.40948579  0.80765859  1
  O2-  O402  1  0.32831614  0.65187506  0.14411964  1
  O2-  O403  1  0.31940775  0.66182495  0.47575617  1
  O2-  O404  1  0.34231661  0.65473984  0.80972223  1
  O2-  O405  1  0.33090471  0.91237090  0.13716768  1
  O2-  O406  1  0.34210662  0.92631891  0.47175591  1
  O2-  O407  1  0.33605112  0.91896255  0.81233679  1
  O2-  O408  1  0.57715319  0.16526561  0.13494229  1
  O2-  O409  1  0.59956962  0.16380210  0.47352559  1
  O2-  O410  1  0.57439796  0.13690275  0.81045461  1
  O2-  O411  1  0.59432391  0.43434575  0.15769551  1
  O2-  O412  1  0.56558964  0.40385265  0.47622033  1
  O2-  O413  1  0.57742473  0.42402751  0.81452144  1
  O2-  O414  1  0.56332165  0.62916403  0.14202811  1
  O2-  O415  1  0.57521244  0.65771364  0.52203202  1
  O2-  O416  1  0.59807881  0.65270145  0.86398292  1
  O2-  O417  1  0.58999939  0.95923732  0.07100692  1
  O2-  O418  1  0.61804519  0.95306693  0.48560250  1
  O2-  O419  1  0.58213940  0.90873142  0.81277347  1
  O2-  O420  1  0.83124698  0.17847491  0.14910866  1
  O2-  O421  1  0.80945330  0.12551660  0.47695007  1
  O2-  O422  1  0.81889081  0.15967846  0.80028347  1
  O2-  O423  1  0.83601259  0.41696161  0.15726683  1
  O2-  O424  1  0.82207972  0.43417617  0.49466132  1
  O2-  O425  1  0.86080991  0.41822638  0.81664255  1
  O2-  O426  1  0.82178651  0.69149091  0.13243351  1
  O2-  O427  1  0.83821471  0.68306910  0.48060217  1
  O2-  O428  1  0.85241332  0.67523200  0.78970089  1
  O2-  O429  1  0.83468437  0.94002059  0.14876482  1
  O2-  O430  1  0.84503105  0.90825410  0.49064948  1
  O2-  O431  1  0.83063212  0.91156315  0.81281534  1
  O2-  O432  1  0.18498244  0.06449990  0.20332915  1
  O2-  O433  1  0.16988717  0.08610833  0.51909390  1
  O2-  O434  1  0.15802897  0.07553680  0.85392430  1
  O2-  O435  1  0.16842500  0.34254373  0.18876408  1
  O2-  O436  1  0.16210912  0.32629647  0.51126684  1
  O2-  O437  1  0.15961087  0.32864585  0.84398959  1
  O2-  O438  1  0.16428039  0.56646276  0.18662357  1
  O2-  O439  1  0.15758883  0.58036922  0.52622162  1
  O2-  O440  1  0.17591799  0.59768105  0.86960483  1
  O2-  O441  1  0.17464792  0.82223960  0.19414772  1
  O2-  O442  1  0.16429222  0.83404019  0.46670530  1
  O2-  O443  1  0.15812339  0.83055036  0.85462600  1
  O2-  O444  1  0.42618608  0.07535143  0.18357292  1
  O2-  O445  1  0.42941131  0.08585627  0.51966475  1
  O2-  O446  1  0.41181373  0.08109594  0.85150313  1
  O2-  O447  1  0.41635249  0.33250393  0.19285634  1
  O2-  O448  1  0.40669142  0.32655835  0.52374187  1
  O2-  O449  1  0.40610974  0.32642903  0.84790354  1
  O2-  O450  1  0.41875765  0.59031476  0.19696635  1
  O2-  O451  1  0.39913978  0.57534494  0.51889899  1
  O2-  O452  1  0.41767695  0.57365320  0.85972261  1
  O2-  O453  1  0.45423633  0.87772384  0.18773065  1
  O2-  O454  1  0.39760012  0.83139195  0.51730153  1
  O2-  O455  1  0.42538790  0.84880933  0.87028733  1
  O2-  O456  1  0.66310792  0.08881882  0.17594418  1
  O2-  O457  1  0.73806424  0.13616343  0.50524209  1
  O2-  O458  1  0.66244957  0.06832237  0.86139453  1
  O2-  O459  1  0.65974153  0.33940950  0.15771891  1
  O2-  O460  1  0.65204315  0.31901553  0.51619534  1
  O2-  O461  1  0.69061907  0.30531286  0.83054312  1
  O2-  O462  1  0.67628405  0.59452528  0.17830471  1
  O2-  O463  1  0.66726493  0.56481232  0.52541720  1
  O2-  O464  1  0.69792823  0.58969154  0.85218096  1
  O2-  O465  1  0.67752535  0.85050075  0.19199486  1
  O2-  O466  1  0.68002155  0.84127802  0.52110735  1
  O2-  O467  1  0.66516031  0.82949035  0.85512085  1
  O2-  O468  1  0.90778607  0.09948660  0.20251694  1
  O2-  O469  1  0.91761901  0.07452505  0.53381419  1
  O2-  O470  1  0.91117899  0.08369530  0.85105038  1
  O2-  O471  1  0.90635110  0.32795679  0.20499534  1
  O2-  O472  1  0.85433152  0.29791046  0.51907787  1
  O2-  O473  1  0.94447412  0.34400147  0.87332288  1
  O2-  O474  1  0.87430603  0.58222098  0.18540050  1
  O2-  O475  1  0.92003028  0.59764397  0.53062684  1
  O2-  O476  1  0.92347870  0.58728663  0.84470442  1
  O2-  O477  1  0.84864190  0.81755293  0.20370638  1
  O2-  O478  1  0.92407041  0.83368232  0.53881087  1
  O2-  O479  1  0.90555432  0.81758013  0.85307711  1
  O2-  O480  1  0.17446546  0.09332109  0.32598103  1
  O2-  O481  1  0.17222921  0.08184406  0.64319283  1
  O2-  O482  1  0.15285408  0.07282043  0.97868391  1
  O2-  O483  1  0.15350487  0.31474255  0.31775214  1
  O2-  O484  1  0.17073525  0.32735435  0.63363526  1
  O2-  O485  1  0.19851206  0.38962560  0.96366644  1
  O2-  O486  1  0.15579007  0.57229040  0.31459227  1
  O2-  O487  1  0.16180254  0.58122058  0.64940722  1
  O2-  O488  1  0.16595977  0.58604420  0.98428547  1
  O2-  O489  1  0.16745447  0.83309955  0.32462099  1
  O2-  O490  1  0.15219500  0.83290110  0.70458379  1
  O2-  O491  1  0.16070563  0.83289152  0.97000050  1
  O2-  O492  1  0.41647161  0.10086151  0.31869961  1
  O2-  O493  1  0.42074364  0.08188758  0.64382008  1
  O2-  O494  1  0.40593160  0.07145433  0.97512053  1
  O2-  O495  1  0.42285120  0.33840505  0.31385226  1
  O2-  O496  1  0.41646815  0.33540195  0.64471288  1
  O2-  O497  1  0.39995631  0.31733259  0.96764473  1
  O2-  O498  1  0.41999814  0.60218163  0.31486932  1
  O2-  O499  1  0.40966749  0.58253079  0.64365361  1
  O2-  O500  1  0.40944219  0.59492148  0.97969957  1
  O2-  O501  1  0.40896243  0.83219969  0.31630973  1
  O2-  O502  1  0.39789446  0.83342305  0.64409355  1
  O2-  O503  1  0.41158086  0.82910527  0.98518204  1
  O2-  O504  1  0.65979503  0.08010702  0.29123268  1
  O2-  O505  1  0.67521860  0.08373813  0.62065445  1
  O2-  O506  1  0.66834236  0.08500223  0.98574429  1
  O2-  O507  1  0.66782260  0.34198569  0.32139364  1
  O2-  O508  1  0.66628527  0.32711802  0.71883647  1
  O2-  O509  1  0.63137767  0.31419267  0.94368527  1
  O2-  O510  1  0.67004403  0.57876276  0.31843382  1
  O2-  O511  1  0.67919645  0.59999186  0.64103777  1
  O2-  O512  1  0.66060229  0.57378301  1.01978525  1
  O2-  O513  1  0.67805347  0.84828181  0.31049093  1
  O2-  O514  1  0.67027079  0.84149341  0.64311604  1
  O2-  O515  1  0.67320939  0.84005725  0.97913829  1
  O2-  O516  1  0.88066427  0.10628336  0.33159646  1
  O2-  O517  1  0.91172535  0.07401010  0.65974801  1
  O2-  O518  1  0.91246288  0.08000060  0.97767583  1
  O2-  O519  1  0.91746702  0.31134518  0.31329161  1
  O2-  O520  1  0.91368841  0.31828778  0.64035354  1
  O2-  O521  1  0.89325715  0.33190888  0.97806506  1
  O2-  O522  1  0.91357690  0.58932278  0.31790658  1
  O2-  O523  1  0.92146417  0.58159659  0.64852691  1
  O2-  O524  1  0.91112089  0.59561433  0.96590424  1
  O2-  O525  1  0.90838553  0.81989387  0.32443052  1
  O2-  O526  1  0.89383046  0.80783942  0.65637025  1
  O2-  O527  1  0.88719262  0.79776108  1.02513138  1
  O2-  O528  1  0.07450783  0.16409874  0.02620760  1
  O2-  O529  1  0.08865976  0.16380974  0.35883199  1
  O2-  O530  1  0.08850193  0.16419021  0.67551963  1
  O2-  O531  1  0.06646733  0.41043303  0.02722998  1
  O2-  O532  1  0.07691126  0.40604939  0.35488358  1
  O2-  O533  1  0.07843132  0.40176820  0.67474632  1
  O2-  O534  1  0.08479533  0.66990245  0.01222977  1
  O2-  O535  1  0.07929571  0.66324804  0.35625698  1
  O2-  O536  1  0.08564080  0.66274310  0.70487964  1
  O2-  O537  1  0.07514112  0.90286101  0.02060175  1
  O2-  O538  1  0.10311297  0.94101994  0.36433654  1
  O2-  O539  1  0.04114948  0.93116241  0.70612928  1
  O2-  O540  1  0.32370905  0.15491910  0.01933308  1
  O2-  O541  1  0.33878553  0.17974405  0.36403885  1
  O2-  O542  1  0.33965276  0.16729771  0.68519728  1
  O2-  O543  1  0.30587610  0.36945935  0.03330169  1
  O2-  O544  1  0.40637658  0.45993017  0.37119044  1
  O2-  O545  1  0.33218989  0.41696014  0.68388205  1
  O2-  O546  1  0.31400800  0.65047094  0.01952326  1
  O2-  O547  1  0.32013379  0.66564805  0.35360364  1
  O2-  O548  1  0.33142329  0.66814807  0.68455356  1
  O2-  O549  1  0.32048323  0.90544690  0.01294145  1
  O2-  O550  1  0.33798674  0.92678675  0.35166788  1
  O2-  O551  1  0.32455634  0.92001890  0.69003908  1
  O2-  O552  1  0.56972488  0.15826109  0.01189186  1
  O2-  O553  1  0.59167678  0.16560577  0.35047653  1
  O2-  O554  1  0.58347589  0.15240546  0.68788645  1
  O2-  O555  1  0.56025776  0.40069495  -0.00564618  1
  O2-  O556  1  0.58243423  0.41521500  0.35366772  1
  O2-  O557  1  0.55830275  0.45784439  0.70573948  1
  O2-  O558  1  0.59676767  0.68076121  0.02228921  1
  O2-  O559  1  0.59800352  0.68355554  0.34697597  1
  O2-  O560  1  0.58281094  0.66944270  0.65191074  1
  O2-  O561  1  0.55874714  0.87296030  0.04510096  1
  O2-  O562  1  0.57471502  0.88706911  0.37024117  1
  O2-  O563  1  0.55655352  0.87991631  0.69560128  1
  O2-  O564  1  0.83489180  0.16693139  0.02623871  1
  O2-  O565  1  0.82697359  0.14483258  0.34446826  1
  O2-  O566  1  0.82802236  0.15475498  0.68123449  1
  O2-  O567  1  0.86956269  0.44876513  0.03193554  1
  O2-  O568  1  0.82758538  0.42220570  0.36854183  1
  O2-  O569  1  0.84152853  0.41182953  0.69183038  1
  O2-  O570  1  0.78443156  0.63067026  -0.05147825  1
  O2-  O571  1  0.83487705  0.66751196  0.36391308  1
  O2-  O572  1  0.85323203  0.71510984  0.66831188  1
  O2-  O573  1  0.83315857  0.91672121  0.02721386  1
  O2-  O574  1  0.83957618  0.90917349  0.36153391  1
  O2-  O575  1  0.82615650  0.91456485  0.68931645  1
