# generated using pymatgen
data_H2O
_symmetry_space_group_name_H-M   'P 1'
_cell_length_a   17.97361100
_cell_length_b   17.98267628
_cell_length_c   21.99656224
_cell_angle_alpha   90.02150788
_cell_angle_beta   89.98640826
_cell_angle_gamma   119.97583985
_symmetry_Int_Tables_number   1
_chemical_formula_structural   H2O
_chemical_formula_sum   'H384 O192'
_cell_volume   6158.58238947
_cell_formula_units_Z   192
loop_
 _symmetry_equiv_pos_site_id
 _symmetry_equiv_pos_as_xyz
  1  'x, y, z'
loop_
 _atom_type_symbol
 _atom_type_oxidation_number
  H+  1.0
  O2-  -2.0
loop_
 _atom_site_type_symbol
 _atom_site_label
 _atom_site_symmetry_multiplicity
 _atom_site_fract_x
 _atom_site_fract_y
 _atom_site_fract_z
 _atom_site_occupancy
  H+  H0  1  0.86220173  0.09263697  0.33118042  1
  H+  H1  1  0.88250396  0.26961184  0.64835878  1
  H+  H2  1  0.34006699  0.18454505  0.77068306  1
  H+  H3  1  0.27590400  0.62858154  0.65996894  1
  H+  H4  1  0.13699228  0.74791469  0.11350276  1
  H+  H5  1  0.87129330  0.49924709  0.34308660  1
  H+  H6  1  0.13355486  0.36202267  0.65202625  1
  H+  H7  1  0.38576169  0.58517294  0.67175134  1
  H+  H8  1  0.36090227  0.45354047  0.68727154  1
  H+  H9  1  0.14190534  0.39423881  0.16169400  1
  H+  H10  1  0.37866045  0.94180822  0.81730459  1
  H+  H11  1  0.62720058  0.61871872  0.33886650  1
  H+  H12  1  0.13537311  0.50506375  1.02230721  1
  H+  H13  1  0.23094996  0.11621355  0.84528239  1
  H+  H14  1  0.63539769  1.01997687  0.66178050  1
  H+  H15  1  0.62308737  0.51834614  0.33731645  1
  H+  H16  1  0.51765186  0.62286538  0.83314860  1
  H+  H17  1  0.62522840  0.10220668  0.50873977  1
  H+  H18  1  0.15532941  0.65495657  0.81060120  1
  H+  H19  1  0.13364822  0.75873286  0.31517646  1
  H+  H20  1  0.86150491  0.27433368  0.17248436  1
  H+  H21  1  0.86669538  0.98052572  0.32508890  1
  H+  H22  1  0.61737923  0.40119047  0.33906311  1
  H+  H23  1  0.50580108  0.12537951  0.01741478  1
  H+  H24  1  0.01402911  0.12032989  1.00601584  1
  H+  H25  1  0.92676155  0.49090293  0.83015755  1
  H+  H26  1  0.11085652  0.87648028  -0.00040880  1
  H+  H27  1  0.86765878  0.73797031  0.83586571  1
  H+  H28  1  0.76668688  0.63560747  0.49672080  1
  H+  H29  1  0.08966080  0.68667191  0.72966818  1
  H+  H30  1  0.86241779  0.64947700  0.49852701  1
  H+  H31  1  0.70981617  0.58737897  0.65926111  1
  H+  H32  1  0.61343572  0.37208190  0.00550665  1
  H+  H33  1  0.82978522  0.38784431  0.81543623  1
  H+  H34  1  0.34799588  0.12699941  0.17724593  1
  H+  H35  1  0.14107604  0.52134546  0.49298213  1
  H+  H36  1  0.27101286  0.89071233  0.48687757  1
  H+  H37  1  0.09697875  0.13423542  0.15482196  1
  H+  H38  1  0.89495252  0.36771271  0.49570591  1
  H+  H39  1  0.13084615  0.85615066  0.15998029  1
  H+  H40  1  0.02322675  0.62352575  0.34039795  1
  H+  H41  1  0.61741635  0.04504342  0.17302014  1
  H+  H42  1  0.62553608  0.35356161  0.50213220  1
  H+  H43  1  0.77654360  0.89060106  0.17191333  1
  H+  H44  1  0.17359646  0.09195188  0.55352069  1
  H+  H45  1  0.37682855  0.51750055  0.83685473  1
  H+  H46  1  0.60043633  0.92209992  0.17913477  1
  H+  H47  1  0.37478165  0.65623884  0.99583519  1
  H+  H48  1  0.90393106  0.12410575  0.49111887  1
  H+  H49  1  0.62425826  0.35011799  0.65627872  1
  H+  H50  1  0.38912630  0.78203455  0.65350668  1
  H+  H51  1  0.35869824  0.88910598  0.48944172  1
  H+  H52  1  0.27052942  0.37222573  0.83775464  1
  H+  H53  1  -0.02515760  0.87184385  0.83628659  1
  H+  H54  1  0.88086615  0.86500029  0.84186675  1
  H+  H55  1  0.83543080  0.51401267  0.48311109  1
  H+  H56  1  0.14513310  0.61385325  0.32754757  1
  H+  H57  1  0.27673394  0.90391553  0.15876873  1
  H+  H58  1  0.13217767  0.25168662  0.85023306  1
  H+  H59  1  1.00007903  0.26241979  0.99228349  1
  H+  H60  1  0.97502346  0.10390549  0.84623371  1
  H+  H61  1  0.13635398  0.27537141  0.64160215  1
  H+  H62  1  0.32504400  0.90570927  0.38901696  1
  H+  H63  1  0.87349977  0.50635968  0.17927651  1
  H+  H64  1  0.68553627  0.92381609  0.47581210  1
  H+  H65  1  0.46812847  0.10307742  0.66143457  1
  H+  H66  1  0.61053690  0.13022056  0.67285101  1
  H+  H67  1  0.12674920  0.23946324  0.48785848  1
  H+  H68  1  0.11580766  0.63657990  0.49241574  1
  H+  H69  1  0.50415397  0.90389357  0.16571580  1
  H+  H70  1  0.65880403  0.03363602  0.49942082  1
  H+  H71  1  0.62198664  0.34833879  0.84051401  1
  H+  H72  1  0.42041144  0.25827994  -0.02424040  1
  H+  H73  1  0.26646983  0.37258608  0.67863204  1
  H+  H74  1  0.55076920  0.81741504  0.54460355  1
  H+  H75  1  0.74682110  0.62899630  0.99116996  1
  H+  H76  1  0.14180709  0.02996329  0.49475350  1
  H+  H77  1  0.69024193  0.84279450  0.74950733  1
  H+  H78  1  0.83756022  0.37979042  0.15942755  1
  H+  H79  1  0.12703900  0.39484883  0.33036862  1
  H+  H80  1  0.13280224  0.84710298  0.31196642  1
  H+  H81  1  1.03182021  0.89234707  0.48273997  1
  H+  H82  1  0.88399198  0.86240751  0.99291495  1
  H+  H83  1  0.89104851  0.11113055  0.83890904  1
  H+  H84  1  0.64395004  0.08267154  0.26664136  1
  H+  H85  1  0.27661596  0.13652330  0.48292017  1
  H+  H86  1  0.76824576  0.87656613  0.49022065  1
  H+  H87  1  0.47156695  0.89004153  0.83308456  1
  H+  H88  1  0.77912918  0.88813749  0.32765074  1
  H+  H89  1  0.84547670  0.36708763  1.01521453  1
  H+  H90  1  0.76953164  0.13459789  0.66761344  1
  H+  H91  1  0.35687107  0.73296804  0.17247946  1
  H+  H92  1  0.61119157  0.62879957  0.83704836  1
  H+  H93  1  0.24545834  0.38137671  0.16250662  1
  H+  H94  1  0.47603363  0.59063926  0.68072390  1
  H+  H95  1  0.88749146  0.77749621  0.49705361  1
  H+  H96  1  0.38520368  0.36010191  0.50949589  1
  H+  H97  1  0.36734689  0.74148482  -0.00251983  1
  H+  H98  1  0.71232682  0.11972111  0.84340533  1
  H+  H99  1  0.71591115  0.35521263  0.65124500  1
  H+  H100  1  0.61258990  0.62979310  0.68139170  1
  H+  H101  1  0.40893525  0.27076777  0.32482796  1
  H+  H102  1  0.63670222  0.74009932  0.49393699  1
  H+  H103  1  0.89564316  0.65015069  0.68465484  1
  H+  H104  1  0.60755169  0.21762984  0.67224910  1
  H+  H105  1  0.62455652  0.82532025  0.15680350  1
  H+  H106  1  0.78447659  0.41775252  0.32322399  1
  H+  H107  1  0.36193294  -0.02683047  0.66608237  1
  H+  H108  1  0.72837118  0.32980449  0.81595047  1
  H+  H109  1  1.03068628  0.90775041  0.66401961  1
  H+  H110  1  0.92626042  0.47444556  0.86221959  1
  H+  H111  1  0.52382114  0.39038197  0.33573125  1
  H+  H112  1  0.87719914  0.51402143  0.48371288  1
  H+  H113  1  0.07751567  0.15944505  0.06136212  1
  H+  H114  1  0.86848015  0.01541861  0.63677969  1
  H+  H115  1  0.75932288  0.13114662  1.01106098  1
  H+  H116  1  0.29927097  0.66524188  0.79268283  1
  H+  H117  1  0.64718015  0.75149367  0.16300348  1
  H+  H118  1  0.10763520  0.01023998  0.16172247  1
  H+  H119  1  0.36565178  0.07474859  1.01434542  1
  H+  H120  1  0.15098484  0.37645307  0.49453254  1
  H+  H121  1  0.62062827  0.25799762  0.99518402  1
  H+  H122  1  0.05542367  0.68756428  0.83031875  1
  H+  H123  1  0.65467309  0.57290225  0.59980239  1
  H+  H124  1  0.99578610  0.13069799  0.49622258  1
  H+  H125  1  0.12238390  0.09743399  0.99545692  1
  H+  H126  1  0.88215881  0.51426568  0.66228946  1
  H+  H127  1  0.62524387  0.51308409  0.19584155  1
  H+  H128  1  0.28961183  0.39843195  0.48878521  1
  H+  H129  1  0.40925479  0.53813792  0.49698441  1
  H+  H130  1  0.60134611  0.96301934  0.32903352  1
  H+  H131  1  0.11573930  0.64369329  0.67694008  1
  H+  H132  1  0.28582739  0.27104212  0.22310431  1
  H+  H133  1  0.54039036  0.65437161  0.49214823  1
  H+  H134  1  0.58949411  0.39663657  0.06931782  1
  H+  H135  1  0.85787140  0.21074479  0.01513486  1
  H+  H136  1  0.39190143  0.00313102  1.00714938  1
  H+  H137  1  0.38913345  0.36438007  0.84509687  1
  H+  H138  1  0.71341366  0.34448283  -0.00750221  1
  H+  H139  1  0.51158032  0.89190740  0.01402404  1
  H+  H140  1  0.00185248  0.39379389  0.81591592  1
  H+  H141  1  0.62643295  0.86072253  1.00019806  1
  H+  H142  1  0.48312651  0.61285217  0.32870196  1
  H+  H143  1  0.36101939  0.15952465  0.39870520  1
  H+  H144  1  0.52689261  0.39084780  0.82913043  1
  H+  H145  1  0.84789634  0.13821328  0.16882855  1
  H+  H146  1  0.86057719  0.73496794  0.00619367  1
  H+  H147  1  0.42469084  0.59497877  0.92850419  1
  H+  H148  1  0.88431978  1.03502124  0.18099503  1
  H+  H149  1  0.62312831  0.73266416  0.00086916  1
  H+  H150  1  0.38012643  0.85252246  0.32535332  1
  H+  H151  1  0.45315900  0.08273043  0.82867893  1
  H+  H152  1  0.25005586  0.91107853  0.82890503  1
  H+  H153  1  0.86083297  0.75991822  0.17039361  1
  H+  H154  1  0.38308658  0.11009156  0.50461594  1
  H+  H155  1  0.91939855  0.65869381  0.85930334  1
  H+  H156  1  0.17557988  0.58561762  0.72595606  1
  H+  H157  1  0.59837031  0.13192367  0.01760364  1
  H+  H158  1  0.11366949  0.12291644  0.83682037  1
  H+  H159  1  0.84673296  0.63380158  0.33759138  1
  H+  H160  1  0.47273774  0.13368023  0.19148239  1
  H+  H161  1  0.26859575  0.87073375  0.32843743  1
  H+  H162  1  0.62673448  0.02226975  1.00036397  1
  H+  H163  1  0.88912777  0.26765795  0.84609629  1
  H+  H164  1  0.50733017  0.12161690  0.50119081  1
  H+  H165  1  0.06173944  0.40327703  0.01323856  1
  H+  H166  1  0.38303463  0.88707289  0.17447714  1
  H+  H167  1  0.12053921  0.00563954  0.99206163  1
  H+  H168  1  0.00248988  0.12472078  0.67049191  1
  H+  H169  1  0.14190257  0.77821370  0.49876265  1
  H+  H170  1  0.37497248  0.47452016  0.33521101  1
  H+  H171  1  1.01063731  0.66603000  1.03587043  1
  H+  H172  1  0.14351866  0.12679416  0.65213414  1
  H+  H173  1  0.60828909  0.09392548  0.33117869  1
  H+  H174  1  0.90088040  0.34526727  0.88605215  1
  H+  H175  1  0.94128844  0.58680873  0.87613517  1
  H+  H176  1  0.43787051  0.43260337  -0.01114335  1
  H+  H177  1  0.75737985  0.16249035  0.48842973  1
  H+  H178  1  0.79404339  0.25036788  0.45158098  1
  H+  H179  1  0.87369865  0.65460648  1.01785363  1
  H+  H180  1  0.77163588  0.88091399  1.00489232  1
  H+  H181  1  0.33384516  0.23694493  0.18227822  1
  H+  H182  1  0.23799350  0.61746704  0.32235146  1
  H+  H183  1  0.19135606  0.86383492  0.88748730  1
  H+  H184  1  0.40810838  0.27747484  1.00186347  1
  H+  H185  1  0.24205754  0.09562495  0.01728130  1
  H+  H186  1  0.45781355  0.12714303  0.35099995  1
  H+  H187  1  0.27335507  0.88433456  0.65963576  1
  H+  H188  1  0.59801664  0.21184647  0.49811927  1
  H+  H189  1  0.88956435  0.86427861  0.31836066  1
  H+  H190  1  0.24333645  0.63890236  0.01401362  1
  H+  H191  1  0.91453914  0.33203262  0.58897086  1
  H+  H192  1  0.11171239  0.23025023  0.15410832  1
  H+  H193  1  0.85841323  0.13503909  0.66828331  1
  H+  H194  1  0.61056834  -0.02213241  0.83579855  1
  H+  H195  1  0.64620555  0.52132569  0.83966946  1
  H+  H196  1  0.98526078  0.37798604  0.31656294  1
  H+  H197  1  0.12666294  0.48320098  0.33368029  1
  H+  H198  1  0.25560130  0.10816434  0.32513538  1
  H+  H199  1  0.15564247  0.77840438  0.97250334  1
  H+  H200  1  0.00860407  0.86601908  0.15467633  1
  H+  H201  1  0.73109910  0.08452483  0.34822382  1
  H+  H202  1  0.40575741  0.54607182  -0.00793054  1
  H+  H203  1  0.13503362  0.51857193  0.67245215  1
  H+  H204  1  0.27926865  0.63860786  0.48572314  1
  H+  H205  1  0.15092724  0.04351039  0.65393899  1
  H+  H206  1  0.61864906  0.76324308  0.84633643  1
  H+  H207  1  0.58470087  0.20425733  0.82746943  1
  H+  H208  1  0.83866677  0.88064628  0.63262997  1
  H+  H209  1  0.62101146  0.72959893  0.33792223  1
  H+  H210  1  0.97623446  0.60119354  0.66668845  1
  H+  H211  1  0.29118575  0.17957499  0.66328132  1
  H+  H212  1  0.14510712  0.77299259  0.81641892  1
  H+  H213  1  0.39069543  0.47501846  0.15701056  1
  H+  H214  1  0.71948990  0.61175134  0.33636777  1
  H+  H215  1  0.03401860  0.65071520  0.49947440  1
  H+  H216  1  0.38877319  0.61264364  0.82805319  1
  H+  H217  1  0.85404420  0.37735510  0.65993309  1
  H+  H218  1  0.03559818  0.39567970  0.48116529  1
  H+  H219  1  0.71221204  0.12543872  0.17838523  1
  H+  H220  1  0.08014053  0.19039981  0.39024944  1
  H+  H221  1  0.74853756  0.34576652  0.47667554  1
  H+  H222  1  0.97814322  0.71240035  0.55774963  1
  H+  H223  1  0.71634106  1.00212786  0.42684417  1
  H+  H224  1  0.14932283  0.46909563  0.88187757  1
  H+  H225  1  0.12357924  0.14809661  0.48408907  1
  H+  H226  1  0.73539409  0.61355362  0.84055634  1
  H+  H227  1  0.31023902  0.41140301  1.00367079  1
  H+  H228  1  0.16351011  1.02927207  0.32060720  1
  H+  H229  1  0.35260622  0.65635554  0.61241444  1
  H+  H230  1  0.59702208  0.21168826  0.35981637  1
  H+  H231  1  0.89799990  0.28526232  0.49677607  1
  H+  H232  1  0.86966952  0.10003671  1.00100827  1
  H+  H233  1  0.60527911  0.88460524  0.69267647  1
  H+  H234  1  0.12942091  0.77844186  0.65282773  1
  H+  H235  1  0.75272080  0.60145973  0.15578909  1
  H+  H236  1  0.19568429  0.09516645  0.17344088  1
  H+  H237  1  0.26829148  0.64888745  0.17428594  1
  H+  H238  1  0.67931997  0.65931399  0.13476870  1
  H+  H239  1  0.01761992  0.87059617  0.00038190  1
  H+  H240  1  0.61827429  0.85420107  0.84400492  1
  H+  H241  1  0.75887124  0.87584175  0.84203529  1
  H+  H242  1  0.13461655  0.34125818  0.85352366  1
  H+  H243  1  0.41132812  0.84610340  0.23074068  1
  H+  H244  1  0.11295151  0.98473969  0.82247274  1
  H+  H245  1  0.35791923  0.13115717  0.82072660  1
  H+  H246  1  0.58897290  0.45437543  0.67062162  1
  H+  H247  1  0.11729586  0.90029548  0.81814485  1
  H+  H248  1  1.02813025  0.88102516  0.32852422  1
  H+  H249  1  0.51993344  0.88962375  0.67624627  1
  H+  H250  1  0.57372782  0.41563909  0.43791835  1
  H+  H251  1  0.75558644  0.88034671  0.65939439  1
  H+  H252  1  0.46705450  0.86572924  0.50734898  1
  H+  H253  1  0.91440187  0.83215556  0.93315661  1
  H+  H254  1  0.37956262  0.01889733  0.50289726  1
  H+  H255  1  0.64970215  0.62942649  -0.01389426  1
  H+  H256  1  0.23775643  0.36807440  0.31859408  1
  H+  H257  1  0.36563346  0.22415132  0.48928164  1
  H+  H258  1  0.12125941  0.89491306  0.48362563  1
  H+  H259  1  0.40350119  0.62343261  0.49416634  1
  H+  H260  1  0.52181681  0.59525578  0.17346328  1
  H+  H261  1  0.79288973  0.24732073  0.79268462  1
  H+  H262  1  0.47108301  0.85294558  0.32445178  1
  H+  H263  1  0.52978404  0.41799130  0.99346930  1
  H+  H264  1  0.90402134  0.87333518  0.49228385  1
  H+  H265  1  0.84685568  0.96437136  0.83727407  1
  H+  H266  1  0.38257126  0.81240595  0.81652658  1
  H+  H267  1  0.01268187  0.16035281  0.33571668  1
  H+  H268  1  0.66252557  0.30899188  0.28917752  1
  H+  H269  1  0.53678315  0.79660485  0.51389104  1
  H+  H270  1  0.89301265  0.99248918  0.47414936  1
  H+  H271  1  0.05237765  0.20770668  0.70973499  1
  H+  H272  1  0.58291356  0.65166927  0.74520278  1
  H+  H273  1  0.86574236  0.89362669  0.17273468  1
  H+  H274  1  0.95686143  0.73836735  0.71522254  1
  H+  H275  1  0.36091011  0.99306019  0.17600226  1
  H+  H276  1  0.39355151  0.60852830  0.31848005  1
  H+  H277  1  0.60548972  0.16449273  0.16807094  1
  H+  H278  1  0.17455528  0.46862933  0.85448532  1
  H+  H279  1  0.24445076  0.86058845  0.98209265  1
  H+  H280  1  0.62989706  0.52215663  0.50768556  1
  H+  H281  1  0.50457022  0.36186174  0.67802303  1
  H+  H282  1  0.96112429  0.67567461  0.29777941  1
  H+  H283  1  0.14917474  0.68387468  1.06605393  1
  H+  H284  1  0.01742272  0.38144107  0.65381587  1
  H+  H285  1  0.36651242  0.72212465  0.32926999  1
  H+  H286  1  0.56786857  0.15036972  0.76596168  1
  H+  H287  1  0.51649559  0.38321280  0.49864314  1
  H+  H288  1  0.90392371  0.07820607  0.93954766  1
  H+  H289  1  0.63561856  0.85551621  0.31745055  1
  H+  H290  1  0.40687122  0.31988441  0.26580375  1
  H+  H291  1  0.41360981  0.10457887  0.25270704  1
  H+  H292  1  0.07744052  0.14557691  0.77706024  1
  H+  H293  1  0.96965276  0.12686780  0.17411504  1
  H+  H294  1  0.11984711  0.47949544  0.16755686  1
  H+  H295  1  0.91370399  0.58790873  0.25973745  1
  H+  H296  1  0.66225964  0.38332008  0.25341029  1
  H+  H297  1  0.37444467  0.69080678  0.74658767  1
  H+  H298  1  0.58171108  0.41107458  0.76828200  1
  H+  H299  1  0.81058584  0.38377347  0.41760574  1
  H+  H300  1  0.63682781  0.61578482  0.50761262  1
  H+  H301  1  0.79584238  0.66115895  0.09693060  1
  H+  H302  1  0.56991879  0.91947172  0.07313325  1
  H+  H303  1  0.36382259  0.73041265  0.48882400  1
  H+  H304  1  0.16786520  0.07813914  0.90462336  1
  H+  H305  1  0.09603168  0.42398493  0.42093219  1
  H+  H306  1  0.37249117  0.38407249  0.33696974  1
  H+  H307  1  0.13982887  0.28800419  0.31574656  1
  H+  H308  1  0.80948114  0.38680443  0.71955438  1
  H+  H309  1  0.85987257  0.96860882  0.00594154  1
  H+  H310  1  0.08737840  0.93195509  0.72481474  1
  H+  H311  1  0.65539544  0.32256866  0.56052154  1
  H+  H312  1  0.68120534  0.59061382  0.92663556  1
  H+  H313  1  0.81643712  0.40794081  0.06626784  1
  H+  H314  1  0.60056286  0.91441776  0.38857231  1
  H+  H315  1  0.39756444  0.28035798  0.85284747  1
  H+  H316  1  0.34978847  0.41959598  0.43106681  1
  H+  H317  1  0.30746096  0.13638458  0.11397848  1
  H+  H318  1  0.61108482  0.29862258  0.14766366  1
  H+  H319  1  0.90845085  0.81756124  0.22876594  1
  H+  H320  1  0.64902895  0.31289912  0.89941521  1
  H+  H321  1  0.57842420  0.92270177  0.77459498  1
  H+  H322  1  0.09027296  0.91211161  0.38560950  1
  H+  H323  1  0.56345018  0.14765175  0.41511778  1
  H+  H324  1  0.81995628  0.18628716  0.75859947  1
  H+  H325  1  0.85930788  0.93014352  0.41446220  1
  H+  H326  1  0.56513470  0.17478956  0.10699805  1
  H+  H327  1  0.87914129  0.77161101  0.32654376  1
  H+  H328  1  0.91868940  0.08991479  0.58979530  1
  H+  H329  1  0.65459886  0.08243786  0.94127601  1
  H+  H330  1  0.36034196  0.33080131  0.67453283  1
  H+  H331  1  0.34019050  0.66587608  0.39003623  1
  H+  H332  1  0.46457626  0.39134279  0.92888234  1
  H+  H333  1  0.10965481  0.43213780  0.10025212  1
  H+  H334  1  0.53646081  0.64235114  -0.00426578  1
  H+  H335  1  0.38276815  0.87002731  0.65601951  1
  H+  H336  1  0.09915776  0.63068482  0.14755081  1
  H+  H337  1  0.33587812  0.17453876  0.02093779  1
  H+  H338  1  0.16547599  0.83808385  0.55807020  1
  H+  H339  1  0.81308360  0.15856918  0.10833303  1
  H+  H340  1  0.81974702  0.66016157  0.40119086  1
  H+  H341  1  0.96721303  0.99998734  0.72917430  1
  H+  H342  1  0.16004766  0.62242004  0.97677521  1
  H+  H343  1  0.61146870  0.66199804  0.08895568  1
  H+  H344  1  0.85352059  0.67629105  0.78016092  1
  H+  H345  1  0.06954845  0.89875682  0.09575485  1
  H+  H346  1  0.66264297  0.81890109  0.26006634  1
  H+  H347  1  0.18399267  0.59465879  0.84640280  1
  H+  H348  1  0.19202178  0.34288101  0.94778264  1
  H+  H349  1  0.16942733  0.57469753  0.55478333  1
  H+  H350  1  0.41226624  0.83944953  0.56790371  1
  H+  H351  1  0.89708726  0.79036858  0.65288398  1
  H+  H352  1  0.73323031  0.86601618  0.55595110  1
  H+  H353  1  0.90162590  0.38638765  0.31943284  1
  H+  H354  1  0.96321725  0.30054039  0.94354887  1
  H+  H355  1  0.61788319  0.10475233  0.84364448  1
  H+  H356  1  0.79434635  0.13632913  0.40241620  1
  H+  H357  1  0.16174409  0.57940223  0.24054252  1
  H+  H358  1  0.36697858  0.43596775  0.06451935  1
  H+  H359  1  0.92202274  0.84032961  0.58889612  1
  H+  H360  1  0.18651406  0.35028833  0.22470960  1
  H+  H361  1  0.59558124  0.67809867  0.40302893  1
  H+  H362  1  0.90715920  0.09224362  0.26704492  1
  H+  H363  1  0.63664753  0.76818321  0.70199457  1
  H+  H364  1  0.16179652  0.81649390  0.21211978  1
  H+  H365  1  0.75417479  0.39459348  0.14914209  1
  H+  H366  1  0.97944164  0.65757382  0.96673587  1
  H+  H367  1  0.97290389  0.56095923  0.19550987  1
  H+  H368  1  0.07128161  0.49007089  0.79850298  1
  H+  H369  1  0.32317407  0.39839515  0.77527887  1
  H+  H370  1  0.90372669  0.34305225  0.22564915  1
  H+  H371  1  0.65437610  0.83429683  0.93823117  1
  H+  H372  1  0.40097124  0.31626281  0.56881931  1
  H+  H373  1  0.08188964  0.65849588  0.39981223  1
  H+  H374  1  0.18213511  0.39786288  1.00097365  1
  H+  H375  1  0.06124548  0.40963595  0.71714786  1
  H+  H376  1  0.17942839  0.34931841  0.55582192  1
  H+  H377  1  0.66459603  0.07709370  0.60029135  1
  H+  H378  1  0.35294182  0.37342012  0.15576523  1
  H+  H379  1  0.40951301  0.07692738  0.60273832  1
  H+  H380  1  0.92709488  0.96520066  0.74363978  1
  H+  H381  1  0.13445577  0.87079525  0.65247371  1
  H+  H382  1  0.93192130  0.61685243  0.57999505  1
  H+  H383  1  0.45455246  0.57379250  0.22879613  1
  O2-  O384  1  0.07165739  0.17103144  0.14106419  1
  O2-  O385  1  0.09201121  0.17896613  0.47322870  1
  O2-  O386  1  0.07881857  0.15017173  0.82178724  1
  O2-  O387  1  0.10409312  0.42276914  0.14659075  1
  O2-  O388  1  0.09666629  0.42649766  0.46740378  1
  O2-  O389  1  0.02871024  0.43437236  0.78171690  1
  O2-  O390  1  0.08494837  0.59714572  0.18690021  1
  O2-  O391  1  0.08865282  0.66970411  0.47712724  1
  O2-  O392  1  0.10858901  0.70987266  0.80486595  1
  O2-  O393  1  0.06972317  0.89945043  0.14098456  1
  O2-  O394  1  0.09196576  0.92571239  0.46757643  1
  O2-  O395  1  0.08192042  0.92587028  0.80422890  1
  O2-  O396  1  0.31010022  0.14729943  0.15864318  1
  O2-  O397  1  0.33919017  0.16496008  0.47197558  1
  O2-  O398  1  0.33698509  0.17278322  0.81480896  1
  O2-  O399  1  0.34557752  0.41956201  0.13652316  1
  O2-  O400  1  0.35100024  0.42307823  0.47655497  1
  O2-  O401  1  0.32945739  0.40690140  0.82062590  1
  O2-  O402  1  0.33010572  0.67036501  0.17654833  1
  O2-  O403  1  0.33997508  0.67146421  0.47192965  1
  O2-  O404  1  0.36184975  0.68832516  0.79009417  1
  O2-  O405  1  0.33989761  0.93898999  0.15290613  1
  O2-  O406  1  0.33164014  0.92073530  0.47168068  1
  O2-  O407  1  0.34989137  0.97585540  0.80499176  1
  O2-  O408  1  0.57047569  0.18908085  0.15167225  1
  O2-  O409  1  0.56938681  0.14991144  0.48572624  1
  O2-  O410  1  0.55983288  0.14458044  0.81140077  1
  O2-  O411  1  0.61397528  0.39382608  0.19216475  1
  O2-  O412  1  0.57698472  0.41566889  0.48305589  1
  O2-  O413  1  0.58719296  0.41715284  0.81348837  1
  O2-  O414  1  0.62497252  0.66243601  0.13287686  1
  O2-  O415  1  0.60257074  0.68043894  0.47807479  1
  O2-  O416  1  0.57982596  0.65737357  0.82133118  1
  O2-  O417  1  0.56903696  0.93763187  0.15069718  1
  O2-  O418  1  0.66782091  0.96084169  0.45334860  1
  O2-  O419  1  0.57873386  0.91778611  0.81984354  1
  O2-  O420  1  0.81207810  0.16287663  0.15338600  1
  O2-  O421  1  0.80611369  0.20297426  0.46135245  1
  O2-  O422  1  0.80982795  0.20299034  0.80006402  1
  O2-  O423  1  0.81610180  0.41848394  0.14136160  1
  O2-  O424  1  0.79955641  0.34973336  0.45560298  1
  O2-  O425  1  0.78255313  0.34039126  0.79339599  1
  O2-  O426  1  0.77379410  0.65986503  0.13870989  1
  O2-  O427  1  0.82535168  0.66812690  0.47786806  1
  O2-  O428  1  0.84352712  0.67504515  0.82468523  1
  O2-  O429  1  0.83888643  0.93008926  0.17156423  1
  O2-  O430  1  0.86590795  0.93186031  0.46008423  1
  O2-  O431  1  0.81744583  0.90377594  0.82402936  1
  O2-  O432  1  0.13297519  0.07175717  0.17224109  1
  O2-  O433  1  0.17303581  0.09149113  0.50838932  1
  O2-  O434  1  0.16973160  0.08308362  0.85871257  1
  O2-  O435  1  0.18449326  0.35150419  0.17848945  1
  O2-  O436  1  0.18181593  0.34717406  0.51076023  1
  O2-  O437  1  0.16519754  0.31195457  0.86646372  1
  O2-  O438  1  0.15048733  0.57235150  0.19377892  1
  O2-  O439  1  0.17052308  0.58221413  0.51087507  1
  O2-  O440  1  0.17993727  0.61471394  0.80597888  1
  O2-  O441  1  0.16637517  0.82810277  0.16760296  1
  O2-  O442  1  0.16790873  0.83899980  0.51248498  1
  O2-  O443  1  0.18930027  0.86889339  0.84254284  1
  O2-  O444  1  0.41329045  0.09846804  0.20787890  1
  O2-  O445  1  0.41102714  0.07814203  0.52115489  1
  O2-  O446  1  0.39147104  0.05396894  0.84258002  1
  O2-  O447  1  0.34144004  0.29139915  0.20345328  1
  O2-  O448  1  0.41107039  0.32492719  0.52450809  1
  O2-  O449  1  0.42697083  0.34283786  0.86217216  1
  O2-  O450  1  0.46233432  0.55783400  0.18727190  1
  O2-  O451  1  0.43906916  0.59943101  0.50929158  1
  O2-  O452  1  0.41151339  0.57920005  0.84903142  1
  O2-  O453  1  0.41515050  0.85527601  0.18585828  1
  O2-  O454  1  0.40778052  0.83500600  0.52156723  1
  O2-  O455  1  0.40909591  0.87052942  0.83316871  1
  O2-  O456  1  0.65099762  0.10301300  0.19212179  1
  O2-  O457  1  0.66795128  0.08539992  0.52278614  1
  O2-  O458  1  0.65502662  0.08282152  0.86146552  1
  O2-  O459  1  0.64074313  0.36283784  0.14111778  1
  O2-  O460  1  0.65276623  0.31941608  0.51496254  1
  O2-  O461  1  0.64374267  0.30938385  0.85365208  1
  O2-  O462  1  0.67557647  0.50504627  0.19456438  1
  O2-  O463  1  0.66304956  0.58192848  0.52443364  1
  O2-  O464  1  0.67476559  0.58155726  0.85610071  1
  O2-  O465  1  0.65940236  0.80887680  0.18095914  1
  O2-  O466  1  0.71263105  0.85311415  0.51326133  1
  O2-  O467  1  0.64952580  0.82462680  0.85930022  1
  O2-  O468  1  0.91019542  0.09765580  0.19149165  1
  O2-  O469  1  0.93263994  0.09561143  0.50921636  1
  O2-  O470  1  0.91363431  0.07875926  0.85963913  1
  O2-  O471  1  0.88848686  0.33649878  0.18145162  1
  O2-  O472  1  0.93162049  0.34536535  0.51242813  1
  O2-  O473  1  0.93219006  0.31691584  0.87217361  1
  O2-  O474  1  0.91834900  0.56080800  0.19972991  1
  O2-  O475  1  0.95003700  0.65363975  0.54244490  1
  O2-  O476  1  0.96594368  0.64917059  0.87658914  1
  O2-  O477  1  0.90534432  0.81821323  0.18346058  1
  O2-  O478  1  0.92586549  0.83730607  0.51174276  1
  O2-  O479  1  0.91632332  0.83794891  0.85428320  1
  O2-  O480  1  0.19541170  0.09230184  0.32060809  1
  O2-  O481  1  0.17903473  0.10328692  0.63739163  1
  O2-  O482  1  0.15414699  0.06735962  0.97951914  1
  O2-  O483  1  0.18119950  0.34731910  0.29828786  1
  O2-  O484  1  0.16985322  0.33790601  0.63634393  1
  O2-  O485  1  0.21150611  0.36612086  0.98888347  1
  O2-  O486  1  0.17557767  0.58568005  0.30898388  1
  O2-  O487  1  0.17154687  0.58195258  0.68106216  1
  O2-  O488  1  0.17707473  0.61265533  1.01664444  1
  O2-  O489  1  0.16101731  0.81544755  0.29498880  1
  O2-  O490  1  0.15943160  0.83686466  0.63482554  1
  O2-  O491  1  0.18549056  0.84029246  0.96607252  1
  O2-  O492  1  0.39849858  0.10555644  0.33442407  1
  O2-  O493  1  0.40770418  0.07220715  0.64764052  1
  O2-  O494  1  0.41011402  0.06330612  0.99758910  1
  O2-  O495  1  0.42757091  0.32926042  0.30896936  1
  O2-  O496  1  0.38907558  0.29919320  0.65607333  1
  O2-  O497  1  0.48835176  0.43126323  0.96505262  1
  O2-  O498  1  0.42649306  0.57880609  0.30868564  1
  O2-  O499  1  0.41454049  0.55105423  0.67070482  1
  O2-  O500  1  0.43423979  0.60450346  0.97314298  1
  O2-  O501  1  0.41171175  0.82320372  0.30804533  1
  O2-  O502  1  0.41998716  0.84277015  0.64115548  1
  O2-  O503  1  0.39828857  0.85649659  0.98556101  1
  O2-  O504  1  0.63881459  0.06742873  0.31115343  1
  O2-  O505  1  0.66692290  0.08015318  0.64575111  1
  O2-  O506  1  0.65755008  0.08347238  0.98664741  1
  O2-  O507  1  0.67923671  0.36915873  0.29408788  1
  O2-  O508  1  0.65445703  0.32133604  0.63855496  1
  O2-  O509  1  0.65321965  0.31649639  0.97561925  1
  O2-  O510  1  0.65547437  0.58221951  0.32378147  1
  O2-  O511  1  0.65101676  0.56631041  0.64566154  1
  O2-  O512  1  0.68366821  0.59925579  0.97290997  1
  O2-  O513  1  0.66739573  0.82510466  0.30520140  1
  O2-  O514  1  0.66803499  0.83233045  0.70785953  1
  O2-  O515  1  0.65842603  0.83329361  0.98349504  1
  O2-  O516  1  0.90679715  0.08271688  0.31225451  1
  O2-  O517  1  0.90807385  0.07931210  0.63433708  1
  O2-  O518  1  0.90555562  0.07653628  0.98455716  1
  O2-  O519  1  0.92551950  0.35249568  0.30169521  1
  O2-  O520  1  0.91199727  0.33088060  0.63454957  1
  O2-  O521  1  0.97408258  0.29862625  0.98784040  1
  O2-  O522  1  0.92100404  0.61464442  0.30450725  1
  O2-  O523  1  0.91581463  0.57707759  0.65201741  1
  O2-  O524  1  0.95999837  0.64538754  1.00912320  1
  O2-  O525  1  0.91566190  0.82806026  0.30717982  1
  O2-  O526  1  0.91899633  0.84729572  0.63406730  1
  O2-  O527  1  0.91405862  0.82968223  0.97846803  1
  O2-  O528  1  0.07587910  0.14965681  0.01666248  1
  O2-  O529  1  0.07144168  0.20414390  0.34846065  1
  O2-  O530  1  0.05986551  0.16254639  0.69120302  1
  O2-  O531  1  0.11843119  0.44359002  0.03123002  1
  O2-  O532  1  0.09544446  0.42237601  0.34837926  1
  O2-  O533  1  0.07601974  0.40922870  0.67318850  1
  O2-  O534  1  0.10750242  0.69347340  0.08898448  1
  O2-  O535  1  0.08336720  0.65370090  0.35453928  1
  O2-  O536  1  0.08178979  0.67241885  0.68513315  1
  O2-  O537  1  0.07802120  0.90226435  0.01641754  1
  O2-  O538  1  0.08903385  0.90500520  0.34074560  1
  O2-  O539  1  0.09067999  0.93391571  0.67925662  1
  O2-  O540  1  0.29988393  0.11703495  0.03787158  1
  O2-  O541  1  0.37478766  0.16890258  0.35358149  1
  O2-  O542  1  0.34533135  0.21450034  0.68670858  1
  O2-  O543  1  0.37233015  0.44472050  0.01872293  1
  O2-  O544  1  0.34268832  0.41455225  0.35179510  1
  O2-  O545  1  0.32232091  0.39060357  0.69903341  1
  O2-  O546  1  0.33970581  0.68110085  0.01042601  1
  O2-  O547  1  0.33759466  0.66097328  0.34496192  1
  O2-  O548  1  0.34020024  0.66034850  0.65516441  1
  O2-  O549  1  0.35169267  0.88518931  0.00993993  1
  O2-  O550  1  0.32799416  0.89836681  0.34469892  1
  O2-  O551  1  0.33242360  0.90920843  0.67534259  1
  O2-  O552  1  0.56825998  0.16285377  0.03094368  1
  O2-  O553  1  0.56044792  0.15084650  0.36856627  1
  O2-  O554  1  0.57973127  0.15878003  0.68994644  1
  O2-  O555  1  0.59028845  0.40718102  0.02544796  1
  O2-  O556  1  0.58195441  0.42470550  0.35604043  1
  O2-  O557  1  0.56639667  0.39655056  0.68892943  1
  O2-  O558  1  0.59811177  0.66924165  0.00959980  1
  O2-  O559  1  0.59137581  0.67058861  0.35730819  1
  O2-  O560  1  0.58357420  0.65908751  0.69988210  1
  O2-  O561  1  0.57167123  0.91566050  0.02785763  1
  O2-  O562  1  0.58148801  0.90386298  0.34529819  1
  O2-  O563  1  0.57822879  0.92092608  0.69557794  1
  O2-  O564  1  0.81801445  0.15213407  0.02930967  1
  O2-  O565  1  0.77674090  0.08586202  0.37492776  1
  O2-  O566  1  0.83084380  0.16819424  0.68255101  1
  O2-  O567  1  0.81332067  0.39678082  0.02108068  1
  O2-  O568  1  0.83769813  0.43681014  0.34745004  1
  O2-  O569  1  0.82254831  0.40597164  0.67650788  1
  O2-  O570  1  0.82915089  0.67307874  0.02141476  1
  O2-  O571  1  0.81309499  0.65915752  0.35577064  1
  O2-  O572  1  0.89667308  0.70156173  0.70393635  1
  O2-  O573  1  0.83296186  0.90643697  0.01551780  1
  O2-  O574  1  0.84047362  0.91912397  0.34025171  1
  O2-  O575  1  0.80109401  0.90619248  0.62749811  1
