# generated using pymatgen
data_H2O
_symmetry_space_group_name_H-M   'P 1'
_cell_length_a   17.98446552
_cell_length_b   17.98729184
_cell_length_c   21.99790635
_cell_angle_alpha   90.02450570
_cell_angle_beta   89.99272081
_cell_angle_gamma   120.02028387
_symmetry_Int_Tables_number   1
_chemical_formula_structural   H2O
_chemical_formula_sum   'H384 O192'
_cell_volume   6161.49998851
_cell_formula_units_Z   192
loop_
 _symmetry_equiv_pos_site_id
 _symmetry_equiv_pos_as_xyz
  1  'x, y, z'
loop_
 _atom_type_symbol
 _atom_type_oxidation_number
  H+  1.0
  O2-  -2.0
loop_
 _atom_site_type_symbol
 _atom_site_label
 _atom_site_symmetry_multiplicity
 _atom_site_fract_x
 _atom_site_fract_y
 _atom_site_fract_z
 _atom_site_occupancy
  H+  H0  1  0.14261642  0.11909298  0.99862112  1
  H+  H1  1  0.89483855  0.03329358  0.84523279  1
  H+  H2  1  -0.02163803  0.61484529  0.84832268  1
  H+  H3  1  0.89941369  1.03382416  0.30141923  1
  H+  H4  1  0.41339669  0.07666312  0.26175186  1
  H+  H5  1  0.28274598  0.89102520  0.49035086  1
  H+  H6  1  1.02855109  0.12334803  1.01047430  1
  H+  H7  1  0.75764776  0.88511822  0.52228794  1
  H+  H8  1  0.27944456  0.63693352  1.00705734  1
  H+  H9  1  0.02769496  0.14168745  0.49563288  1
  H+  H10  1  0.27589065  0.13959590  0.00554783  1
  H+  H11  1  0.23281823  0.12278781  0.50824004  1
  H+  H12  1  0.96937651  0.81033885  0.27312926  1
  H+  H13  1  0.37393794  0.36149717  0.65596393  1
  H+  H14  1  0.03748452  0.89906028  0.34919375  1
  H+  H15  1  0.12226177  0.89198752  0.15371268  1
  H+  H16  1  0.11918202  0.64214203  0.83418948  1
  H+  H17  1  0.11538886  0.47540328  0.68795766  1
  H+  H18  1  0.83567919  0.58959528  0.67976492  1
  H+  H19  1  0.48545336  0.86983394  0.63998725  1
  H+  H20  1  0.62354530  0.28372503  0.84236147  1
  H+  H21  1  0.61200582  0.64414622  0.00442856  1
  H+  H22  1  0.15043556  0.86899318  0.51093862  1
  H+  H23  1  0.28812543  0.39431942  0.82388333  1
  H+  H24  1  0.04232168  0.26254380  0.28054575  1
  H+  H25  1  0.39362540  0.52454981  0.83825384  1
  H+  H26  1  0.37856592  0.00070358  1.01231199  1
  H+  H27  1  0.36503594  0.63095540  0.82675128  1
  H+  H28  1  0.15744146  0.90581251  0.99364908  1
  H+  H29  1  0.88662736  0.60612845  0.84712329  1
  H+  H30  1  1.01961958  0.64459783  0.17131656  1
  H+  H31  1  -0.01403785  0.37765769  0.50842506  1
  H+  H32  1  0.11902185  0.97855255  0.15450546  1
  H+  H33  1  0.76695445  0.62704382  0.83456498  1
  H+  H34  1  0.23860865  0.61787960  0.67623403  1
  H+  H35  1  0.36355940  0.98185926  0.11557006  1
  H+  H36  1  0.88063017  0.05179963  0.66431810  1
  H+  H37  1  0.87834793  0.48828990  0.66358922  1
  H+  H38  1  0.63866024  0.27298077  0.17416719  1
  H+  H39  1  0.87542314  0.38935904  0.66470319  1
  H+  H40  1  0.38779189  0.36216526  0.99459405  1
  H+  H41  1  0.61052586  0.01576831  0.16581926  1
  H+  H42  1  0.61074785  0.47905599  0.33448430  1
  H+  H43  1  -0.00853768  0.35133293  0.84817664  1
  H+  H44  1  0.24019795  0.87799177  0.18026928  1
  H+  H45  1  0.60087071  0.88934689  -0.00130576  1
  H+  H46  1  0.98487470  0.61854027  0.50609741  1
  H+  H47  1  0.65103190  0.37329426  0.66459977  1
  H+  H48  1  0.36809165  0.14136868  0.33404599  1
  H+  H49  1  0.39042543  0.89079015  0.66317476  1
  H+  H50  1  0.09762270  0.38604974  0.33154649  1
  H+  H51  1  0.26724224  0.88003946  0.83086446  1
  H+  H52  1  0.88355371  0.52722962  0.17530089  1
  H+  H53  1  0.36473099  0.48067877  1.00500304  1
  H+  H54  1  0.11426588  0.98534775  0.00675571  1
  H+  H55  1  0.37443159  0.84700701  0.84674181  1
  H+  H56  1  0.37361723  0.72842303  0.66767274  1
  H+  H57  1  0.14597601  0.07048267  0.59999698  1
  H+  H58  1  0.38522630  0.51992348  0.50364981  1
  H+  H59  1  0.90023955  0.27727071  0.17099874  1
  H+  H60  1  0.62503316  0.73041084  0.15921671  1
  H+  H61  1  0.45981013  0.85181448  0.17663237  1
  H+  H62  1  0.85434164  0.71112397  0.33073855  1
  H+  H63  1  0.36515981  0.14067122  0.48672429  1
  H+  H64  1  0.11574411  0.22642948  0.15994162  1
  H+  H65  1  0.50557510  0.40062464  1.03293105  1
  H+  H66  1  0.10741726  0.24698951  -0.00778294  1
  H+  H67  1  0.62146108  0.01263080  0.65270584  1
  H+  H68  1  0.87098782  0.39299865  0.16142866  1
  H+  H69  1  0.36373244  0.39007383  0.48825024  1
  H+  H70  1  0.11800210  0.64096506  0.68791090  1
  H+  H71  1  0.37256272  0.63875535  0.67103467  1
  H+  H72  1  0.15132658  0.51735834  0.99059025  1
  H+  H73  1  0.83031918  0.90888810  0.57008415  1
  H+  H74  1  0.37379931  0.49753493  0.34366860  1
  H+  H75  1  1.02531789  0.38900885  0.67945697  1
  H+  H76  1  0.63601557  1.03704141  -0.01321698  1
  H+  H77  1  0.98593561  0.11811494  0.84333066  1
  H+  H78  1  0.64982153  0.86884939  0.32378317  1
  H+  H79  1  0.33723707  0.41952533  0.10472370  1
  H+  H80  1  0.25536817  0.12953896  0.67190213  1
  H+  H81  1  0.23075983  0.11650207  0.84236237  1
  H+  H82  1  0.64798378  0.28520545  0.65556219  1
  H+  H83  1  0.02979819  0.38997242  0.16197993  1
  H+  H84  1  0.53002650  0.30797034  0.71010241  1
  H+  H85  1  0.89370550  0.53121564  0.50671780  1
  H+  H86  1  0.93649353  0.07892630  0.93388767  1
  H+  H87  1  0.14071328  0.02709574  0.84586156  1
  H+  H88  1  0.08944815  0.16693557  0.07079299  1
  H+  H89  1  1.01073286  0.96843816  0.63426712  1
  H+  H90  1  1.02285142  0.88783349  0.82970560  1
  H+  H91  1  0.61516916  0.14439858  0.01190501  1
  H+  H92  1  0.36900124  0.75526169  0.84866700  1
  H+  H93  1  0.85996748  0.47072784  1.00679830  1
  H+  H94  1  0.65501600  0.57936182  0.26546506  1
  H+  H95  1  0.29927912  0.73830011  0.30240949  1
  H+  H96  1  0.26885797  0.91433532  1.00201903  1
  H+  H97  1  0.87164060  0.76209968  0.68469350  1
  H+  H98  1  0.11769629  0.48080102  0.16425037  1
  H+  H99  1  0.78553877  0.15407148  0.49035677  1
  H+  H100  1  0.13405999  0.77937973  0.32777328  1
  H+  H101  1  0.88984987  0.02242840  0.99388074  1
  H+  H102  1  0.50090595  0.38136550  0.83929200  1
  H+  H103  1  0.13078026  0.61301187  0.17905352  1
  H+  H104  1  0.62237923  0.76375520  0.51181780  1
  H+  H105  1  0.10888101  0.92908388  0.43688861  1
  H+  H106  1  0.12178114  0.14106026  0.83098786  1
  H+  H107  1  0.61452414  0.23356972  1.01289149  1
  H+  H108  1  0.17251999  0.32910851  0.89627205  1
  H+  H109  1  0.72209409  0.62415398  1.00263584  1
  H+  H110  1  0.36135329  0.89845959  0.01626243  1
  H+  H111  1  0.14595659  0.11958867  0.32554501  1
  H+  H112  1  0.39161406  0.02833559  0.49934062  1
  H+  H113  1  0.13823277  0.74005715  0.00049421  1
  H+  H114  1  0.14346701  0.36774095  0.16801129  1
  H+  H115  1  0.86393022  0.92778102  0.67117392  1
  H+  H116  1  0.78443153  0.36407146  0.84017965  1
  H+  H117  1  0.77441398  0.14854007  1.01297156  1
  H+  H118  1  0.88524139  0.27350672  0.32891819  1
  H+  H119  1  0.84565190  0.17955175  0.10392613  1
  H+  H120  1  0.87416947  0.88559715  0.28900254  1
  H+  H121  1  0.35083450  0.62653746  0.16446819  1
  H+  H122  1  0.87322554  0.14035143  0.15759248  1
  H+  H123  1  0.47593924  0.11100547  0.31955264  1
  H+  H124  1  0.65331993  0.82612124  0.92847270  1
  H+  H125  1  0.64125965  0.56015446  0.56949309  1
  H+  H126  1  0.11686897  0.14146600  0.49637656  1
  H+  H127  1  0.39554636  0.77611997  0.48946778  1
  H+  H128  1  0.62840918  0.52131104  0.16237813  1
  H+  H129  1  0.61612207  0.62433277  0.83472174  1
  H+  H130  1  0.86536100  0.23301658  1.01102635  1
  H+  H131  1  0.25061151  0.62529661  0.47221382  1
  H+  H132  1  0.17022593  0.08473447  0.22927127  1
  H+  H133  1  0.37640915  0.11638798  0.65462185  1
  H+  H134  1  0.34118155  0.22082407  0.66615844  1
  H+  H135  1  0.17435000  0.87324497  0.66751350  1
  H+  H136  1  0.63447139  0.89461610  0.65712734  1
  H+  H137  1  0.52755228  0.89767153  0.48819528  1
  H+  H138  1  0.37723377  0.63942683  0.48558117  1
  H+  H139  1  0.52550675  0.15297946  0.66070987  1
  H+  H140  1  0.88815782  1.00368993  0.15465625  1
  H+  H141  1  0.72997014  0.37291860  0.50251436  1
  H+  H142  1  0.27713984  0.39132349  0.00747045  1
  H+  H143  1  0.62558860  0.51370354  0.85031245  1
  H+  H144  1  0.88442848  0.28304545  0.66220131  1
  H+  H145  1  0.39103567  0.11601201  1.00100105  1
  H+  H146  1  0.86204655  0.15967108  0.66790222  1
  H+  H147  1  0.87541331  0.12942880  0.33986239  1
  H+  H148  1  0.64578971  0.03738383  0.49807939  1
  H+  H149  1  0.71593108  0.60949178  0.32440820  1
  H+  H150  1  0.70308716  0.55998225  0.66387503  1
  H+  H151  1  0.63532687  0.12367680  0.32082156  1
  H+  H152  1  0.47903924  0.36897057  0.31867999  1
  H+  H153  1  0.87894025  0.77335425  0.23973674  1
  H+  H154  1  0.86176613  0.74310043  0.65299101  1
  H+  H155  1  0.65894189  0.01091618  0.84655260  1
  H+  H156  1  0.37373968  0.51990139  0.18617334  1
  H+  H157  1  0.11777385  0.13764657  0.16071803  1
  H+  H158  1  0.03687954  0.53355795  0.06555285  1
  H+  H159  1  0.36085879  0.23137805  0.83107500  1
  H+  H160  1  0.52626154  0.14416743  0.48904672  1
  H+  H161  1  0.25542623  0.86174266  0.66262354  1
  H+  H162  1  0.36658936  0.38484089  0.16077808  1
  H+  H163  1  0.12050584  0.47486904  0.83067153  1
  H+  H164  1  0.36475958  -0.02957716  0.33312560  1
  H+  H165  1  0.61333436  0.60412179  0.50747203  1
  H+  H166  1  0.78139784  0.96909103  0.05179014  1
  H+  H167  1  0.72606159  0.36529780  0.33048723  1
  H+  H168  1  0.14822886  0.03211399  0.32576863  1
  H+  H169  1  0.14550982  0.37138325  0.65714204  1
  H+  H170  1  0.22992555  0.36971470  0.49798362  1
  H+  H171  1  0.84321359  0.83621772  0.14189126  1
  H+  H172  1  0.37453374  0.39104460  0.82401346  1
  H+  H173  1  0.38992727  0.28205972  0.31862761  1
  H+  H174  1  0.72723445  0.13648798  0.30378447  1
  H+  H175  1  0.51680033  0.62704867  0.49507114  1
  H+  H176  1  0.35718062  0.13120078  0.15495212  1
  H+  H177  1  0.91713809  0.83373268  0.89426154  1
  H+  H178  1  0.10800721  0.09317285  0.66338277  1
  H+  H179  1  0.87791627  0.73840881  0.48625175  1
  H+  H180  1  0.62957452  0.53810562  1.01137285  1
  H+  H181  1  0.10492606  0.37566714  1.00886493  1
  H+  H182  1  0.27640230  0.39585285  0.66744294  1
  H+  H183  1  0.14074760  0.28046087  0.50177839  1
  H+  H184  1  0.78180935  0.39485274  0.66575203  1
  H+  H185  1  0.12302222  0.89280679  0.34044038  1
  H+  H186  1  0.33629401  0.30319415  0.88092013  1
  H+  H187  1  -0.02887036  0.09605268  0.15776729  1
  H+  H188  1  0.64612431  0.15734846  0.84463911  1
  H+  H189  1  0.61278407  0.89362274  0.49471920  1
  H+  H190  1  0.11843409  0.39216058  0.48870539  1
  H+  H191  1  0.41566592  0.57990956  0.56434336  1
  H+  H192  1  0.37924514  0.77682514  1.00551366  1
  H+  H193  1  0.12407311  0.48371446  0.48216123  1
  H+  H194  1  0.36656600  0.22880407  0.00675682  1
  H+  H195  1  -0.01647893  0.87231990  -0.00822420  1
  H+  H196  1  0.85350815  0.73782952  0.01093358  1
  H+  H197  1  0.65082431  0.98804813  0.87669057  1
  H+  H198  1  0.83637008  0.42245261  0.43590981  1
  H+  H199  1  0.86599942  0.19825673  0.81887185  1
  H+  H200  1  0.22683866  0.60926481  0.83800749  1
  H+  H201  1  0.61994829  0.80852300  0.68394844  1
  H+  H202  1  0.15310350  0.36873821  0.83852753  1
  H+  H203  1  0.74067965  0.89398397  1.00368976  1
  H+  H204  1  0.10765977  0.22089810  0.33749869  1
  H+  H205  1  0.06274430  0.87219194  0.68390089  1
  H+  H206  1  0.76597100  0.90828455  0.67665433  1
  H+  H207  1  0.66123242  0.57566888  0.90931906  1
  H+  H208  1  0.60736525  0.60063076  0.67375598  1
  H+  H209  1  0.51514461  0.89422980  0.00481080  1
  H+  H210  1  0.88608171  0.86285206  0.83597155  1
  H+  H211  1  0.38566707  0.27364505  0.50054844  1
  H+  H212  1  0.62771546  0.98575333  0.33474793  1
  H+  H213  1  0.17779202  0.35050277  0.59487121  1
  H+  H214  1  0.64034388  0.75811382  0.83925278  1
  H+  H215  1  0.63378292  0.69714967  0.67080749  1
  H+  H216  1  0.60690073  0.88648745  0.15662898  1
  H+  H217  1  0.64391269  0.12610166  0.49448600  1
  H+  H218  1  0.73126147  0.36651620  0.99968659  1
  H+  H219  1  0.86006003  0.38702267  0.34206628  1
  H+  H220  1  0.14814658  0.03157581  0.50712294  1
  H+  H221  1  0.86178652  0.47741586  0.34231492  1
  H+  H222  1  0.48183036  0.61298426  0.84120529  1
  H+  H223  1  0.86756842  0.39600714  0.49647755  1
  H+  H224  1  -0.01709684  0.61584347  0.66239249  1
  H+  H225  1  0.62264608  0.77107696  0.99080887  1
  H+  H226  1  0.22707815  0.86690779  0.32912843  1
  H+  H227  1  0.17471450  0.84178027  0.23506366  1
  H+  H228  1  0.23110122  0.36350190  0.17335280  1
  H+  H229  1  0.98382569  0.11302666  0.32956543  1
  H+  H230  1  0.87453713  0.64920219  0.49075087  1
  H+  H231  1  0.62060495  0.83349536  0.83224339  1
  H+  H232  1  0.12549698  0.97258301  0.67549221  1
  H+  H233  1  0.77089910  0.88549667  0.82998818  1
  H+  H234  1  0.38380744  1.02255289  0.82803495  1
  H+  H235  1  0.78734355  0.88701013  0.29859313  1
  H+  H236  1  0.61139517  0.23062248  0.33502174  1
  H+  H237  1  0.59145341  0.38186899  0.83940828  1
  H+  H238  1  1.04206558  0.89967847  0.49065837  1
  H+  H239  1  0.12175640  0.73267188  0.49315520  1
  H+  H240  1  0.90032729  0.88083597  0.98778509  1
  H+  H241  1  0.51505245  0.14244857  0.81570744  1
  H+  H242  1  0.02183186  0.13814172  0.67893454  1
  H+  H243  1  -0.01725054  0.37306112  0.00175576  1
  H+  H244  1  0.12502765  0.64683363  0.48064856  1
  H+  H245  1  0.61438655  0.50570364  0.50317695  1
  H+  H246  1  0.94278242  0.87187247  0.65359291  1
  H+  H247  1  0.11394462  0.71736437  0.97231957  1
  H+  H248  1  0.51469295  0.38891928  0.13541018  1
  H+  H249  1  0.58977563  0.12315295  0.16051856  1
  H+  H250  1  0.13683962  0.86631996  0.84647047  1
  H+  H251  1  0.89354639  0.12685830  0.50857358  1
  H+  H252  1  0.37285640  0.40803965  0.33640169  1
  H+  H253  1  0.49221137  0.83958509  0.82268604  1
  H+  H254  1  0.88073836  0.61543521  0.17910986  1
  H+  H255  1  0.77899728  0.38711125  0.16294669  1
  H+  H256  1  0.61492745  0.15264271  0.65880030  1
  H+  H257  1  0.97158217  0.36519465  0.33004445  1
  H+  H258  1  -0.02746264  0.58430805  0.00071414  1
  H+  H259  1  0.76662192  0.14804462  0.81830000  1
  H+  H260  1  0.22804862  0.11488920  0.16915657  1
  H+  H261  1  0.89885135  0.87946311  0.49388893  1
  H+  H262  1  0.52019295  0.63870963  0.00650705  1
  H+  H263  1  0.89788587  0.28856533  0.50849745  1
  H+  H264  1  0.60723261  0.48129244  0.65560624  1
  H+  H265  1  0.47287654  0.10604658  0.16276731  1
  H+  H266  1  0.38834927  0.52259034  0.65939074  1
  H+  H267  1  0.61169964  0.38963693  0.49136893  1
  H+  H268  1  0.64238637  0.77638912  0.32581039  1
  H+  H269  1  0.16562130  0.58700808  0.23709574  1
  H+  H270  1  0.60646193  0.63673272  0.34315694  1
  H+  H271  1  0.14018060  0.53814261  0.32745928  1
  H+  H272  1  0.11356555  0.73079715  0.16579587  1
  H+  H273  1  0.37437702  0.76192772  0.17028498  1
  H+  H274  1  0.48240665  0.11909798  0.00373425  1
  H+  H275  1  0.73126644  0.86466085  0.17021330  1
  H+  H276  1  0.45514168  0.34896144  0.66198984  1
  H+  H277  1  0.63341008  0.61310452  0.16858698  1
  H+  H278  1  0.01633951  0.64348554  0.33847487  1
  H+  H279  1  0.85514578  0.33402718  0.83690453  1
  H+  H280  1  0.39140958  0.27289753  0.16638241  1
  H+  H281  1  0.33221832  0.16762996  0.09692310  1
  H+  H282  1  0.42197310  0.96410556  0.71241514  1
  H+  H283  1  0.89042601  0.36806872  -0.00282467  1
  H+  H284  1  0.48015543  0.60798561  0.65851246  1
  H+  H285  1  0.88369377  0.03385620  0.52001086  1
  H+  H286  1  0.75767836  0.63188129  0.16675123  1
  H+  H287  1  0.38643809  0.61446821  0.99516370  1
  H+  H288  1  0.87551314  0.60671417  0.33093445  1
  H+  H289  1  0.09411343  0.41937749  0.07060166  1
  H+  H290  1  0.58148693  0.16968724  0.39336136  1
  H+  H291  1  0.14092615  0.59681989  0.99875559  1
  H+  H292  1  0.51761277  0.38253315  0.49155991  1
  H+  H293  1  0.42667406  0.33723160  0.22355352  1
  H+  H294  1  0.73283900  0.13790517  0.64910815  1
  H+  H295  1  0.28059569  0.14336665  0.33375014  1
  H+  H296  1  0.12556200  0.23162343  0.82528765  1
  H+  H297  1  0.09224473  0.16972275  0.40094776  1
  H+  H298  1  0.83021074  0.92726117  0.77229403  1
  H+  H299  1  0.20449708  0.60900753  0.53370488  1
  H+  H300  1  0.55614523  0.38935088  0.75090704  1
  H+  H301  1  0.37702068  0.80174627  0.25958380  1
  H+  H302  1  0.32389289  0.89563265  0.77097345  1
  H+  H303  1  0.08170595  0.41942262  0.39524974  1
  H+  H304  1  0.36724736  0.66483714  0.41816696  1
  H+  H305  1  0.56695955  0.16419409  0.10256879  1
  H+  H306  1  0.67165779  0.34481784  0.56177857  1
  H+  H307  1  0.16491069  0.57858812  0.62669273  1
  H+  H308  1  0.33818189  0.42112606  0.72794554  1
  H+  H309  1  0.08806444  0.92100722  0.06484344  1
  H+  H310  1  0.58233468  0.66052629  0.43682041  1
  H+  H311  1  0.13548921  0.31681938  0.25474221  1
  H+  H312  1  0.91860650  0.57085939  0.93923688  1
  H+  H313  1  0.92790672  0.58770060  0.59903427  1
  H+  H314  1  0.82215042  0.17714180  0.72807830  1
  H+  H315  1  0.38899657  0.03432884  0.65260286  1
  H+  H316  1  0.41835241  0.82848557  0.58525351  1
  H+  H317  1  0.79931060  0.61135151  0.73960419  1
  H+  H318  1  0.64531514  0.07924929  0.22255065  1
  H+  H319  1  0.52271414  0.64767288  0.34841876  1
  H+  H320  1  0.33990355  0.42686024  0.42846955  1
  H+  H321  1  0.67746550  0.10759840  0.58570796  1
  H+  H322  1  0.92084675  0.10729016  0.60375288  1
  H+  H323  1  0.82654592  0.88918310  0.08862975  1
  H+  H324  1  0.61460365  0.23444732  0.48885511  1
  H+  H325  1  0.17062789  0.08925269  0.93741593  1
  H+  H326  1  0.26409263  0.63074873  0.15906697  1
  H+  H327  1  0.67589340  0.11629011  0.93755823  1
  H+  H328  1  0.32776682  0.17365723  0.76858696  1
  H+  H329  1  0.40090875  0.82927254  0.94409787  1
  H+  H330  1  0.13295192  0.62248877  0.32573946  1
  H+  H331  1  0.85202381  0.93517629  0.39262447  1
  H+  H332  1  0.82211036  0.68423031  0.07253372  1
  H+  H333  1  0.34940364  0.87282118  0.33378360  1
  H+  H334  1  0.07353690  0.62872286  0.08616634  1
  H+  H335  1  0.38912289  0.86294483  0.49474234  1
  H+  H336  1  0.08911458  0.41054391  0.77345666  1
  H+  H337  1  0.66987700  0.83677156  0.22829410  1
  H+  H338  1  0.13916515  0.77752486  0.85097613  1
  H+  H339  1  0.12402465  0.73107892  0.67923088  1
  H+  H340  1  0.64458393  0.36963543  1.00563773  1
  H+  H341  1  0.93966254  0.87056779  0.55255667  1
  H+  H342  1  0.92271939  0.33770938  0.23032123  1
  H+  H343  1  0.05474921  0.27140831  0.94749926  1
  H+  H344  1  0.42341736  0.33409518  0.93797361  1
  H+  H345  1  0.82840679  0.66551666  0.39704398  1
  H+  H346  1  0.78127073  0.10287343  0.36382543  1
  H+  H347  1  0.33320022  0.66240073  0.06938463  1
  H+  H348  1  0.18426645  0.83699025  0.56755440  1
  H+  H349  1  0.40110721  0.58457863  0.24340161  1
  H+  H350  1  0.08301826  0.15554350  0.73719710  1
  H+  H351  1  0.33848250  0.66487269  0.76764813  1
  H+  H352  1  0.59263419  0.67235232  0.09989964  1
  H+  H353  1  0.33489156  0.17118865  0.42805321  1
  H+  H354  1  0.58406508  0.18287035  0.76121960  1
  H+  H355  1  0.85371530  0.94722406  0.42562519  1
  H+  H356  1  0.38191028  0.11142213  0.82731794  1
  H+  H357  1  0.92403694  0.34473272  0.60217613  1
  H+  H358  1  0.67269398  0.33202282  0.23235832  1
  H+  H359  1  0.73875973  0.22738804  0.85766127  1
  H+  H360  1  0.41106118  0.33088453  0.56122424  1
  H+  H361  1  0.57297976  0.91278024  0.09796648  1
  H+  H362  1  0.60277614  0.93108803  0.39576146  1
  H+  H363  1  0.58057763  0.41903194  0.39361089  1
  H+  H364  1  0.65466702  0.33856494  0.90389374  1
  H+  H365  1  0.58006912  0.95022124  0.71124967  1
  H+  H366  1  0.39596097  0.69808106  0.32047530  1
  H+  H367  1  0.41633155  0.08951596  0.55799197  1
  H+  H368  1  0.90972174  0.58160883  0.27145045  1
  H+  H369  1  0.59008030  0.65028254  0.77132935  1
  H+  H370  1  0.19332003  0.87316961  0.93377718  1
  H+  H371  1  0.63731814  0.36631378  0.32595734  1
  H+  H372  1  0.58076802  0.92016858  0.81138574  1
  H+  H373  1  0.85400644  0.71559042  0.82334570  1
  H+  H374  1  0.09496077  0.92123296  0.77686637  1
  H+  H375  1  0.85178544  0.18033898  0.43547765  1
  H+  H376  1  0.63893161  0.82059876  0.57226425  1
  H+  H377  1  0.08867453  0.67617408  0.77778887  1
  H+  H378  1  0.83037986  0.41271198  0.06800496  1
  H+  H379  1  0.16985201  0.58117746  0.89851858  1
  H+  H380  1  0.07879308  0.67580873  0.39669394  1
  H+  H381  1  0.33831988  0.91952203  0.42871038  1
  H+  H382  1  0.41547627  0.58376910  0.93488501  1
  H+  H383  1  0.93100292  0.32309937  0.90731293  1
  O2-  O384  1  0.08658997  0.16641900  0.14422497  1
  O2-  O385  1  0.08756074  0.17163774  0.47949194  1
  O2-  O386  1  0.09168528  0.17007677  0.81310948  1
  O2-  O387  1  0.09113217  0.42123410  0.14678285  1
  O2-  O388  1  0.08632481  0.42155377  0.47413136  1
  O2-  O389  1  0.09534673  0.41313081  0.81874459  1
  O2-  O390  1  0.07960174  0.66870162  0.15563026  1
  O2-  O391  1  0.08868732  0.67363891  0.47542102  1
  O2-  O392  1  0.09171232  0.67689467  0.82291213  1
  O2-  O393  1  0.09208974  0.92014347  0.13613351  1
  O2-  O394  1  0.10495094  0.92705077  0.48230899  1
  O2-  O395  1  0.08662445  0.91939118  0.82143455  1
  O2-  O396  1  0.33175173  0.16722977  0.14280181  1
  O2-  O397  1  0.33406058  0.17111610  0.47381168  1
  O2-  O398  1  0.33025457  0.16976432  0.81322900  1
  O2-  O399  1  0.33352961  0.41406559  0.14955919  1
  O2-  O400  1  0.33527423  0.42260324  0.47509842  1
  O2-  O401  1  0.34780169  0.42490451  0.80687941  1
  O2-  O402  1  0.32384836  0.65767022  0.14298298  1
  O2-  O403  1  0.35463021  0.67151421  0.46179080  1
  O2-  O404  1  0.33163437  0.65882496  0.81253867  1
  O2-  O405  1  0.36409107  0.98132487  0.16050694  1
  O2-  O406  1  0.34276809  0.92218677  0.47436582  1
  O2-  O407  1  0.32772892  0.90315899  0.81521981  1
  O2-  O408  1  0.55858163  0.15653641  0.14786033  1
  O2-  O409  1  0.58662259  0.17439883  0.47325153  1
  O2-  O410  1  0.57816884  0.18225207  0.80577227  1
  O2-  O411  1  0.56999773  0.42129378  0.11141638  1
  O2-  O412  1  0.57904665  0.41828320  0.47706440  1
  O2-  O413  1  0.55955714  0.41063727  0.82139735  1
  O2-  O414  1  0.59911983  0.67029377  0.14448463  1
  O2-  O415  1  0.57986386  0.65621079  0.48342991  1
  O2-  O416  1  0.58800937  0.65578109  0.81595086  1
  O2-  O417  1  0.57011249  0.91026024  0.14313227  1
  O2-  O418  1  0.59034697  0.93017434  0.47877452  1
  O2-  O419  1  0.54626114  0.86055295  0.79783156  1
  O2-  O420  1  0.85657368  0.18423209  0.14885149  1
  O2-  O421  1  0.84841042  0.18457031  0.48069388  1
  O2-  O422  1  0.81722074  0.15391660  0.79545073  1
  O2-  O423  1  0.83988782  0.42304412  0.14762920  1
  O2-  O424  1  0.83590859  0.42493212  0.48167379  1
  O2-  O425  1  0.79833648  0.32331210  0.82152560  1
  O2-  O426  1  0.82104687  0.66964333  0.15538555  1
  O2-  O427  1  0.84519347  0.67818913  0.47286686  1
  O2-  O428  1  0.82345537  0.65358493  0.81315327  1
  O2-  O429  1  0.83799022  0.88779156  0.13226028  1
  O2-  O430  1  0.82137505  0.92025904  0.52824760  1
  O2-  O431  1  0.83208564  0.91806122  0.81650506  1
  O2-  O432  1  0.16719020  0.08345357  0.18395763  1
  O2-  O433  1  0.17258701  0.09085965  0.52423233  1
  O2-  O434  1  0.17079314  0.08800155  0.85965528  1
  O2-  O435  1  0.16842216  0.33301376  0.18456603  1
  O2-  O436  1  0.16963779  0.34217076  0.51396670  1
  O2-  O437  1  0.18490418  0.33860399  0.85211250  1
  O2-  O438  1  0.16146056  0.58212201  0.19123053  1
  O2-  O439  1  0.19080843  0.59943254  0.49063972  1
  O2-  O440  1  0.16626121  0.58122025  0.85300179  1
  O2-  O441  1  0.17897849  0.84072880  0.18972732  1
  O2-  O442  1  0.17976459  0.83618410  0.52250714  1
  O2-  O443  1  0.17141214  0.84041123  0.86178815  1
  O2-  O444  1  0.40510510  0.07299219  0.17825853  1
  O2-  O445  1  0.42012962  0.08978559  0.51280470  1
  O2-  O446  1  0.41838675  0.08501885  0.83383876  1
  O2-  O447  1  0.42458734  0.33506481  0.17790922  1
  O2-  O448  1  0.41713639  0.33443395  0.51605045  1
  O2-  O449  1  0.39294253  0.32101223  0.86407495  1
  O2-  O450  1  0.39186095  0.57924350  0.19859322  1
  O2-  O451  1  0.41768590  0.58141578  0.51898133  1
  O2-  O452  1  0.42066090  0.58474991  0.85478144  1
  O2-  O453  1  0.39921885  0.81948528  0.19002578  1
  O2-  O454  1  0.42034557  0.83334158  0.50993420  1
  O2-  O455  1  0.40223145  0.81566428  0.86418910  1
  O2-  O456  1  0.63603210  0.07711336  0.17822517  1
  O2-  O457  1  0.67759086  0.09944489  0.51034623  1
  O2-  O458  1  0.69831334  0.16456288  0.86600657  1
  O2-  O459  1  0.67811459  0.33232496  0.18746758  1
  O2-  O460  1  0.66848577  0.34288606  0.51668684  1
  O2-  O461  1  0.64971815  0.34294927  0.85932365  1
  O2-  O462  1  0.65772558  0.57589572  0.18519470  1
  O2-  O463  1  0.63993958  0.56631258  0.52375882  1
  O2-  O464  1  0.66217769  0.57466346  0.86365218  1
  O2-  O465  1  0.67048691  0.84004402  0.18277459  1
  O2-  O466  1  0.64744738  0.82356297  0.52772003  1
  O2-  O467  1  0.66266956  0.81978015  0.85098215  1
  O2-  O468  1  0.90822189  0.06472750  0.16262127  1
  O2-  O469  1  0.92251265  0.09651510  0.52635618  1
  O2-  O470  1  0.92843022  0.09133308  0.86273193  1
  O2-  O471  1  0.92801569  0.34051616  0.18548411  1
  O2-  O472  1  0.92621211  0.34826469  0.52546284  1
  O2-  O473  1  0.93185061  0.31315994  0.86270107  1
  O2-  O474  1  0.91263333  0.58675965  0.19306660  1
  O2-  O475  1  0.92580100  0.59081400  0.52372591  1
  O2-  O476  1  0.91871943  0.57882002  0.86276269  1
  O2-  O477  1  0.84047289  0.75365752  0.18054220  1
  O2-  O478  1  0.93544023  0.85688416  0.50873357  1
  O2-  O479  1  0.91708750  0.83223073  0.84890564  1
  O2-  O480  1  0.17707457  0.09090126  0.30832525  1
  O2-  O481  1  0.12477974  0.05055647  0.64235978  1
  O2-  O482  1  0.17198992  0.08745657  0.98289336  1
  O2-  O483  1  0.10136042  0.30019888  0.29408596  1
  O2-  O484  1  0.18422556  0.35275181  0.63976964  1
  O2-  O485  1  0.11117482  0.29742214  0.96681377  1
  O2-  O486  1  0.16840601  0.59767434  0.31159259  1
  O2-  O487  1  0.17382323  0.58663382  0.67034953  1
  O2-  O488  1  0.17683580  0.57815763  0.97610032  1
  O2-  O489  1  0.16639387  0.84088976  0.31350294  1
  O2-  O490  1  0.19538139  0.83614915  0.64947183  1
  O2-  O491  1  0.20745754  0.90184879  0.97461957  1
  O2-  O492  1  0.41429437  0.07802176  0.30693862  1
  O2-  O493  1  0.41326625  0.09384400  0.63794156  1
  O2-  O494  1  0.42101167  0.08374586  0.99033490  1
  O2-  O495  1  0.41958768  0.34128853  0.30163788  1
  O2-  O496  1  0.39925771  0.32535255  0.64100098  1
  O2-  O497  1  0.42299615  0.33530187  0.98428400  1
  O2-  O498  1  0.42435303  0.60469180  0.32166301  1
  O2-  O499  1  0.42036035  0.58419715  0.64398408  1
  O2-  O500  1  0.41422426  0.58119672  0.98026547  1
  O2-  O501  1  0.35796894  0.78687844  0.30413257  1
  O2-  O502  1  0.42334239  0.83140631  0.63121174  1
  O2-  O503  1  0.40343174  0.83664849  0.98913179  1
  O2-  O504  1  0.66604036  0.09429826  0.30342668  1
  O2-  O505  1  0.67253151  0.10724324  0.63147139  1
  O2-  O506  1  0.66726585  0.10033689  0.98162177  1
  O2-  O507  1  0.66648832  0.33366134  0.31365526  1
  O2-  O508  1  0.68226429  0.34820942  0.64410009  1
  O2-  O509  1  0.66848262  0.33787133  0.98570142  1
  O2-  O510  1  0.65455042  0.58034024  0.31090947  1
  O2-  O511  1  0.64417299  0.54122151  0.64299954  1
  O2-  O512  1  0.66138702  0.58930646  0.98523999  1
  O2-  O513  1  0.67277474  0.83318879  0.30550927  1
  O2-  O514  1  0.65565613  0.85191845  0.65404393  1
  O2-  O515  1  0.64905992  0.83121006  0.97343027  1
  O2-  O516  1  0.92757414  0.09660650  0.31076452  1
  O2-  O517  1  0.91782838  0.11124408  0.64908321  1
  O2-  O518  1  0.94471301  0.06877885  0.97796563  1
  O2-  O519  1  0.91089796  0.33303647  0.31427232  1
  O2-  O520  1  0.92039253  0.34573854  0.64790532  1
  O2-  O521  1  0.92457754  0.34099162  0.98329349  1
  O2-  O522  1  0.91112434  0.58081947  0.31695715  1
  O2-  O523  1  0.92415744  0.58025746  0.64477820  1
  O2-  O524  1  0.91445278  0.56378473  0.98459111  1
  O2-  O525  1  0.91097260  0.79671940  0.28247190  1
  O2-  O526  1  0.95010643  0.92034050  0.62890007  1
  O2-  O527  1  0.92330943  0.84439546  0.97496673  1
  O2-  O528  1  0.09036469  0.16512502  0.02478866  1
  O2-  O529  1  0.09198735  0.16422190  0.35568950  1
  O2-  O530  1  0.07792119  0.14569386  0.69217502  1
  O2-  O531  1  0.09145367  0.41950416  0.02485467  1
  O2-  O532  1  0.07703135  0.42295317  0.35017592  1
  O2-  O533  1  0.08439054  0.41280267  0.69618158  1
  O2-  O534  1  0.06272751  0.59154562  0.04927145  1
  O2-  O535  1  0.07818575  0.67710227  0.35134593  1
  O2-  O536  1  0.08638812  0.67229638  0.69575133  1
  O2-  O537  1  0.08649909  0.92280988  0.01815691  1
  O2-  O538  1  0.09855755  0.92804091  0.35915888  1
  O2-  O539  1  0.11833583  0.91911063  0.69703563  1
  O2-  O540  1  0.33612125  0.16819732  0.02180490  1
  O2-  O541  1  0.34079837  0.17391982  0.35002030  1
  O2-  O542  1  0.31662418  0.16100901  0.68271463  1
  O2-  O543  1  0.33668877  0.41964177  0.02088899  1
  O2-  O544  1  0.34510881  0.43614433  0.35759770  1
  O2-  O545  1  0.33874819  0.42321781  0.68244514  1
  O2-  O546  1  0.33920614  0.66901395  0.02349133  1
  O2-  O547  1  0.37631275  0.64589331  0.34533895  1
  O2-  O548  1  0.34336943  0.67034205  0.68660947  1
  O2-  O549  1  0.33728270  0.93573832  0.02937784  1
  O2-  O550  1  0.33043448  0.91209148  0.35169887  1
  O2-  O551  1  0.37275721  0.92875031  0.68627940  1
  O2-  O552  1  0.58310678  0.17310548  0.02792703  1
  O2-  O553  1  0.58080685  0.16850267  0.34800887  1
  O2-  O554  1  0.58599759  0.18370697  0.67531499  1
  O2-  O555  1  0.54475760  0.45258828  0.05792754  1
  O2-  O556  1  0.58233382  0.41742152  0.34866995  1
  O2-  O557  1  0.55347479  0.36989462  0.70638628  1
  O2-  O558  1  0.58143311  0.67475116  0.01910835  1
  O2-  O559  1  0.58391339  0.67079176  0.36396495  1
  O2-  O560  1  0.58930767  0.64288483  0.68768329  1
  O2-  O561  1  0.57743337  0.92495520  0.01555617  1
  O2-  O562  1  0.60891581  0.92813873  0.35134234  1
  O2-  O563  1  0.58715844  0.94959690  0.66718645  1
  O2-  O564  1  0.83413137  0.17408517  0.02785781  1
  O2-  O565  1  0.83796998  0.15368162  0.35883671  1
  O2-  O566  1  0.82782937  0.18708391  0.68134819  1
  O2-  O567  1  0.82743502  0.40836507  0.02263839  1
  O2-  O568  1  0.83089259  0.41738833  0.35912114  1
  O2-  O569  1  0.84471216  0.42442764  0.67830988  1
  O2-  O570  1  0.81550498  0.68026834  0.02790467  1
  O2-  O571  1  0.82031206  0.65465874  0.35195460  1
  O2-  O572  1  0.78263542  0.58014033  0.69989914  1
  O2-  O573  1  0.79603354  0.93425089  0.02591710  1
  O2-  O574  1  0.85047648  0.92383068  0.29447307  1
  O2-  O575  1  0.82592966  0.94511185  0.69136280  1
