# generated using pymatgen
data_H2O
_symmetry_space_group_name_H-M   'P 1'
_cell_length_a   17.99813765
_cell_length_b   17.99639286
_cell_length_c   22.00804343
_cell_angle_alpha   89.98539959
_cell_angle_beta   90.00572160
_cell_angle_gamma   119.98925334
_symmetry_Int_Tables_number   1
_chemical_formula_structural   H2O
_chemical_formula_sum   'H384 O192'
_cell_volume   6174.07791460
_cell_formula_units_Z   192
loop_
 _symmetry_equiv_pos_site_id
 _symmetry_equiv_pos_as_xyz
  1  'x, y, z'
loop_
 _atom_type_symbol
 _atom_type_oxidation_number
  H+  1.0
  O2-  -2.0
loop_
 _atom_site_type_symbol
 _atom_site_label
 _atom_site_symmetry_multiplicity
 _atom_site_fract_x
 _atom_site_fract_y
 _atom_site_fract_z
 _atom_site_occupancy
  H+  H0  1  0.21998196  0.85100222  0.84034539  1
  H+  H1  1  0.52544302  0.39097842  0.16393501  1
  H+  H2  1  0.72917077  0.11038143  0.50144332  1
  H+  H3  1  0.43890534  0.83303809  1.02808399  1
  H+  H4  1  0.70490306  0.63350187  0.50661998  1
  H+  H5  1  0.63404083  0.62102151  0.85233066  1
  H+  H6  1  0.64234511  0.52438750  0.32739132  1
  H+  H7  1  0.13190920  0.85526510  0.83678769  1
  H+  H8  1  0.16938075  0.57414825  0.23314820  1
  H+  H9  1  0.11381234  0.22853983  0.01029383  1
  H+  H10  1  0.35176745  0.72003296  1.00210353  1
  H+  H11  1  0.89341555  0.34274630  0.52108067  1
  H+  H12  1  0.24626645  0.11020520  0.49334755  1
  H+  H13  1  0.39491254  1.01638350  0.16812335  1
  H+  H14  1  0.07273646  0.15067086  0.69465210  1
  H+  H15  1  0.85623845  0.95376766  0.48952378  1
  H+  H16  1  0.13544566  0.60083131  -0.01989496  1
  H+  H17  1  0.86468353  0.13521594  0.16060177  1
  H+  H18  1  0.50202889  0.37320628  0.00980303  1
  H+  H19  1  0.01519798  0.14284182  0.87099275  1
  H+  H20  1  0.97503195  0.11181767  0.17251403  1
  H+  H21  1  0.86705885  0.74412136  0.82783594  1
  H+  H22  1  0.16973718  0.08491703  0.23926646  1
  H+  H23  1  0.86196301  0.38861233  1.00331953  1
  H+  H24  1  0.14418705  0.60707909  0.32943634  1
  H+  H25  1  0.13438322  0.51851610  0.66615542  1
  H+  H26  1  0.89243749  0.77431742  0.99919427  1
  H+  H27  1  0.36441081  0.38934217  0.82801844  1
  H+  H28  1  0.36002754  0.39171932  0.48688394  1
  H+  H29  1  0.02628571  0.88377457  0.01706464  1
  H+  H30  1  0.11151603  0.14093570  0.16426128  1
  H+  H31  1  0.37799842  0.52803550  0.50733600  1
  H+  H32  1  0.72365784  0.62326674  0.85405856  1
  H+  H33  1  0.72798692  0.85044375  0.84769801  1
  H+  H34  1  0.39078280  0.37639364  0.17867378  1
  H+  H35  1  0.42116754  0.29742688  0.84517099  1
  H+  H36  1  0.81817536  0.14898233  0.42125590  1
  H+  H37  1  0.73286011  0.11955007  -0.00090880  1
  H+  H38  1  0.25857770  0.88513526  0.47550012  1
  H+  H39  1  0.62211303  -0.01305182  0.49804345  1
  H+  H40  1  0.65040340  0.36927293  0.32688149  1
  H+  H41  1  0.61806142  0.14084356  0.32734152  1
  H+  H42  1  0.33925513  0.67268072  0.39398058  1
  H+  H43  1  0.11193737  0.47145333  0.34002944  1
  H+  H44  1  0.11280854  0.63111855  0.67233688  1
  H+  H45  1  0.72793341  0.10595259  0.16568575  1
  H+  H46  1  0.85558232  0.63435955  0.15978638  1
  H+  H47  1  0.61706042  0.72396461  0.34255618  1
  H+  H48  1  0.11975163  0.46451496  0.49919045  1
  H+  H49  1  0.13909530  0.59648621  0.84116504  1
  H+  H50  1  0.59977589  0.62643645  0.49419526  1
  H+  H51  1  0.10945554  0.71478969  0.16778331  1
  H+  H52  1  0.46853168  0.61369131  0.50414349  1
  H+  H53  1  0.87615927  0.10873514  0.84605433  1
  H+  H54  1  0.13593407  0.03617832  0.17459072  1
  H+  H55  1  0.87834119  0.01937056  0.84505515  1
  H+  H56  1  0.86708323  0.97567764  0.01102366  1
  H+  H57  1  -0.02443746  0.10995000  0.31991259  1
  H+  H58  1  0.60399597  0.37466104  0.00764446  1
  H+  H59  1  0.53728878  0.88875605  -0.01195017  1
  H+  H60  1  0.10288308  -0.03180050  0.83930364  1
  H+  H61  1  0.36784778  0.93057149  0.39232124  1
  H+  H62  1  0.61414406  0.49938344  0.48645905  1
  H+  H63  1  0.88129988  0.74819270  0.50578340  1
  H+  H64  1  0.14616098  0.85497066  0.16399319  1
  H+  H65  1  0.11261088  0.38734097  0.15457299  1
  H+  H66  1  0.88873904  1.01747098  0.32687377  1
  H+  H67  1  0.71930091  0.85053834  0.50223032  1
  H+  H68  1  0.39494983  0.53293729  0.32118455  1
  H+  H69  1  0.96532445  0.84049893  0.50829424  1
  H+  H70  1  0.42012223  0.33447239  0.55086370  1
  H+  H71  1  0.92302525  0.33759335  0.61096635  1
  H+  H72  1  0.40872790  -0.00562199  0.33526513  1
  H+  H73  1  0.50407998  0.95216940  0.36889175  1
  H+  H74  1  0.51894471  0.63442156  0.83228569  1
  H+  H75  1  0.26332312  0.62643387  -0.00088399  1
  H+  H76  1  0.71440312  0.60084907  0.64851612  1
  H+  H77  1  0.23593780  0.85725986  0.15927954  1
  H+  H78  1  0.47286491  0.61285353  0.01435058  1
  H+  H79  1  0.26952222  0.63153163  0.15578356  1
  H+  H80  1  0.50018837  0.17184665  -0.00787409  1
  H+  H81  1  0.27690916  0.38792273  1.01279533  1
  H+  H82  1  0.67304592  0.59701154  0.94544454  1
  H+  H83  1  0.14596191  0.76563387  0.49938654  1
  H+  H84  1  0.86597356  0.72302159  0.33882390  1
  H+  H85  1  0.63860811  0.36314672  0.17208005  1
  H+  H86  1  0.61352760  0.72850477  0.01346737  1
  H+  H87  1  0.38606892  0.61423454  0.83646373  1
  H+  H88  1  0.23199713  0.60639929  0.32638616  1
  H+  H89  1  0.02363584  0.38617009  0.68362839  1
  H+  H90  1  0.39122951  0.28192333  0.48903323  1
  H+  H91  1  0.15931869  0.11365275  0.50182816  1
  H+  H92  1  0.72448810  0.61443107  0.17226568  1
  H+  H93  1  0.48567804  0.12164527  0.31803689  1
  H+  H94  1  0.76760364  0.12930623  0.32468692  1
  H+  H95  1  0.09462650  -0.01812205  0.68041817  1
  H+  H96  1  0.83216232  0.41362665  0.09471837  1
  H+  H97  1  0.11480628  0.47710068  -0.00369486  1
  H+  H98  1  0.98406614  0.86371848  0.84554178  1
  H+  H99  1  0.13845811  0.37004134  0.32397565  1
  H+  H100  1  0.15096967  0.10047686  0.32448951  1
  H+  H101  1  0.85710967  0.70809525  0.66693871  1
  H+  H102  1  0.73064696  0.85960529  -0.00383743  1
  H+  H103  1  0.35358822  0.48796953  0.67966418  1
  H+  H104  1  1.05316622  0.63178082  0.50114036  1
  H+  H105  1  0.12345128  0.35532555  0.65838997  1
  H+  H106  1  0.36548519  0.48075760  0.02009667  1
  H+  H107  1  0.53555087  0.40336671  0.82964212  1
  H+  H108  1  1.01818981  0.63084748  0.82509995  1
  H+  H109  1  0.22816865  0.36576691  0.17012789  1
  H+  H110  1  0.50970662  0.62497857  0.68385470  1
  H+  H111  1  0.88046203  0.45761431  0.49577972  1
  H+  H112  1  0.63762145  0.76206068  0.84737847  1
  H+  H113  1  0.26891542  0.39645928  0.67653395  1
  H+  H114  1  0.84733778  0.11497450  0.47828887  1
  H+  H115  1  0.89297883  0.60703944  0.65213782  1
  H+  H116  1  0.32953553  0.42357240  0.42940717  1
  H+  H117  1  0.02490334  0.63302526  -0.01120191  1
  H+  H118  1  0.90845747  0.82845633  0.23490609  1
  H+  H119  1  0.63740636  0.01696120  0.16010495  1
  H+  H120  1  0.09579341  0.16129730  0.27464995  1
  H+  H121  1  0.59923985  0.71805755  0.49134571  1
  H+  H122  1  1.00814773  0.89328440  0.68384295  1
  H+  H123  1  0.12609590  -0.01824354  0.32286506  1
  H+  H124  1  0.88138501  0.86241933  0.17536187  1
  H+  H125  1  0.46495671  0.02653165  0.90832701  1
  H+  H126  1  0.39097583  0.27147627  0.64453558  1
  H+  H127  1  0.77569330  0.88110581  0.33572236  1
  H+  H128  1  0.26842929  0.15221022  0.15978647  1
  H+  H129  1  0.38576720  0.15001878  0.47642622  1
  H+  H130  1  0.11446056  0.77790015  0.66647351  1
  H+  H131  1  0.91120475  0.60003219  0.50108909  1
  H+  H132  1  0.86805213  0.23313244  0.83092162  1
  H+  H133  1  0.66462866  0.34280964  0.93631465  1
  H+  H134  1  0.97732939  0.11267811  0.99760371  1
  H+  H135  1  0.61675150  0.14538233  0.68403785  1
  H+  H136  1  0.21919268  0.35703155  0.49981164  1
  H+  H137  1  0.87625344  0.60964243  0.83667321  1
  H+  H138  1  0.88151751  0.52546278  0.98955322  1
  H+  H139  1  0.26861457  0.11973092  0.32577116  1
  H+  H140  1  0.62137746  0.14744423  0.00876157  1
  H+  H141  1  0.77269611  0.39047042  0.00419327  1
  H+  H142  1  0.62201725  0.23142661  0.33394019  1
  H+  H143  1  0.59164487  0.22905241  0.84125377  1
  H+  H144  1  0.73791874  0.36542607  0.32467836  1
  H+  H145  1  0.61177804  0.63770362  0.16810625  1
  H+  H146  1  0.36677641  0.88200598  0.14389436  1
  H+  H147  1  0.86643719  0.39513849  0.67921953  1
  H+  H148  1  0.36504032  0.86918404  -0.00256476  1
  H+  H149  1  0.37615756  0.17107171  0.00541110  1
  H+  H150  1  0.85298224  0.86229330  0.49179823  1
  H+  H151  1  0.61508311  0.47815618  0.15919775  1
  H+  H152  1  0.85947839  0.47457437  0.83046138  1
  H+  H153  1  0.11562937  -0.01998154  0.48517339  1
  H+  H154  1  0.63825669  0.28157707  0.69039880  1
  H+  H155  1  0.12881703  0.35597798  0.49979077  1
  H+  H156  1  0.48006863  0.77257742  0.55818452  1
  H+  H157  1  0.63851160  0.36721377  0.84151196  1
  H+  H158  1  0.72933354  0.10916809  0.84493953  1
  H+  H159  1  0.07928989  0.14955048  0.55268101  1
  H+  H160  1  0.28299732  0.15531713  0.83592908  1
  H+  H161  1  0.33466426  0.41573240  0.10425322  1
  H+  H162  1  0.87248923  0.51072533  0.16494085  1
  H+  H163  1  0.62138483  0.13730228  0.15824613  1
  H+  H164  1  0.86802660  0.48367732  0.67597393  1
  H+  H165  1  0.88293008  0.28956375  0.67573290  1
  H+  H166  1  0.03016714  0.95205471  0.45169249  1
  H+  H167  1  0.83585078  0.90862597  0.77292176  1
  H+  H168  1  0.42962526  0.11539701  0.94503096  1
  H+  H169  1  0.37030760  0.64003703  0.33603597  1
  H+  H170  1  0.39059938  0.13214934  0.67120169  1
  H+  H171  1  0.88985915  0.27771876  0.99505395  1
  H+  H172  1  0.11241658  0.13896519  0.01520049  1
  H+  H173  1  0.98010124  0.86125325  0.32166861  1
  H+  H174  1  0.87113854  0.88917856  0.83402404  1
  H+  H175  1  0.55109016  0.91253155  0.66271879  1
  H+  H176  1  0.62483911  0.02420027  0.31996094  1
  H+  H177  1  0.27400264  0.39831342  0.32981117  1
  H+  H178  1  0.77612097  0.63313597  0.33683321  1
  H+  H179  1  0.22920694  0.36590292  0.84471253  1
  H+  H180  1  0.63944409  0.86612210  0.50227275  1
  H+  H181  1  -0.02184534  0.36773556  -0.00660029  1
  H+  H182  1  0.59388316  0.17782531  0.06882841  1
  H+  H183  1  0.77383734  0.14189705  0.66806468  1
  H+  H184  1  0.39120072  0.37638602  1.00354637  1
  H+  H185  1  0.87552501  0.47070068  0.34020531  1
  H+  H186  1  0.95918428  0.09779354  0.64480720  1
  H+  H187  1  0.86390626  0.07595735  0.66075006  1
  H+  H188  1  0.86883327  0.13894755  1.00756625  1
  H+  H189  1  0.03269901  0.39065895  0.82902537  1
  H+  H190  1  0.88661538  0.26541993  0.31800044  1
  H+  H191  1  0.88864048  0.85817874  0.32804240  1
  H+  H192  1  0.62029378  0.22654412  0.16304473  1
  H+  H193  1  0.38464111  0.61448367  0.16707576  1
  H+  H194  1  0.35881389  0.23829479  0.16160935  1
  H+  H195  1  0.38102612  0.60950002  0.01056166  1
  H+  H196  1  0.65034923  0.04402995  0.66081200  1
  H+  H197  1  0.40119593  0.85915613  0.31193848  1
  H+  H198  1  0.14009064  0.11309741  0.63864889  1
  H+  H199  1  0.60258797  0.47475095  0.66839177  1
  H+  H200  1  0.38250029  0.28168544  1.00115328  1
  H+  H201  1  0.37940086  0.25609708  0.33294703  1
  H+  H202  1  0.12523253  0.84274584  0.49519748  1
  H+  H203  1  0.36228068  0.63782023  0.48778113  1
  H+  H204  1  0.57998855  0.65793016  0.77395260  1
  H+  H205  1  0.64149247  0.61346036  0.33018267  1
  H+  H206  1  0.01556879  0.88172771  0.17639259  1
  H+  H207  1  0.86486141  0.95339104  0.67611352  1
  H+  H208  1  0.22819102  0.59672531  0.51229739  1
  H+  H209  1  0.38131471  0.01444182  0.50048306  1
  H+  H210  1  0.33521028  0.70732434  0.68129231  1
  H+  H211  1  0.63944077  0.11065161  0.50321021  1
  H+  H212  1  0.96275543  0.09374636  0.50444689  1
  H+  H213  1  0.02326919  0.38083057  0.33604690  1
  H+  H214  1  0.83949610  0.16965460  0.06633734  1
  H+  H215  1  0.87417567  0.18684317  0.65045203  1
  H+  H216  1  0.09891520  0.22755387  0.64741510  1
  H+  H217  1  0.98461885  0.60996962  0.65857541  1
  H+  H218  1  0.27095482  0.18939028  0.83401516  1
  H+  H219  1  0.33560063  0.89357192  0.63820160  1
  H+  H220  1  0.87073674  0.38012385  0.33403417  1
  H+  H221  1  0.32008375  0.65486320  0.76762442  1
  H+  H222  1  0.34861744  0.89143542  0.48446679  1
  H+  H223  1  0.38497418  0.97689143  -0.04610976  1
  H+  H224  1  0.64653180  0.62397877  1.00699122  1
  H+  H225  1  0.10771451  0.22999642  0.87185491  1
  H+  H226  1  0.87083805  0.83707194  0.66359429  1
  H+  H227  1  0.47148076  0.20156989  0.80888785  1
  H+  H228  1  1.01590307  0.62996727  0.17172921  1
  H+  H229  1  0.52131813  0.11353260  0.48827852  1
  H+  H230  1  0.09927092  0.91622641  0.21507633  1
  H+  H231  1  0.62494010  0.88568443  0.99557605  1
  H+  H232  1  0.14069138  0.36606815  0.99742671  1
  H+  H233  1  0.88828742  0.36527229  0.84131730  1
  H+  H234  1  0.60325014  0.34623267  0.50552816  1
  H+  H235  1  0.64031821  0.86372183  0.32729079  1
  H+  H236  1  0.48378614  0.10490543  0.17143481  1
  H+  H237  1  0.77392192  0.64387963  0.00723730  1
  H+  H238  1  0.18671696  0.86600079  0.64324472  1
  H+  H239  1  0.38733656  0.52675755  0.83791611  1
  H+  H240  1  0.59427952  0.61779704  0.67708680  1
  H+  H241  1  0.34258274  -0.01694311  0.65263450  1
  H+  H242  1  0.77264077  0.38167331  0.15506529  1
  H+  H243  1  0.36270192  0.47944505  0.16201428  1
  H+  H244  1  0.03938488  0.63423998  0.35592366  1
  H+  H245  1  0.38569730  0.76571023  0.15648087  1
  H+  H246  1  0.14105216  1.02453858  0.01478520  1
  H+  H247  1  0.51240918  0.89066392  0.81874445  1
  H+  H248  1  0.53654058  0.38640399  0.33893787  1
  H+  H249  1  0.13955171  0.85974386  -0.00764636  1
  H+  H250  1  0.48118217  0.35762616  0.64453291  1
  H+  H251  1  0.85613638  0.12748478  0.32841769  1
  H+  H252  1  0.41250434  0.33367887  0.37802789  1
  H+  H253  1  0.13371476  0.85017377  0.31516749  1
  H+  H254  1  0.48573743  0.62002376  0.32438099  1
  H+  H255  1  0.11098383  0.09823594  0.87165625  1
  H+  H256  1  0.63342709  0.77407688  0.17610812  1
  H+  H257  1  0.60195778  0.98124854  0.82329897  1
  H+  H258  1  0.34781059  0.94671445  0.85483981  1
  H+  H259  1  0.88804043  0.36051677  0.16664396  1
  H+  H260  1  0.34732375  0.86385373  0.83489928  1
  H+  H261  1  0.98448790  0.35173037  0.52458389  1
  H+  H262  1  0.77110039  0.87553888  0.67589286  1
  H+  H263  1  0.41600446  0.84463940  0.68655346  1
  H+  H264  1  0.64026412  0.28218895  0.99613546  1
  H+  H265  1  0.89490918  0.86498336  1.00017560  1
  H+  H266  1  0.65771591  0.88791939  0.65986138  1
  H+  H267  1  0.22669871  0.60679699  0.66954846  1
  H+  H268  1  0.97812903  0.36206357  0.16614073  1
  H+  H269  1  0.38793049  0.76435093  0.31292259  1
  H+  H270  1  0.88238904  0.61550135  -0.00887899  1
  H+  H271  1  0.89438120  0.61767701  0.32917568  1
  H+  H272  1  0.52737401  0.14448066  0.68681138  1
  H+  H273  1  0.60048344  0.25769570  0.50294544  1
  H+  H274  1  0.51649675  0.88561152  0.33672218  1
  H+  H275  1  0.52305177  0.88105618  0.14453445  1
  H+  H276  1  0.86023645  0.72640476  0.16159578  1
  H+  H277  1  0.50714262  0.85834919  0.52312281  1
  H+  H278  1  0.76939923  0.88621669  0.16373154  1
  H+  H279  1  0.12429234  0.72257158  0.34099206  1
  H+  H280  1  0.72576548  0.36349266  0.84502184  1
  H+  H281  1  0.86424554  0.22466254  0.15935378  1
  H+  H282  1  0.36534953  0.12881397  0.32592464  1
  H+  H283  1  0.78317220  0.59640138  0.48603577  1
  H+  H284  1  0.16695359  0.56757801  0.92003291  1
  H+  H285  1  0.27077944  0.14006808  0.68178103  1
  H+  H286  1  0.14184169  0.37047379  0.84577033  1
  H+  H287  1  0.72652518  0.37138836  0.68479041  1
  H+  H288  1  0.67331780  0.33778301  0.23129737  1
  H+  H289  1  0.59393695  0.42763270  0.39870302  1
  H+  H290  1  0.67151995  0.08167853  0.90410692  1
  H+  H291  1  0.11100834  0.21912765  0.50302478  1
  H+  H292  1  0.63352241  0.86320165  0.16890927  1
  H+  H293  1  0.91410893  0.07865634  0.23171207  1
  H+  H294  1  0.41436354  0.81691239  0.90162574  1
  H+  H295  1  0.57420334  0.40538494  0.07205755  1
  H+  H296  1  0.58123005  0.66312576  0.40220868  1
  H+  H297  1  0.33337980  0.18391711  0.06832982  1
  H+  H298  1  0.09981865  0.17861612  0.77107265  1
  H+  H299  1  0.84627491  0.39690350  0.43923473  1
  H+  H300  1  0.07945943  0.65772460  0.73155459  1
  H+  H301  1  0.08390695  0.42121422  0.05895239  1
  H+  H302  1  0.10721890  0.71783506  0.82571852  1
  H+  H303  1  0.65133194  0.57916001  0.59046581  1
  H+  H304  1  0.64504391  1.02906719  -0.00363387  1
  H+  H305  1  0.37942387  0.75834525  0.84172409  1
  H+  H306  1  0.26539245  0.62398499  0.83078459  1
  H+  H307  1  0.08567036  0.90475133  0.07569086  1
  H+  H308  1  0.08931207  0.41277164  0.74030798  1
  H+  H309  1  0.17447081  0.33886258  0.93986843  1
  H+  H310  1  0.96513026  0.62268795  0.28299607  1
  H+  H311  1  0.36883471  0.72757984  0.49189384  1
  H+  H312  1  0.66805682  0.58263279  0.23320740  1
  H+  H313  1  0.32969723  0.41768594  0.76910289  1
  H+  H314  1  0.35954400  0.39276263  0.33189824  1
  H+  H315  1  0.56300031  0.16651627  0.78558192  1
  H+  H316  1  0.11497450  0.71838083  -0.00884361  1
  H+  H317  1  0.11661457  0.23322297  0.32117729  1
  H+  H318  1  0.57688342  0.15011232  0.42620553  1
  H+  H319  1  0.83080467  0.90283556  0.39682101  1
  H+  H320  1  0.18466794  0.07950911  0.59371499  1
  H+  H321  1  0.58176781  0.41925284  0.76403704  1
  H+  H322  1  0.58641458  0.67328593  0.07510006  1
  H+  H323  1  0.42429284  0.07845941  0.25932688  1
  H+  H324  1  0.67685620  0.10062621  0.60002127  1
  H+  H325  1  0.22734204  0.11751704  1.00690175  1
  H+  H326  1  0.16273912  0.83064391  0.92895111  1
  H+  H327  1  0.89363831  0.05810601  0.55725573  1
  H+  H328  1  0.83657508  0.64788966  0.42794118  1
  H+  H329  1  0.27661157  0.87860322  -0.00487294  1
  H+  H330  1  0.67493448  0.84698982  0.60046816  1
  H+  H331  1  0.07063977  0.92206788  0.77466206  1
  H+  H332  1  0.11317097  0.66372641  0.44354867  1
  H+  H333  1  0.08970955  0.91508616  0.38037814  1
  H+  H334  1  0.52727482  0.40680892  0.48218381  1
  H+  H335  1  0.12518879  0.48431011  0.83184594  1
  H+  H336  1  0.58748167  0.91241692  0.08706850  1
  H+  H337  1  0.90256226  0.81024148  0.60328930  1
  H+  H338  1  0.83347386  0.41778638  0.77074649  1
  H+  H339  1  0.40167721  0.01598046  0.56715763  1
  H+  H340  1  0.41708853  0.59071992  0.22894979  1
  H+  H341  1  0.48427878  0.28347988  0.77649532  1
  H+  H342  1  0.34571768  0.18472112  0.73486184  1
  H+  H343  1  0.85995715  0.97465498  0.16306217  1
  H+  H344  1  0.65990426  0.07315288  0.25517839  1
  H+  H345  1  0.36711129  0.61758810  0.67084745  1
  H+  H346  1  0.91814482  0.33661809  0.90102252  1
  H+  H347  1  0.13746833  0.27673417  0.17138758  1
  H+  H348  1  0.32300524  0.65822135  0.09262483  1
  H+  H349  1  0.14822844  0.06197879  0.91874511  1
  H+  H350  1  0.83021340  0.64478674  0.72269054  1
  H+  H351  1  0.07866178  0.40937743  0.43664575  1
  H+  H352  1  0.67090795  0.82379772  0.93573195  1
  H+  H353  1  0.93475492  0.57424990  0.56413062  1
  H+  H354  1  0.52211186  0.63825529  0.16535133  1
  H+  H355  1  0.92532360  0.83465075  0.90672275  1
  H+  H356  1  0.66315987  0.83529940  0.26459783  1
  H+  H357  1  0.11209689  0.47543761  0.15820794  1
  H+  H358  1  0.12979836  0.16079715  0.76701338  1
  H+  H359  1  0.57766104  0.92648805  0.43915331  1
  H+  H360  1  0.78996103  0.70492766  0.78230067  1
  H+  H361  1  0.58645235  0.93589893  0.73230048  1
  H+  H362  1  0.83978962  0.17303380  0.77190491  1
  H+  H363  1  0.15530820  0.33268161  0.59449555  1
  H+  H364  1  0.42018654  0.82604315  0.21484554  1
  H+  H365  1  0.13240772  0.60374440  0.17841924  1
  H+  H366  1  0.90556617  0.58396767  0.89807802  1
  H+  H367  1  0.41467659  0.82515862  0.61506719  1
  H+  H368  1  0.17055696  0.34558554  0.26203820  1
  H+  H369  1  0.40449893  0.59233720  0.60982801  1
  H+  H370  1  0.16801415  0.81723218  0.26078907  1
  H+  H371  1  0.08159676  0.17064740  0.10388288  1
  H+  H372  1  0.42083827  0.34606159  0.23758564  1
  H+  H373  1  0.17749463  0.56243908  0.57575536  1
  H+  H374  1  0.87576179  0.55327184  0.22802984  1
  H+  H375  1  0.43411871  0.11907778  0.61318776  1
  H+  H376  1  0.60925822  0.38984920  0.68186019  1
  H+  H377  1  0.34198435  0.16025776  0.41538047  1
  H+  H378  1  0.91160388  0.07834974  0.94085440  1
  H+  H379  1  0.42486239  0.34698796  0.90684513  1
  H+  H380  1  0.33824271  0.91503043  0.08568445  1
  H+  H381  1  0.83730754  0.67080603  0.06484865  1
  H+  H382  1  0.92006509  0.32865935  0.26042492  1
  H+  H383  1  0.83458537  0.91433438  0.06939082  1
  O2-  O384  1  0.07959172  0.17048274  0.14988926  1
  O2-  O385  1  0.08283674  0.15457607  0.50838677  1
  O2-  O386  1  0.07582893  0.16835254  0.88356881  1
  O2-  O387  1  0.08032297  0.41590413  0.14050678  1
  O2-  O388  1  0.08019251  0.40474294  0.48149391  1
  O2-  O389  1  0.09232105  0.41844313  0.81378402  1
  O2-  O390  1  0.07741680  0.65117620  0.16630072  1
  O2-  O391  1  0.11375819  0.66905258  0.48827827  1
  O2-  O392  1  0.07757659  0.65783073  0.80949324  1
  O2-  O393  1  0.08038380  0.91211380  0.17294321  1
  O2-  O394  1  0.06509108  0.92827094  0.46634851  1
  O2-  O395  1  0.07796914  0.91052018  0.81836611  1
  O2-  O396  1  0.32656675  0.18209780  0.14144732  1
  O2-  O397  1  0.34604860  0.16796857  0.46136587  1
  O2-  O398  1  0.43794188  0.23022281  0.79407479  1
  O2-  O399  1  0.33413920  0.41727916  0.15048976  1
  O2-  O400  1  0.32644313  0.42008938  0.47436230  1
  O2-  O401  1  0.32872784  0.41439507  0.81496958  1
  O2-  O402  1  0.32902529  0.66103472  0.13873076  1
  O2-  O403  1  0.33652114  0.67230231  0.47069556  1
  O2-  O404  1  0.32612882  0.66012535  0.81397037  1
  O2-  O405  1  0.33601777  0.91277635  0.13146189  1
  O2-  O406  1  0.32253455  0.91936874  0.46216004  1
  O2-  O407  1  0.31983514  0.89885334  0.82532924  1
  O2-  O408  1  0.59060578  0.16786586  0.14508768  1
  O2-  O409  1  0.57986490  0.14629861  0.47115775  1
  O2-  O410  1  0.54313115  0.17440997  0.82582839  1
  O2-  O411  1  0.58411335  0.41671398  0.14541950  1
  O2-  O412  1  0.58763179  0.43867856  0.46760179  1
  O2-  O413  1  0.58498331  0.40619718  0.80792307  1
  O2-  O414  1  0.58464908  0.67167070  0.15458545  1
  O2-  O415  1  0.56830767  0.65871853  0.47491234  1
  O2-  O416  1  0.58191883  0.66327625  0.81964780  1
  O2-  O417  1  0.58534604  0.91276851  0.13262621  1
  O2-  O418  1  0.59070307  0.92498524  0.48293225  1
  O2-  O419  1  0.56640221  0.93011608  0.79707414  1
  O2-  O420  1  0.83325350  0.16382845  0.14448247  1
  O2-  O421  1  0.81610709  0.14465464  0.46625960  1
  O2-  O422  1  0.83811596  0.17164996  0.81649149  1
  O2-  O423  1  0.83360896  0.41290918  0.14059971  1
  O2-  O424  1  0.84833162  0.39631188  0.48391832  1
  O2-  O425  1  0.83161036  0.41369592  0.81649514  1
  O2-  O426  1  0.82720108  0.66660319  0.14544041  1
  O2-  O427  1  0.83934833  0.64333418  0.47344246  1
  O2-  O428  1  0.82697923  0.68921620  0.80459953  1
  O2-  O429  1  0.83017851  0.91326813  0.14935822  1
  O2-  O430  1  0.82543601  0.89338382  0.47373026  1
  O2-  O431  1  0.83792288  0.91576684  0.81799107  1
  O2-  O432  1  0.16350400  0.09413599  0.19230822  1
  O2-  O433  1  0.18714649  0.07933166  0.51145972  1
  O2-  O434  1  0.13427087  0.05812635  0.87490374  1
  O2-  O435  1  0.16729513  0.33816323  0.18485839  1
  O2-  O436  1  0.15908690  0.32432063  0.51524500  1
  O2-  O437  1  0.17096566  0.34025411  0.86412607  1
  O2-  O438  1  0.16713149  0.57508132  0.18784468  1
  O2-  O439  1  0.18535639  0.54529351  0.53382296  1
  O2-  O440  1  0.16829014  0.56615829  0.85583087  1
  O2-  O441  1  0.17668951  0.82550589  0.17775551  1
  O2-  O442  1  0.17105743  0.83058833  0.50332815  1
  O2-  O443  1  0.15729188  0.82147278  0.85368521  1
  O2-  O444  1  0.42561583  0.07230868  0.18939242  1
  O2-  O445  1  0.42068798  0.05548642  0.53178453  1
  O2-  O446  1  0.40746659  0.01636536  0.91694056  1
  O2-  O447  1  0.42417281  0.34813781  0.19326679  1
  O2-  O448  1  0.41542360  0.34087428  0.50484129  1
  O2-  O449  1  0.42874501  0.35222201  0.86190770  1
  O2-  O450  1  0.41591147  0.58560023  0.18366714  1
  O2-  O451  1  0.40847022  0.58904262  0.52046417  1
  O2-  O452  1  0.42029283  0.58764060  0.85060082  1
  O2-  O453  1  0.41980530  0.82767776  0.16944056  1
  O2-  O454  1  0.45870281  0.81120224  0.54755474  1
  O2-  O455  1  0.41120417  0.81979318  0.85704518  1
  O2-  O456  1  0.66636470  0.07547857  0.17889498  1
  O2-  O457  1  0.67096871  0.08392895  0.52285838  1
  O2-  O458  1  0.66949555  0.07493329  0.85937510  1
  O2-  O459  1  0.67104162  0.33460152  0.18573863  1
  O2-  O460  1  0.58587948  0.29324251  0.52836081  1
  O2-  O461  1  0.66720309  0.33852489  0.86299762  1
  O2-  O462  1  0.66398837  0.58143433  0.18787662  1
  O2-  O463  1  0.64761302  0.58784987  0.51703456  1
  O2-  O464  1  0.66660144  0.59564492  0.87259573  1
  O2-  O465  1  0.66350235  0.83586545  0.18978789  1
  O2-  O466  1  0.66031994  0.82810009  0.51858322  1
  O2-  O467  1  0.67040235  0.82059385  0.86636713  1
  O2-  O468  1  0.91348012  0.07949783  0.18618695  1
  O2-  O469  1  0.90022784  0.05829047  0.51220111  1
  O2-  O470  1  0.90301566  0.07713773  0.86446611  1
  O2-  O471  1  0.91759036  0.32990020  0.18223648  1
  O2-  O472  1  0.92733475  0.32233990  0.54471626  1
  O2-  O473  1  0.91860662  0.33455777  0.85561341  1
  O2-  O474  1  0.89408850  0.56838057  0.18578465  1
  O2-  O475  1  0.94102151  0.57177629  0.51871134  1
  O2-  O476  1  0.90633633  0.58096117  0.85206746  1
  O2-  O477  1  0.91142840  0.83095385  0.18936140  1
  O2-  O478  1  0.90476675  0.80781575  0.52125212  1
  O2-  O479  1  0.92237050  0.83452534  0.86137483  1
  O2-  O480  1  0.17728846  0.07059812  0.30458544  1
  O2-  O481  1  0.17472841  0.08453686  0.63760994  1
  O2-  O482  1  0.16412780  0.08348177  0.99853051  1
  O2-  O483  1  0.17222293  0.34328515  0.30760621  1
  O2-  O484  1  0.14994464  0.32263128  0.63938916  1
  O2-  O485  1  0.17297729  0.33615739  0.98572058  1
  O2-  O486  1  0.17061741  0.57378143  0.31285205  1
  O2-  O487  1  0.16420728  0.57787092  0.64975332  1
  O2-  O488  1  0.16577607  0.56872721  0.96919052  1
  O2-  O489  1  0.15908889  0.81374069  0.30532966  1
  O2-  O490  1  0.12744098  0.83704879  0.65832934  1
  O2-  O491  1  0.16925194  0.83117986  0.97453738  1
  O2-  O492  1  0.42437296  0.08464404  0.30572407  1
  O2-  O493  1  0.42624465  0.10658282  0.65670199  1
  O2-  O494  1  0.45122738  0.16887576  0.96944953  1
  O2-  O495  1  0.41166140  0.32231352  0.33453574  1
  O2-  O496  1  0.42791586  0.32279454  0.62016089  1
  O2-  O497  1  0.42088551  0.34437347  0.98779450  1
  O2-  O498  1  0.42617803  0.59403028  0.30730070  1
  O2-  O499  1  0.40529629  0.59163764  0.65451804  1
  O2-  O500  1  0.41016741  0.57488934  1.00863290  1
  O2-  O501  1  0.42228807  0.82244801  0.29348997  1
  O2-  O502  1  0.38033098  0.82608978  0.65027255  1
  O2-  O503  1  0.41346527  0.82446271  0.98772406  1
  O2-  O504  1  0.66301954  0.08082209  0.30052562  1
  O2-  O505  1  0.68030246  0.10487898  0.64560812  1
  O2-  O506  1  0.67140113  0.09121581  0.98614168  1
  O2-  O507  1  0.67759296  0.33761727  0.30886671  1
  O2-  O508  1  0.66350655  0.34291096  0.67962062  1
  O2-  O509  1  0.66445520  0.34363864  0.98264373  1
  O2-  O510  1  0.67320041  0.58558576  0.31293383  1
  O2-  O511  1  0.65353768  0.57430583  0.63657388  1
  O2-  O512  1  0.68050473  0.59848360  0.99106611  1
  O2-  O513  1  0.66784156  0.83343454  0.31048671  1
  O2-  O514  1  0.68530136  0.85586084  0.64468970  1
  O2-  O515  1  0.66983025  0.82953865  0.98243426  1
  O2-  O516  1  0.91314377  0.07632907  0.30953086  1
  O2-  O517  1  0.89703807  0.05585122  0.63713074  1
  O2-  O518  1  0.91505810  0.08008452  0.98646085  1
  O2-  O519  1  0.91996519  0.32742500  0.30593273  1
  O2-  O520  1  0.91992391  0.34616099  0.65778341  1
  O2-  O521  1  0.91615507  0.33806484  0.98005281  1
  O2-  O522  1  0.92790052  0.58885794  0.31640327  1
  O2-  O523  1  0.92491637  0.57744255  0.63948648  1
  O2-  O524  1  0.90950493  0.58422673  0.97181583  1
  O2-  O525  1  0.91695938  0.82626968  0.31194112  1
  O2-  O526  1  0.90200340  0.80744158  0.64819891  1
  O2-  O527  1  0.92757963  0.83653368  0.98632071  1
  O2-  O528  1  0.08144999  0.16960726  0.02843442  1
  O2-  O529  1  0.08656192  0.16906982  0.31732687  1
  O2-  O530  1  0.06737779  0.16030863  0.65144946  1
  O2-  O531  1  0.08199123  0.41569179  0.01398968  1
  O2-  O532  1  0.08209830  0.41024593  0.35418181  1
  O2-  O533  1  0.08512439  0.40895594  0.69410431  1
  O2-  O534  1  0.08539074  0.65621656  0.00084518  1
  O2-  O535  1  0.10200250  0.66448369  0.36122001  1
  O2-  O536  1  0.07892824  0.65876731  0.68604437  1
  O2-  O537  1  0.08766552  0.91262637  0.03174028  1
  O2-  O538  1  0.08736139  0.91530084  0.33569351  1
  O2-  O539  1  0.04538461  0.94611710  0.70684989  1
  O2-  O540  1  0.33216063  0.18555490  0.02227695  1
  O2-  O541  1  0.33207651  0.15597401  0.34197099  1
  O2-  O542  1  0.33293054  0.17423381  0.69111600  1
  O2-  O543  1  0.33626557  0.41579920  0.03047091  1
  O2-  O544  1  0.33514987  0.42843195  0.34509923  1
  O2-  O545  1  0.32635922  0.42724489  0.69459690  1
  O2-  O546  1  0.32136591  0.65951003  0.01932824  1
  O2-  O547  1  0.33698010  0.66850379  0.34835781  1
  O2-  O548  1  0.31256876  0.64840573  0.69518428  1
  O2-  O549  1  0.33811498  0.90882102  0.00788465  1
  O2-  O550  1  0.40541441  0.94267276  0.35609669  1
  O2-  O551  1  0.31574463  0.93340484  0.62500105  1
  O2-  O552  1  0.59654029  0.18305134  0.02341629  1
  O2-  O553  1  0.58855597  0.16969399  0.34609993  1
  O2-  O554  1  0.58518444  0.16901144  0.70596551  1
  O2-  O555  1  0.56770339  0.39891221  0.02619701  1
  O2-  O556  1  0.59672318  0.42135213  0.35208756  1
  O2-  O557  1  0.57197907  0.41693258  0.68813686  1
  O2-  O558  1  0.58305919  0.66868479  0.03004955  1
  O2-  O559  1  0.58658211  0.66332665  0.35591473  1
  O2-  O560  1  0.56873077  0.64690188  0.69977952  1
  O2-  O561  1  0.59452100  0.91834551  0.00791738  1
  O2-  O562  1  0.55039759  0.93665406  0.36350637  1
  O2-  O563  1  0.60397333  0.94305094  0.68593682  1
  O2-  O564  1  0.83993351  0.17170371  0.02092788  1
  O2-  O565  1  0.82753676  0.16028382  0.34096672  1
  O2-  O566  1  0.83487225  0.16331084  0.68476822  1
  O2-  O567  1  0.83312263  0.42011930  0.01944382  1
  O2-  O568  1  0.84089155  0.40983306  0.35151729  1
  O2-  O569  1  0.83690299  0.42547808  0.69560834  1
  O2-  O570  1  0.83850766  0.67257382  0.01973285  1
  O2-  O571  1  0.83702290  0.66148770  0.35230947  1
  O2-  O572  1  0.82798406  0.64495231  0.67806289  1
  O2-  O573  1  0.83786866  0.91402666  0.02419172  1
  O2-  O574  1  0.83564014  0.90931911  0.35140309  1
  O2-  O575  1  0.83066496  0.89528114  0.69366743  1
