# generated using pymatgen
data_H2O
_symmetry_space_group_name_H-M   'P 1'
_cell_length_a   17.95201302
_cell_length_b   17.97699320
_cell_length_c   21.98759265
_cell_angle_alpha   89.96660473
_cell_angle_beta   90.04617457
_cell_angle_gamma   119.96478404
_symmetry_Int_Tables_number   1
_chemical_formula_structural   H2O
_chemical_formula_sum   'H384 O192'
_cell_volume   6147.41279559
_cell_formula_units_Z   192
loop_
 _symmetry_equiv_pos_site_id
 _symmetry_equiv_pos_as_xyz
  1  'x, y, z'
loop_
 _atom_type_symbol
 _atom_type_oxidation_number
  H+  1.0
  O2-  -2.0
loop_
 _atom_site_type_symbol
 _atom_site_label
 _atom_site_symmetry_multiplicity
 _atom_site_fract_x
 _atom_site_fract_y
 _atom_site_fract_z
 _atom_site_occupancy
  H+  H0  1  0.46149672  0.87406329  0.94021839  1
  H+  H1  1  0.64285663  0.38241941  0.32532719  1
  H+  H2  1  0.00886706  0.62683514  0.83816753  1
  H+  H3  1  0.84035783  0.98291817  -0.00717046  1
  H+  H4  1  0.57604801  0.81695281  0.01757086  1
  H+  H5  1  0.91071722  0.28212735  0.84284926  1
  H+  H6  1  0.25768926  0.14711927  0.66300722  1
  H+  H7  1  0.88767472  0.53276480  0.30837426  1
  H+  H8  1  0.24023446  0.59770077  0.24831865  1
  H+  H9  1  0.33821376  0.24946695  0.84394535  1
  H+  H10  1  0.91700322  0.48043364  0.66250521  1
  H+  H11  1  1.03015000  0.88515548  0.33900429  1
  H+  H12  1  0.51179328  0.63130519  0.81773703  1
  H+  H13  1  0.22937746  0.70241126  0.36865684  1
  H+  H14  1  0.14356563  0.87071424  0.32581109  1
  H+  H15  1  0.21817557  0.84941458  1.00061364  1
  H+  H16  1  0.62965019  0.61228211  0.83039197  1
  H+  H17  1  0.77614616  0.86160964  0.67096174  1
  H+  H18  1  0.42296050  0.18946438  0.67013910  1
  H+  H19  1  0.60517783  0.61670287  -0.02303951  1
  H+  H20  1  0.50680068  0.61768097  0.96910290  1
  H+  H21  1  0.88260510  0.03567398  0.50134664  1
  H+  H22  1  0.87268944  0.75342945  0.32921949  1
  H+  H23  1  0.37386236  0.36309768  0.17570231  1
  H+  H24  1  0.60149921  0.06750937  0.68051415  1
  H+  H25  1  0.64005551  0.28154437  0.16837507  1
  H+  H26  1  0.37423763  0.26622539  0.17413191  1
  H+  H27  1  0.51967993  0.89057959  0.50555776  1
  H+  H28  1  0.62329545  0.76674514  0.83431737  1
  H+  H29  1  0.61316829  0.61177197  0.33652579  1
  H+  H30  1  0.56991964  0.17611457  0.67342110  1
  H+  H31  1  0.76983615  0.46818422  0.96716976  1
  H+  H32  1  0.72347346  0.52556456  0.45568007  1
  H+  H33  1  0.82332584  0.61239307  -0.00660844  1
  H+  H34  1  0.85934868  0.63914299  0.14759316  1
  H+  H35  1  0.15513051  0.63268263  0.18479175  1
  H+  H36  1  0.09728200  0.71787753  0.84436852  1
  H+  H37  1  0.57066777  0.95145534  0.84655785  1
  H+  H38  1  0.97141316  0.22937402  0.79007883  1
  H+  H39  1  0.11723339  0.73418875  0.16480475  1
  H+  H40  1  0.11478716  -0.02063632  0.33961971  1
  H+  H41  1  0.70171280  0.44682432  0.80703942  1
  H+  H42  1  0.35798678  0.13776953  0.33503483  1
  H+  H43  1  0.38664338  0.26889995  0.32761387  1
  H+  H44  1  0.24843790  0.61708451  -0.00530371  1
  H+  H45  1  0.20462372  0.92098872  0.70680894  1
  H+  H46  1  0.70991775  0.74957386  0.61075889  1
  H+  H47  1  0.33013507  0.70816645  0.78690477  1
  H+  H48  1  0.99296459  0.36098741  0.67484109  1
  H+  H49  1  0.10771290  0.73127255  0.33045431  1
  H+  H50  1  0.13409740  0.48231309  0.01394028  1
  H+  H51  1  0.66023510  0.10404821  0.93345935  1
  H+  H52  1  0.12409593  0.65169255  0.69009923  1
  H+  H53  1  0.51798685  0.87219865  0.16386954  1
  H+  H54  1  0.92554854  0.71136270  0.49878291  1
  H+  H55  1  0.47941162  0.26382789  0.79923013  1
  H+  H56  1  0.63725479  0.12007987  0.16910893  1
  H+  H57  1  0.89830803  0.80326948  0.52110857  1
  H+  H58  1  0.74044333  0.31596362  0.85441288  1
  H+  H59  1  0.76770457  0.63662945  0.14112949  1
  H+  H60  1  0.37427694  0.01451649  0.32154373  1
  H+  H61  1  0.60225271  0.72887866  0.48937407  1
  H+  H62  1  0.84936850  0.22223214  0.14523710  1
  H+  H63  1  0.20890088  0.85822372  0.84990532  1
  H+  H64  1  0.64854572  0.29876268  0.33462596  1
  H+  H65  1  0.90160511  0.11556130  0.83384078  1
  H+  H66  1  0.13028120  0.39242781  1.01024581  1
  H+  H67  1  0.63247282  0.76024530  0.18465744  1
  H+  H68  1  0.63200150  0.86920739  0.51065085  1
  H+  H69  1  0.51700803  0.39036006  0.34219992  1
  H+  H70  1  0.96436649  0.49683634  0.66005337  1
  H+  H71  1  0.13295900  0.10685685  0.99815939  1
  H+  H72  1  0.38238130  0.03181395  0.16092864  1
  H+  H73  1  0.10245815  0.87534123  1.00697368  1
  H+  H74  1  0.90871790  0.36943667  0.53210546  1
  H+  H75  1  0.05076152  0.91362142  0.68075896  1
  H+  H76  1  0.33579539  0.17725792  0.77149092  1
  H+  H77  1  0.72130706  0.86998197  0.50071781  1
  H+  H78  1  0.29887034  0.94171253  0.68639444  1
  H+  H79  1  0.66413257  0.33843576  0.50938338  1
  H+  H80  1  0.28347654  0.57069791  0.65853063  1
  H+  H81  1  0.10329018  0.96552031  0.00549738  1
  H+  H82  1  0.09532612  0.87465951  0.83545628  1
  H+  H83  1  0.13508710  0.26623837  0.51629074  1
  H+  H84  1  0.35098006  0.45981366  0.35063086  1
  H+  H85  1  0.36556464  0.89562685  0.33433799  1
  H+  H86  1  0.01321443  0.58265056  0.46643910  1
  H+  H87  1  0.02529908  0.59305570  0.03012015  1
  H+  H88  1  0.61851324  0.95006276  0.68396382  1
  H+  H89  1  0.86460976  0.90390910  0.49642173  1
  H+  H90  1  0.22848715  0.35351817  0.82357853  1
  H+  H91  1  0.73287417  0.35537866  0.66284049  1
  H+  H92  1  0.87717560  0.10871756  0.16637940  1
  H+  H93  1  0.62332076  -0.00930361  1.01851095  1
  H+  H94  1  0.89561130  0.84111185  0.35864818  1
  H+  H95  1  0.87377698  0.76832978  0.17150489  1
  H+  H96  1  0.12132511  0.38731561  0.51086508  1
  H+  H97  1  0.65041348  0.30020680  0.00023691  1
  H+  H98  1  0.67195980  0.39807849  0.65636805  1
  H+  H99  1  0.57226872  0.07601006  0.85853001  1
  H+  H100  1  0.36757136  0.14959490  0.16134840  1
  H+  H101  1  0.32215606  0.39169861  0.40381175  1
  H+  H102  1  0.04423246  0.17727515  0.01066516  1
  H+  H103  1  0.97605507  0.87384569  0.84024077  1
  H+  H104  1  0.87985308  0.13413025  0.67441509  1
  H+  H105  1  0.35111978  0.85434154  0.82030450  1
  H+  H106  1  0.12703319  0.60837269  0.85109099  1
  H+  H107  1  0.71922039  0.86364011  0.32972255  1
  H+  H108  1  0.56260814  0.20617151  0.53304479  1
  H+  H109  1  0.20441903  0.51915041  0.29134033  1
  H+  H110  1  0.50884563  0.62975398  0.35082534  1
  H+  H111  1  0.64533637  0.59993121  0.09332731  1
  H+  H112  1  0.35234082  0.47295843  0.15721543  1
  H+  H113  1  0.12039885  0.38567689  0.29476540  1
  H+  H114  1  0.46864236  0.61574786  0.51583144  1
  H+  H115  1  0.77395978  0.38969321  0.57492911  1
  H+  H116  1  0.97896593  0.62443659  0.16538345  1
  H+  H117  1  0.06880821  0.90102685  0.09982487  1
  H+  H118  1  0.12309147  0.47674625  0.51623597  1
  H+  H119  1  0.78310038  0.39922728  0.14715637  1
  H+  H120  1  0.37460665  0.51736312  0.80670329  1
  H+  H121  1  0.37529897  0.73644772  0.98479754  1
  H+  H122  1  0.27312855  0.89092970  0.33472964  1
  H+  H123  1  0.86842511  0.14988511  0.34164464  1
  H+  H124  1  0.25314015  0.85453082  0.48626409  1
  H+  H125  1  0.15943066  0.28398753  -0.00262633  1
  H+  H126  1  0.59047208  0.61733716  0.17374864  1
  H+  H127  1  0.78490914  0.40234588  0.32929561  1
  H+  H128  1  0.59659401  0.18335748  0.84216330  1
  H+  H129  1  0.46974618  0.86762770  0.33288683  1
  H+  H130  1  0.93224993  0.35619924  -0.05696255  1
  H+  H131  1  0.51103430  0.38103276  0.99294366  1
  H+  H132  1  0.71389360  0.61446746  -0.01834716  1
  H+  H133  1  0.36617660  0.89057797  1.00523839  1
  H+  H134  1  0.36806064  0.60312920  0.80962922  1
  H+  H135  1  0.87338275  0.38357646  0.83337557  1
  H+  H136  1  0.35696996  0.22272701  0.00806850  1
  H+  H137  1  0.38311863  0.35636023  0.32979225  1
  H+  H138  1  0.75619803  0.13134697  0.14841950  1
  H+  H139  1  0.52648645  0.14709600  0.00743022  1
  H+  H140  1  0.73770465  0.11297867  0.32244508  1
  H+  H141  1  0.37974108  0.61355378  0.51547499  1
  H+  H142  1  0.88298154  0.12496958  0.50313573  1
  H+  H143  1  0.38554173  0.36158715  0.99283261  1
  H+  H144  1  1.00092862  0.65515306  0.69381888  1
  H+  H145  1  0.97891757  0.12052845  0.32642735  1
  H+  H146  1  0.41285588  0.82747149  0.57150337  1
  H+  H147  1  0.42874814  0.07750950  0.52570238  1
  H+  H148  1  0.92729286  0.06781774  0.99552470  1
  H+  H149  1  0.58635413  0.43702158  0.39931773  1
  H+  H150  1  0.26487025  0.12473163  0.82499955  1
  H+  H151  1  0.99204682  0.37280703  0.85028869  1
  H+  H152  1  0.37027382  0.50868115  0.67020612  1
  H+  H153  1  0.77841530  0.65228116  0.66667941  1
  H+  H154  1  0.86622004  0.51628672  0.98880932  1
  H+  H155  1  0.97121651  0.62607400  0.31337991  1
  H+  H156  1  0.19143581  0.10373245  0.60693912  1
  H+  H157  1  0.77356013  0.15839299  -0.00603675  1
  H+  H158  1  0.22776160  0.87365162  0.16941792  1
  H+  H159  1  0.87057160  0.48787770  0.15611485  1
  H+  H160  1  0.70905846  0.83611777  0.99012078  1
  H+  H161  1  0.09824900  0.67649582  0.75215178  1
  H+  H162  1  0.13779358  1.00308334  0.68869663  1
  H+  H163  1  0.95833693  0.72683694  0.47347893  1
  H+  H164  1  0.38845716  0.10916162  -0.00282865  1
  H+  H165  1  0.14513091  1.03317525  0.51246979  1
  H+  H166  1  0.91754823  0.59066962  0.72919355  1
  H+  H167  1  0.44924978  0.60269479  0.19239295  1
  H+  H168  1  0.85583386  0.88473947  0.16038547  1
  H+  H169  1  0.37233901  0.78644239  0.33092785  1
  H+  H170  1  0.62233612  0.39855834  0.14857975  1
  H+  H171  1  0.87292665  0.66433879  0.68036955  1
  H+  H172  1  0.36535931  0.89935517  0.15782027  1
  H+  H173  1  0.22345541  0.11372087  0.33281280  1
  H+  H174  1  0.93296147  0.44857555  0.00901669  1
  H+  H175  1  0.60730497  0.98188995  0.50866431  1
  H+  H176  1  0.29127301  0.91926962  0.78131737  1
  H+  H177  1  0.12323291  0.62452047  0.01803815  1
  H+  H178  1  0.59630861  0.70502761  0.66433169  1
  H+  H179  1  0.17246063  0.31751290  0.26285786  1
  H+  H180  1  0.87765645  0.02060033  0.17040259  1
  H+  H181  1  0.21559605  0.61046113  0.83388695  1
  H+  H182  1  0.08530165  0.40819171  0.10883391  1
  H+  H183  1  0.53279882  1.00906122  0.91793455  1
  H+  H184  1  1.02074986  0.14159999  0.49301451  1
  H+  H185  1  0.13074401  0.39957907  0.84702838  1
  H+  H186  1  0.59572070  1.00645289  0.03281193  1
  H+  H187  1  0.28667791  0.39591855  1.00320440  1
  H+  H188  1  0.52233604  0.14432584  0.15926848  1
  H+  H189  1  0.34890906  -0.02519164  0.84156838  1
  H+  H190  1  0.77551128  0.64725960  0.82211331  1
  H+  H191  1  0.14543506  0.27098563  0.67187543  1
  H+  H192  1  0.10926885  0.21944692  0.16090570  1
  H+  H193  1  0.12336253  0.48431791  0.84098645  1
  H+  H194  1  0.89544719  0.37335392  0.31231737  1
  H+  H195  1  0.83322966  0.67807751  0.76284364  1
  H+  H196  1  0.38196635  0.10050141  0.85197976  1
  H+  H197  1  0.13697747  0.11757383  0.51196305  1
  H+  H198  1  0.34594328  0.11558294  0.48508574  1
  H+  H199  1  0.62075529  0.11339462  0.52439502  1
  H+  H200  1  0.98181873  0.36987559  0.29977205  1
  H+  H201  1  0.37546442  0.32664661  0.69983296  1
  H+  H202  1  0.41350893  0.07685609  0.93369930  1
  H+  H203  1  0.24375986  0.64260937  0.16152045  1
  H+  H204  1  0.22384095  0.35327562  0.16554330  1
  H+  H205  1  0.26390198  0.64586557  0.33782759  1
  H+  H206  1  0.86310423  0.99554776  0.33655048  1
  H+  H207  1  0.62718393  0.52115357  0.49588921  1
  H+  H208  1  0.86195094  0.45122795  0.48104753  1
  H+  H209  1  0.85565418  0.52557951  0.44947406  1
  H+  H210  1  0.50034072  0.62442353  0.67492102  1
  H+  H211  1  0.70363634  0.63661648  0.51942716  1
  H+  H212  1  0.76065787  0.87995036  0.82952964  1
  H+  H213  1  0.88044628  0.36071620  0.15977248  1
  H+  H214  1  -0.00675818  0.12352614  0.65376923  1
  H+  H215  1  0.46230378  0.10155258  0.30889434  1
  H+  H216  1  0.23290229  0.61632185  0.52311027  1
  H+  H217  1  0.00880029  0.36135150  0.15652395  1
  H+  H218  1  0.87613655  0.22049966  0.67861099  1
  H+  H219  1  0.62406721  0.16705367  0.00344445  1
  H+  H220  1  0.61187517  0.41984992  0.49529230  1
  H+  H221  1  0.36042221  0.72849729  0.50050717  1
  H+  H222  1  0.64311970  0.09578394  0.31373738  1
  H+  H223  1  0.23022772  0.12513374  0.18140812  1
  H+  H224  1  0.38645306  0.78568914  0.16998572  1
  H+  H225  1  0.48059166  0.86815274  0.66997235  1
  H+  H226  1  1.02026719  0.12348741  0.83285660  1
  H+  H227  1  0.47602273  0.84518016  0.00578911  1
  H+  H228  1  0.66246615  0.20376427  0.40495003  1
  H+  H229  1  0.34606449  0.99135467  0.50656137  1
  H+  H230  1  0.49042194  0.10466665  0.84414466  1
  H+  H231  1  0.37383319  0.57882890  0.39463765  1
  H+  H232  1  -0.00433733  0.38062584  -0.00044601  1
  H+  H233  1  0.03254084  0.90106311  0.49664504  1
  H+  H234  1  0.60874468  -0.03558356  0.34689497  1
  H+  H235  1  0.87767162  0.76393015  0.98556590  1
  H+  H236  1  0.53685828  0.38098387  0.68448563  1
  H+  H237  1  0.52303219  0.30173142  0.79333237  1
  H+  H238  1  0.62282573  0.60269082  0.66460090  1
  H+  H239  1  0.96843898  0.85413385  0.99150154  1
  H+  H240  1  0.22441758  0.35028728  0.32619964  1
  H+  H241  1  0.65472725  0.53509140  0.82927211  1
  H+  H242  1  0.27869470  0.62739095  0.74132321  1
  H+  H243  1  0.90436565  0.88155588  0.66665774  1
  H+  H244  1  0.26259636  0.36795096  0.50021199  1
  H+  H245  1  1.01409503  0.87650184  0.16070808  1
  H+  H246  1  0.57134377  0.63657307  0.23987168  1
  H+  H247  1  0.13348588  0.14622657  0.67767326  1
  H+  H248  1  0.70628283  0.60797891  0.32019838  1
  H+  H249  1  0.07575844  0.66107293  0.38383960  1
  H+  H250  1  0.13113737  1.01107486  0.84801908  1
  H+  H251  1  0.14953123  0.82381463  0.90915409  1
  H+  H252  1  0.36489031  0.34879709  0.83337401  1
  H+  H253  1  0.71474510  0.12263411  0.51841792  1
  H+  H254  1  0.57249255  0.15390942  0.37502868  1
  H+  H255  1  0.08880383  0.92269024  0.43596000  1
  H+  H256  1  0.10667829  0.61213101  0.49166363  1
  H+  H257  1  0.86555491  0.23648151  0.33607436  1
  H+  H258  1  0.85472481  0.90698300  0.31990155  1
  H+  H259  1  0.33360427  0.92144689  0.09538977  1
  H+  H260  1  0.84638837  0.86596560  1.00742789  1
  H+  H261  1  0.40380700  0.33004845  0.24072033  1
  H+  H262  1  0.99746887  0.36820580  0.51966933  1
  H+  H263  1  0.41543945  0.05446503  0.64438850  1
  H+  H264  1  0.61842535  0.85353129  0.83884305  1
  H+  H265  1  0.36131813  -0.02358961  1.00357695  1
  H+  H266  1  0.85137087  0.97064941  0.82728659  1
  H+  H267  1  0.80843625  0.61015709  0.47935488  1
  H+  H268  1  0.39049647  0.61390868  -0.03724414  1
  H+  H269  1  0.83903099  0.32952051  0.68697293  1
  H+  H270  1  0.86608972  0.23648349  0.50000807  1
  H+  H271  1  0.83296181  0.11138763  0.00421717  1
  H+  H272  1  0.60223804  0.86032894  0.16487012  1
  H+  H273  1  0.11563981  0.74747375  0.48847786  1
  H+  H274  1  0.60004930  0.71101022  0.98203172  1
  H+  H275  1  0.10914459  0.13251237  0.34248531  1
  H+  H276  1  0.37702660  0.85429129  0.51192990  1
  H+  H277  1  0.12782784  0.38282751  0.68705809  1
  H+  H278  1  0.12502709  0.84104510  0.49528585  1
  H+  H279  1  0.71109026  0.20541650  0.92854247  1
  H+  H280  1  0.36432462  0.64833443  0.14425166  1
  H+  H281  1  0.87637542  0.87361508  0.84111222  1
  H+  H282  1  0.12979557  0.75901134  0.00469478  1
  H+  H283  1  0.86985850  0.60528762  0.82988894  1
  H+  H284  1  0.37479572  0.48206269  -0.00522818  1
  H+  H285  1  0.84274832  0.62405267  0.31742772  1
  H+  H286  1  0.13205287  0.09998774  0.84473162  1
  H+  H287  1  0.59916809  0.63678118  0.49823143  1
  H+  H288  1  0.76554425  0.88064314  0.16079855  1
  H+  H289  1  0.11093393  0.22239924  0.33960708  1
  H+  H290  1  0.11436085  0.21082090  0.83331519  1
  H+  H291  1  0.49391294  0.86483974  0.81941656  1
  H+  H292  1  0.65342238  0.81905172  0.92708414  1
  H+  H293  1  0.10310318  0.41878902  0.74644348  1
  H+  H294  1  0.90171080  0.82219722  0.23372810  1
  H+  H295  1  0.67364061  0.08271947  0.22092928  1
  H+  H296  1  0.57028725  0.93701030  0.74656094  1
  H+  H297  1  0.23398191  0.35976138  0.67562833  1
  H+  H298  1  0.34595146  0.68797468  0.08491671  1
  H+  H299  1  0.63153089  0.37378878  -0.01623524  1
  H+  H300  1  0.58205797  0.41363909  0.08780334  1
  H+  H301  1  0.13685744  0.11378050  0.17900239  1
  H+  H302  1  0.35852591  0.78970718  0.86475328  1
  H+  H303  1  0.67495723  0.80851888  0.58682611  1
  H+  H304  1  0.40369046  0.57286811  0.90095059  1
  H+  H305  1  0.85396854  0.46127299  0.82505728  1
  H+  H306  1  0.57053130  0.92141206  0.41150723  1
  H+  H307  1  0.83436593  0.92610087  0.43330492  1
  H+  H308  1  0.33320658  0.16597464  0.39892134  1
  H+  H309  1  0.91768785  0.09374116  0.26661775  1
  H+  H310  1  0.82880935  0.18154858  0.43857834  1
  H+  H311  1  0.13061933  0.34642239  0.17138886  1
  H+  H312  1  0.57482220  0.66378263  0.76247012  1
  H+  H313  1  1.09844512  0.42554869  0.23783489  1
  H+  H314  1  0.59790471  0.47356625  0.99048541  1
  H+  H315  1  0.16577151  0.08647626  0.27253673  1
  H+  H316  1  0.62997795  0.43736779  0.76068145  1
  H+  H317  1  0.43645103  0.70818845  0.64026875  1
  H+  H318  1  0.63852475  0.11343687  0.61873846  1
  H+  H319  1  0.87962814  0.17950775  0.75553312  1
  H+  H320  1  0.80315685  0.35564000  0.74371548  1
  H+  H321  1  0.18348500  0.58660639  0.93843829  1
  H+  H322  1  0.34015367  0.41988401  0.09608527  1
  H+  H323  1  0.18563004  0.52014006  0.67944385  1
  H+  H324  1  0.87160559  0.55606011  0.88970759  1
  H+  H325  1  0.33509290  0.17938898  0.10254882  1
  H+  H326  1  0.43271372  0.71756569  0.02425701  1
  H+  H327  1  1.01662464  0.13232125  0.15783489  1
  H+  H328  1  0.77005582  0.31348668  0.53785504  1
  H+  H329  1  0.17186841  0.32502839  0.57730725  1
  H+  H330  1  0.24553530  0.29809406  0.86656687  1
  H+  H331  1  0.41330668  0.83948205  0.23283062  1
  H+  H332  1  0.43787002  0.99935048  0.68596031  1
  H+  H333  1  0.38702737  0.37769978  0.54021490  1
  H+  H334  1  0.66127763  0.58468029  0.91603154  1
  H+  H335  1  0.58403336  0.17538645  0.10120828  1
  H+  H336  1  0.13315964  0.86452919  0.17096588  1
  H+  H337  1  0.27796824  0.14600104  0.48613748  1
  H+  H338  1  0.08067451  0.91994296  0.77552325  1
  H+  H339  1  0.08473215  0.16996842  0.43659177  1
  H+  H340  1  0.63479038  0.77087759  0.33090507  1
  H+  H341  1  0.98638347  0.63895470  0.57183166  1
  H+  H342  1  0.40432412  0.08188087  0.22375604  1
  H+  H343  1  0.61234112  0.51386687  0.32978339  1
  H+  H344  1  0.62800001  0.52125124  0.13665999  1
  H+  H345  1  0.93869304  0.32910128  0.61300987  1
  H+  H346  1  0.54526608  0.83886343  0.08428090  1
  H+  H347  1  0.86085379  0.44763363  0.37965002  1
  H+  H348  1  0.80132538  0.62434157  0.38022274  1
  H+  H349  1  0.18725797  0.33578424  0.93451977  1
  H+  H350  1  0.93203256  0.10040952  0.59542761  1
  H+  H351  1  0.82120893  0.66247759  0.05387371  1
  H+  H352  1  0.31073318  0.67456098  0.44199681  1
  H+  H353  1  0.34875345  0.58050820  0.32681668  1
  H+  H354  1  0.16320076  0.07633376  0.93939556  1
  H+  H355  1  0.93367996  0.86619225  0.57731708  1
  H+  H356  1  0.68131214  0.30565126  0.91072439  1
  H+  H357  1  0.90068997  0.32237165  0.21920115  1
  H+  H358  1  0.39081020  0.31832926  0.93178304  1
  H+  H359  1  0.90939986  0.79757880  0.65934462  1
  H+  H360  1  0.61361389  0.47879842  0.67096318  1
  H+  H361  1  0.90020739  0.47530553  0.06772668  1
  H+  H362  1  0.39329250  0.56364332  0.60688528  1
  H+  H363  1  0.81390971  0.89504662  0.06736534  1
  H+  H364  1  0.89758021  0.06622512  0.89682769  1
  H+  H365  1  0.08828974  0.17325687  0.07271070  1
  H+  H366  1  0.93857970  0.61878318  0.57521434  1
  H+  H367  1  0.26990404  0.13228389  0.01326436  1
  H+  H368  1  0.09113517  0.66557014  0.11028218  1
  H+  H369  1  0.63553043  0.33866685  0.57473564  1
  H+  H370  1  0.35732457  0.57374109  0.22351574  1
  H+  H371  1  0.32325498  0.89931765  0.43271040  1
  H+  H372  1  0.81770972  0.15897963  0.07151764  1
  H+  H373  1  0.91314624  0.59442535  0.22037753  1
  H+  H374  1  0.54936986  0.16258323  0.47119805  1
  H+  H375  1  0.65089062  0.58307219  0.60053099  1
  H+  H376  1  0.82478440  0.90186553  0.73341587  1
  H+  H377  1  0.17165565  0.84315911  0.26373060  1
  H+  H378  1  0.67337937  0.34587226  0.22449121  1
  H+  H379  1  0.91158151  0.84028741  0.90398835  1
  H+  H380  1  0.18706778  0.58715856  0.58706373  1
  H+  H381  1  0.57274792  0.66092411  0.40840882  1
  H+  H382  1  0.66715891  0.82787327  0.23765723  1
  H+  H383  1  0.08876744  0.16074952  0.73635316  1
  O2-  O384  1  0.07707233  0.16010693  0.14264621  1
  O2-  O385  1  0.08319607  0.16916307  0.48198181  1
  O2-  O386  1  0.08032012  0.15143124  0.81688488  1
  O2-  O387  1  0.07253042  0.38976709  0.15215950  1
  O2-  O388  1  0.09040422  0.41801642  0.49874581  1
  O2-  O389  1  0.09806185  0.42244892  0.82690697  1
  O2-  O390  1  0.08604728  0.67125584  0.15512236  1
  O2-  O391  1  0.07351991  0.62975265  0.46512567  1
  O2-  O392  1  0.07200119  0.65700689  0.82994315  1
  O2-  O393  1  0.07276147  0.89950811  0.14463683  1
  O2-  O394  1  0.09162688  0.92228625  0.48122764  1
  O2-  O395  1  0.06804801  0.90874754  0.82077387  1
  O2-  O396  1  0.33861538  0.18320774  0.14864688  1
  O2-  O397  1  0.33266568  0.15915587  0.46645708  1
  O2-  O398  1  0.32640470  0.16571276  0.81628457  1
  O2-  O399  1  0.33181856  0.41374808  0.14132029  1
  O2-  O400  1  0.32125599  0.39606457  0.47911931  1
  O2-  O401  1  0.32686277  0.41733546  0.77921189  1
  O2-  O402  1  0.34512065  0.68854240  0.12975671  1
  O2-  O403  1  0.32644328  0.66820818  0.48412893  1
  O2-  O404  1  0.29999675  0.64453830  0.78396225  1
  O2-  O405  1  0.33444732  0.92807204  0.14080714  1
  O2-  O406  1  0.31701711  0.88912869  0.47719027  1
  O2-  O407  1  0.30966163  0.91344737  0.82411001  1
  O2-  O408  1  0.58413307  0.17454570  0.14700841  1
  O2-  O409  1  0.54824595  0.15012188  0.51457650  1
  O2-  O410  1  0.55534787  0.12441804  0.82834440  1
  O2-  O411  1  0.59004735  0.42587336  0.13215529  1
  O2-  O412  1  0.62558462  0.46918194  0.46832074  1
  O2-  O413  1  0.64890228  0.44925812  0.80450309  1
  O2-  O414  1  0.55931140  0.64180591  0.19733285  1
  O2-  O415  1  0.57015640  0.66757565  0.47630993  1
  O2-  O416  1  0.57462879  0.66378933  0.80835724  1
  O2-  O417  1  0.57024532  0.88262592  0.14107110  1
  O2-  O418  1  0.58070042  0.92270698  0.49123564  1
  O2-  O419  1  0.55762711  0.90141656  0.81837249  1
  O2-  O420  1  0.81925916  0.16093114  0.12955059  1
  O2-  O421  1  0.82523994  0.17791282  0.48363932  1
  O2-  O422  1  0.91049707  0.19830423  0.80066419  1
  O2-  O423  1  0.84567818  0.42888317  0.13796126  1
  O2-  O424  1  0.79542464  0.37574120  0.53668211  1
  O2-  O425  1  0.83046327  0.39880036  0.81735752  1
  O2-  O426  1  0.83019153  0.67096620  0.13194784  1
  O2-  O427  1  0.78740398  0.56877763  0.44603637  1
  O2-  O428  1  0.83455025  0.66739847  0.80709205  1
  O2-  O429  1  0.82506831  0.91359467  0.14306530  1
  O2-  O430  1  0.82974323  0.92746213  0.47810203  1
  O2-  O431  1  0.82216891  0.90785666  0.81622542  1
  O2-  O432  1  0.17293914  0.09515691  0.20061375  1
  O2-  O433  1  0.17171626  0.09275116  0.52830759  1
  O2-  O434  1  0.16398659  0.07226659  0.86173815  1
  O2-  O435  1  0.16598336  0.31951435  0.18452493  1
  O2-  O436  1  0.16988684  0.32666280  0.53195684  1
  O2-  O437  1  0.19879287  0.31251181  0.85763085  1
  O2-  O438  1  0.19649795  0.61195210  0.19112884  1
  O2-  O439  1  0.17495026  0.58468740  0.54304951  1
  O2-  O440  1  0.16438509  0.58294847  0.86168070  1
  O2-  O441  1  0.16932699  0.84004514  0.18764591  1
  O2-  O442  1  0.15193284  0.80585191  0.50461888  1
  O2-  O443  1  0.14677509  0.82453600  0.86384393  1
  O2-  O444  1  0.41185270  0.09145224  0.17892645  1
  O2-  O445  1  0.36590615  0.05004746  0.52236325  1
  O2-  O446  1  0.40698408  0.06676863  0.86788627  1
  O2-  O447  1  0.40007877  0.32915080  0.19378575  1
  O2-  O448  1  0.35939994  0.34626244  0.50287552  1
  O2-  O449  1  0.34152138  0.30286445  0.86419554  1
  O2-  O450  1  0.38591516  0.57609026  0.18490825  1
  O2-  O451  1  0.41002758  0.58569813  0.53353184  1
  O2-  O452  1  0.40009464  0.57575461  0.82657655  1
  O2-  O453  1  0.41548547  0.84458898  0.18746802  1
  O2-  O454  1  0.41296419  0.82900603  0.52645443  1
  O2-  O455  1  0.37550505  0.81299012  0.82390680  1
  O2-  O456  1  0.67226403  0.09182931  0.17668311  1
  O2-  O457  1  0.65659414  0.08758309  0.53625553  1
  O2-  O458  1  0.58242034  0.02925303  0.89110313  1
  O2-  O459  1  0.67345872  0.34395255  0.17959615  1
  O2-  O460  1  0.61195191  0.32462233  0.53215256  1
  O2-  O461  1  0.69326220  0.27194332  0.88005611  1
  O2-  O462  1  0.65192321  0.58776461  0.13560188  1
  O2-  O463  1  0.64387452  0.59428056  0.52773902  1
  O2-  O464  1  0.66751791  0.59189305  0.84844485  1
  O2-  O465  1  0.66629422  0.82289134  0.19148330  1
  O2-  O466  1  0.66217227  0.83540062  0.51766375  1
  O2-  O467  1  0.65291298  0.82642223  0.85200852  1
  O2-  O468  1  0.90884774  0.08190453  0.18420330  1
  O2-  O469  1  0.91681351  0.09672853  0.51433109  1
  O2-  O470  1  0.91130186  0.06930075  0.85304473  1
  O2-  O471  1  0.90006892  0.31992802  0.17369696  1
  O2-  O472  1  0.93434792  0.33267012  0.53509085  1
  O2-  O473  1  0.93036348  0.33916923  0.86228482  1
  O2-  O474  1  0.91541081  0.59327117  0.17479391  1
  O2-  O475  1  0.88994368  0.49579716  0.44929159  1
  O2-  O476  1  0.89380567  0.56882050  0.84722943  1
  O2-  O477  1  0.90137842  0.82749708  0.18925122  1
  O2-  O478  1  0.92645663  0.86430699  0.53074205  1
  O2-  O479  1  0.91399308  0.84850250  0.85769163  1
  O2-  O480  1  0.16218037  0.08155908  0.31877944  1
  O2-  O481  1  0.19600180  0.10810022  0.65234747  1
  O2-  O482  1  0.16113367  0.07427155  0.98510263  1
  O2-  O483  1  0.16559239  0.32179626  0.30759814  1
  O2-  O484  1  0.17563692  0.33236438  0.65679925  1
  O2-  O485  1  0.18631520  0.34283274  0.97941017  1
  O2-  O486  1  0.25907916  0.57493839  0.28479270  1
  O2-  O487  1  0.23405024  0.57870774  0.66855015  1
  O2-  O488  1  0.18742969  0.58518374  0.98393481  1
  O2-  O489  1  0.17289633  0.84004082  0.30950920  1
  O2-  O490  1  0.25062473  0.90813553  0.71520523  1
  O2-  O491  1  0.15614100  0.81844679  0.98867440  1
  O2-  O492  1  0.40083182  0.07452810  0.30161914  1
  O2-  O493  1  0.46451198  0.17190523  0.64639466  1
  O2-  O494  1  0.41975860  0.08050552  0.98230272  1
  O2-  O495  1  0.41690647  0.33084620  0.31163213  1
  O2-  O496  1  0.41206604  0.30498665  0.68295548  1
  O2-  O497  1  0.40759438  0.32462952  0.97586579  1
  O2-  O498  1  0.38964991  0.57298318  0.35306038  1
  O2-  O499  1  0.38721196  0.56575341  0.65248467  1
  O2-  O500  1  0.41245353  0.57667968  0.94669525  1
  O2-  O501  1  0.41218513  0.84162121  0.31093907  1
  O2-  O502  1  0.43402858  0.81314503  0.65174710  1
  O2-  O503  1  0.43190592  0.85028068  0.97855206  1
  O2-  O504  1  0.68006251  0.07241704  0.30357875  1
  O2-  O505  1  0.62272021  0.12283338  0.65965451  1
  O2-  O506  1  0.70040060  0.15767818  0.95732820  1
  O2-  O507  1  0.67442891  0.35312303  0.31164538  1
  O2-  O508  1  0.70819881  0.38059410  0.63284771  1
  O2-  O509  1  0.67370996  0.35377091  0.97602431  1
  O2-  O510  1  0.64109280  0.57904823  0.31400804  1
  O2-  O511  1  0.65970057  0.58180136  0.64629017  1
  O2-  O512  1  0.65430156  0.58212256  0.96327298  1
  O2-  O513  1  0.66332397  0.82663325  0.30986000  1
  O2-  O514  1  0.68580040  0.78436676  0.62527969  1
  O2-  O515  1  0.64979027  0.80640924  0.97217909  1
  O2-  O516  1  0.91735254  0.09471586  0.31190620  1
  O2-  O517  1  0.93284917  0.09779061  0.64032612  1
  O2-  O518  1  0.86991932  0.04515368  0.97840174  1
  O2-  O519  1  0.91802107  0.33563294  0.29757181  1
  O2-  O520  1  0.93374117  0.32673752  0.65824528  1
  O2-  O521  1  0.93714651  0.36770720  0.98733201  1
  O2-  O522  1  0.91053102  0.59430186  0.29649056  1
  O2-  O523  1  0.93636493  0.62656912  0.69306548  1
  O2-  O524  1  0.82284246  0.52479329  0.96422193  1
  O2-  O525  1  0.90821589  0.81735051  0.32274525  1
  O2-  O526  1  0.94272703  0.85989570  0.64856807  1
  O2-  O527  1  0.90770404  0.82656204  0.97464913  1
  O2-  O528  1  0.09690572  0.18136925  0.02627135  1
  O2-  O529  1  0.07750388  0.16261404  0.35629453  1
  O2-  O530  1  0.09634442  0.17020918  0.69175405  1
  O2-  O531  1  0.10129895  0.42178129  0.02856530  1
  O2-  O532  1  0.10122225  0.42724086  0.28269537  1
  O2-  O533  1  0.10306038  0.41924380  0.70130707  1
  O2-  O534  1  0.08443443  0.64480142  0.03327937  1
  O2-  O535  1  0.07201429  0.66882360  0.33969963  1
  O2-  O536  1  0.10412330  0.68830597  0.70763269  1
  O2-  O537  1  0.06842738  0.90370406  0.01746637  1
  O2-  O538  1  0.08888012  0.91845605  0.35539788  1
  O2-  O539  1  0.10548219  0.94316429  0.70427118  1
  O2-  O540  1  0.33015427  0.16537621  0.02852127  1
  O2-  O541  1  0.33282621  0.17162064  0.35145507  1
  O2-  O542  1  0.36403381  0.21146024  0.69657276  1
  O2-  O543  1  0.34808538  0.42727386  0.01787828  1
  O2-  O544  1  0.32502756  0.39723822  0.35788262  1
  O2-  O545  1  0.33230808  0.40677292  0.71847741  1
  O2-  O546  1  0.37338368  0.68588542  0.00512813  1
  O2-  O547  1  0.27900800  0.69385009  0.36750114  1
  O2-  O548  1  0.48101888  0.76496635  0.65414251  1
  O2-  O549  1  0.32990656  0.91485646  0.01848838  1
  O2-  O550  1  0.33385779  0.92448201  0.35086801  1
  O2-  O551  1  0.39906056  0.99408337  0.65317233  1
  O2-  O552  1  0.58563512  0.18360973  0.02490620  1
  O2-  O553  1  0.61352704  0.20956366  0.39212753  1
  O2-  O554  1  0.54102444  0.21001868  0.68505309  1
  O2-  O555  1  0.57208837  0.41503201  0.00787711  1
  O2-  O556  1  0.57926983  0.42959663  0.35348553  1
  O2-  O557  1  0.59897736  0.42181660  0.68917986  1
  O2-  O558  1  0.56590371  0.64530420  -0.00981834  1
  O2-  O559  1  0.57077340  0.65578463  0.36083439  1
  O2-  O560  1  0.56152084  0.65126005  0.68799849  1
  O2-  O561  1  0.52514890  0.80793311  0.04119927  1
  O2-  O562  1  0.56088711  0.91465648  0.36681434  1
  O2-  O563  1  0.56999943  0.95185683  0.70225741  1
  O2-  O564  1  0.82178761  0.15740231  0.01914035  1
  O2-  O565  1  0.83475253  0.17780253  0.35459455  1
  O2-  O566  1  0.84993763  0.16175569  0.69658639  1
  O2-  O567  1  0.92950455  0.49875125  0.02823186  1
  O2-  O568  1  0.84832647  0.43141457  0.33559536  1
  O2-  O569  1  0.78635446  0.32576407  0.70395871  1
  O2-  O570  1  0.81322032  0.65959578  0.00852575  1
  O2-  O571  1  0.80602979  0.64589033  0.33747774  1
  O2-  O572  1  0.83650116  0.69259295  0.68276257  1
  O2-  O573  1  0.80868802  0.88894853  0.02156316  1
  O2-  O574  1  0.83372061  0.93286321  0.34934107  1
  O2-  O575  1  0.83278800  0.90096152  0.68914896  1
