# generated using pymatgen
data_H2O
_symmetry_space_group_name_H-M   'P 1'
_cell_length_a   17.97882574
_cell_length_b   17.99874020
_cell_length_c   21.99892199
_cell_angle_alpha   89.97398135
_cell_angle_beta   90.03307637
_cell_angle_gamma   120.03417941
_symmetry_Int_Tables_number   1
_chemical_formula_structural   H2O
_chemical_formula_sum   'H384 O192'
_cell_volume   6162.90824496
_cell_formula_units_Z   192
loop_
 _symmetry_equiv_pos_site_id
 _symmetry_equiv_pos_as_xyz
  1  'x, y, z'
loop_
 _atom_type_symbol
 _atom_type_oxidation_number
  H+  1.0
  O2-  -2.0
loop_
 _atom_site_type_symbol
 _atom_site_label
 _atom_site_symmetry_multiplicity
 _atom_site_fract_x
 _atom_site_fract_y
 _atom_site_fract_z
 _atom_site_occupancy
  H+  H0  1  0.29027386  0.38949265  0.49501392  1
  H+  H1  1  0.48254083  0.87621361  0.66013284  1
  H+  H2  1  0.34279360  0.61056642  1.05992500  1
  H+  H3  1  0.64108135  0.60694275  0.17026168  1
  H+  H4  1  0.61247186  0.58678199  0.83726087  1
  H+  H5  1  0.87088685  0.01343655  0.32600285  1
  H+  H6  1  0.40334894  0.89274779  0.50149434  1
  H+  H7  1  0.44394358  0.11118469  0.58538026  1
  H+  H8  1  0.11849551  0.99132423  0.35055907  1
  H+  H9  1  0.11382632  0.47023810  0.00837103  1
  H+  H10  1  0.13896825  0.85392834  0.85458966  1
  H+  H11  1  0.22940850  0.61046696  0.32871910  1
  H+  H12  1  0.53412986  0.86525522  0.99427190  1
  H+  H13  1  0.38904076  0.55642189  1.05138455  1
  H+  H14  1  0.28148364  0.39141328  0.66789143  1
  H+  H15  1  0.53048162  0.64445923  0.66193435  1
  H+  H16  1  0.62053826  0.64761179  0.67285941  1
  H+  H17  1  0.63139758  0.98406280  0.82278637  1
  H+  H18  1  0.11261549  0.59040324  0.99639513  1
  H+  H19  1  0.87968917  0.35276285  0.17088930  1
  H+  H20  1  0.38813001  0.51401816  0.81925072  1
  H+  H21  1  0.13881097  0.76668523  0.84541261  1
  H+  H22  1  0.61630327  0.89411578  0.67058489  1
  H+  H23  1  0.27858564  0.88989508  0.00535914  1
  H+  H24  1  0.88735579  0.35900246  0.32619892  1
  H+  H25  1  0.88484573  0.27231319  0.50342100  1
  H+  H26  1  0.64024015  0.11956444  0.65145374  1
  H+  H27  1  0.64717095  0.36320467  0.17984051  1
  H+  H28  1  0.51168515  0.13890368  0.00651060  1
  H+  H29  1  0.34827768  0.67563909  0.16524028  1
  H+  H30  1  0.83341060  0.39898937  0.09170787  1
  H+  H31  1  0.49462248  0.37042354  0.65994810  1
  H+  H32  1  0.63961608  0.44613854  0.36758143  1
  H+  H33  1  0.15410991  0.13652423  0.65877684  1
  H+  H34  1  0.73060544  0.88906848  0.32074376  1
  H+  H35  1  0.42325617  0.33183517  0.89705634  1
  H+  H36  1  0.73875394  0.35675290  0.99735260  1
  H+  H37  1  0.33631163  0.16101877  0.40342059  1
  H+  H38  1  0.21121194  0.61628056  -0.00184357  1
  H+  H39  1  0.10374746  0.63350964  0.82924917  1
  H+  H40  1  0.14254086  0.28491493  0.66078593  1
  H+  H41  1  0.27720574  0.89267364  0.35007236  1
  H+  H42  1  0.40041907  0.90138867  0.17434471  1
  H+  H43  1  0.87905574  0.21223623  1.00540117  1
  H+  H44  1  0.55441827  0.66956989  0.33859713  1
  H+  H45  1  0.93295563  0.08280032  0.90117323  1
  H+  H46  1  0.39196178  0.02343164  0.98229662  1
  H+  H47  1  0.48763473  0.62294990  0.49976332  1
  H+  H48  1  0.83602691  0.92504514  0.76869070  1
  H+  H49  1  0.77235861  0.63431855  0.82128599  1
  H+  H50  1  0.61796681  0.53541835  0.52620520  1
  H+  H51  1  0.14385504  0.87750328  0.35536313  1
  H+  H52  1  0.38183087  0.64536069  0.66114020  1
  H+  H53  1  0.13901555  0.08974368  0.79623570  1
  H+  H54  1  0.11355440  0.88803686  0.16368842  1
  H+  H55  1  0.89988969  0.57175620  0.23175605  1
  H+  H56  1  0.85622328  0.23195055  0.17462847  1
  H+  H57  1  0.57565476  0.68119014  0.75423071  1
  H+  H58  1  0.13976954  0.78767619  0.35897641  1
  H+  H59  1  0.23049064  0.53340890  0.55039060  1
  H+  H60  1  0.36856374  0.89312910  0.33683007  1
  H+  H61  1  0.63050927  0.74509515  0.00526844  1
  H+  H62  1  0.17138314  0.56931839  0.57075680  1
  H+  H63  1  0.27284523  0.88293444  0.83150201  1
  H+  H64  1  0.53068937  0.62816609  0.15405874  1
  H+  H65  1  0.09280651  0.68743305  0.29883339  1
  H+  H66  1  0.02995266  0.14648407  0.67781047  1
  H+  H67  1  0.38672306  0.24176775  0.67169821  1
  H+  H68  1  0.87582867  0.02514835  0.17297756  1
  H+  H69  1  0.27226357  0.13494229  0.34475299  1
  H+  H70  1  0.79607906  0.11927228  -0.00189929  1
  H+  H71  1  0.67288482  0.32335169  0.90480840  1
  H+  H72  1  0.37061753  0.89444548  0.00829541  1
  H+  H73  1  0.68926915  0.36104730  0.56430862  1
  H+  H74  1  0.40213964  0.52910807  0.50170589  1
  H+  H75  1  0.13614978  0.60334777  0.33416685  1
  H+  H76  1  0.13538325  0.02346134  0.17622095  1
  H+  H77  1  0.10260018  0.22441279  0.16786791  1
  H+  H78  1  0.64817946  0.89858523  0.31134105  1
  H+  H79  1  0.61308768  0.53226088  0.31500460  1
  H+  H80  1  0.11641291  0.00191349  0.50236246  1
  H+  H81  1  0.25647036  0.66300697  0.17231911  1
  H+  H82  1  0.77600128  -0.10207106  0.67453542  1
  H+  H83  1  0.42065596  0.85410018  0.26671195  1
  H+  H84  1  1.00923971  0.63262764  0.16748183  1
  H+  H85  1  0.59532053  0.14058884  0.02942511  1
  H+  H86  1  0.78305024  0.37784298  0.83900180  1
  H+  H87  1  0.14675648  0.13011717  0.50286616  1
  H+  H88  1  0.38296529  0.85503584  0.65801725  1
  H+  H89  1  0.88669852  0.61123350  0.50509917  1
  H+  H90  1  0.12798984  0.16298122  0.86436547  1
  H+  H91  1  0.11171678  0.46747768  0.34135331  1
  H+  H92  1  0.85879879  0.46265180  0.15215977  1
  H+  H93  1  0.85647182  0.13249206  0.34010905  1
  H+  H94  1  0.36131118  0.72779613  0.33026089  1
  H+  H95  1  0.62090976  0.71901880  0.15987303  1
  H+  H96  1  0.61075981  0.23332864  0.17066409  1
  H+  H97  1  0.68297211  0.84796036  0.90548491  1
  H+  H98  1  0.89016149  0.78104077  1.00194558  1
  H+  H99  1  0.64326330  0.34793115  0.84250170  1
  H+  H100  1  0.63363862  0.65307729  0.00359933  1
  H+  H101  1  0.90241333  0.10915926  0.99014574  1
  H+  H102  1  0.61474823  0.45631832  0.81894319  1
  H+  H103  1  1.02868512  0.88416018  1.00781704  1
  H+  H104  1  0.37004559  0.45716314  0.17073395  1
  H+  H105  1  0.42779578  0.81072882  0.91815347  1
  H+  H106  1  0.73917246  0.64011692  -0.00027193  1
  H+  H107  1  0.14441008  0.11556371  1.02849032  1
  H+  H108  1  0.48526546  0.36172977  -0.00928072  1
  H+  H109  1  0.85994053  0.36264565  0.64711814  1
  H+  H110  1  0.64837698  0.52821688  0.67050232  1
  H+  H111  1  0.10548664  0.60161990  0.65364638  1
  H+  H112  1  0.87268246  0.43607193  0.00097683  1
  H+  H113  1  0.39860230  0.26716525  0.33858677  1
  H+  H114  1  0.97553181  0.35707249  0.32506136  1
  H+  H115  1  0.50351794  0.13385754  0.49582304  1
  H+  H116  1  0.76955090  0.13925790  0.49005096  1
  H+  H117  1  0.87723740  0.77025153  0.84410133  1
  H+  H118  1  0.60346417  0.18571745  0.38447220  1
  H+  H119  1  0.39941221  0.40617392  0.34392067  1
  H+  H120  1  0.34968138  0.16507763  0.74646073  1
  H+  H121  1  0.62280056  0.65714632  0.49596797  1
  H+  H122  1  0.89114859  0.12387270  0.66745357  1
  H+  H123  1  0.62432690  0.22242683  0.82836430  1
  H+  H124  1  0.08745042  0.79196660  0.60534322  1
  H+  H125  1  0.38711936  0.15209521  0.66349552  1
  H+  H126  1  0.49847427  0.88698471  0.50262086  1
  H+  H127  1  0.67124851  0.09992223  0.98591686  1
  H+  H128  1  0.64059489  0.40027250  0.66947088  1
  H+  H129  1  0.74592268  0.88274996  0.83912347  1
  H+  H130  1  0.62435418  0.47513346  0.16646558  1
  H+  H131  1  0.02465698  0.38474376  0.16405404  1
  H+  H132  1  0.85489968  0.24751262  0.67042629  1
  H+  H133  1  0.65030371  0.88265443  0.83881132  1
  H+  H134  1  0.35113762  0.72513546  0.00909678  1
  H+  H135  1  0.65959556  0.08699278  0.55396921  1
  H+  H136  1  0.39955217  0.36049855  0.19382571  1
  H+  H137  1  0.88076878  0.23230460  0.83504821  1
  H+  H138  1  0.13528152  0.00142707  0.81135774  1
  H+  H139  1  0.77249180  0.64126330  0.16669427  1
  H+  H140  1  0.36865079  0.12117154  0.81538172  1
  H+  H141  1  0.87665065  0.60861990  0.17316256  1
  H+  H142  1  0.22016063  0.86522348  0.16671591  1
  H+  H143  1  0.27067961  0.11286972  0.79790470  1
  H+  H144  1  0.13297046  0.52714379  0.17910027  1
  H+  H145  1  0.46932108  0.61983314  0.81531096  1
  H+  H146  1  0.03200951  0.65698878  0.49616521  1
  H+  H147  1  0.61700821  0.89718639  0.49290256  1
  H+  H148  1  0.12483627  -0.00003022  0.65578688  1
  H+  H149  1  0.13567864  0.11637640  0.33260644  1
  H+  H150  1  0.37452009  0.38763744  0.82128706  1
  H+  H151  1  0.37915246  0.14357264  0.49357444  1
  H+  H152  1  0.77600499  0.37034934  0.34209682  1
  H+  H153  1  0.94282902  0.78377686  0.31034001  1
  H+  H154  1  0.12031906  0.39389867  0.82626752  1
  H+  H155  1  0.64588460  0.86564876  -0.01215026  1
  H+  H156  1  0.87627859  0.51184102  0.32671628  1
  H+  H157  1  0.06998090  0.41080160  0.72992196  1
  H+  H158  1  0.28388033  0.63482202  0.48218654  1
  H+  H159  1  0.63065238  0.64971349  0.33672632  1
  H+  H160  1  0.74181159  0.87074448  -0.01196170  1
  H+  H161  1  0.73112438  0.35382062  0.17288351  1
  H+  H162  1  0.89496633  0.88883849  0.51416919  1
  H+  H163  1  0.87152354  0.97955307  0.00441453  1
  H+  H164  1  0.88340376  0.33818281  1.00435271  1
  H+  H165  1  0.45020270  0.74509935  0.94843478  1
  H+  H166  1  0.14896725  0.86030117  1.00114429  1
  H+  H167  1  0.12250458  0.34486978  0.33109740  1
  H+  H168  1  0.14813732  0.27722155  0.50494366  1
  H+  H169  1  0.41671266  0.54389795  0.32251224  1
  H+  H170  1  0.68247726  0.30149290  0.65767802  1
  H+  H171  1  0.14247603  0.36094904  1.00140999  1
  H+  H172  1  0.48598768  0.87338171  0.83491288  1
  H+  H173  1  0.89463022  0.87546654  0.17268843  1
  H+  H174  1  0.63997334  0.28046933  -0.00176632  1
  H+  H175  1  0.64255518  0.58174622  0.77309628  1
  H+  H176  1  0.40995547  0.82065761  0.17424746  1
  H+  H177  1  0.11355755  0.37621519  0.49061826  1
  H+  H178  1  0.38520303  0.02038519  0.82910104  1
  H+  H179  1  0.17702016  0.07739586  1.07884717  1
  H+  H180  1  0.84314463  0.84580451  0.34817858  1
  H+  H181  1  0.63129278  0.11693496  0.49238421  1
  H+  H182  1  0.10336384  0.21778796  0.34149944  1
  H+  H183  1  0.39857386  0.52791381  0.65190972  1
  H+  H184  1  0.53558467  0.13436118  0.81939183  1
  H+  H185  1  0.58281514  0.40916075  0.06774314  1
  H+  H186  1  0.64063556  0.78763984  0.50447012  1
  H+  H187  1  0.60508494  0.98090509  0.33776396  1
  H+  H188  1  0.73925350  0.61131732  0.33271496  1
  H+  H189  1  0.71893079  0.77265746  0.22419778  1
  H+  H190  1  0.38983873  0.11098515  0.98265956  1
  H+  H191  1  0.37288565  0.63942067  0.47995841  1
  H+  H192  1  0.24606068  0.54342823  0.76367465  1
  H+  H193  1  0.49337015  0.34688695  0.34537180  1
  H+  H194  1  0.78771668  0.39735980  0.49118650  1
  H+  H195  1  0.61484168  -0.01765533  0.67053392  1
  H+  H196  1  0.90686405  0.11943191  0.84200936  1
  H+  H197  1  0.89403392  0.78491481  0.66429369  1
  H+  H198  1  0.36059931  0.59037280  0.80744660  1
  H+  H199  1  -0.11853350  0.86233986  0.84308298  1
  H+  H200  1  0.08186969  0.16771385  0.43453259  1
  H+  H201  1  0.98220283  0.87117326  0.17300404  1
  H+  H202  1  1.00911478  0.90642716  0.50876052  1
  H+  H203  1  0.87337634  0.39108836  0.49262260  1
  H+  H204  1  0.72923316  0.87727822  0.50830805  1
  H+  H205  1  0.75667671  0.13344409  0.17125021  1
  H+  H206  1  0.23406432  0.83497581  0.67081789  1
  H+  H207  1  0.15896959  0.58070266  0.24125263  1
  H+  H208  1  0.28871005  0.14544487  0.49471022  1
  H+  H209  1  0.02986140  0.90230849  0.34962075  1
  H+  H210  1  0.85039413  0.13092456  0.17364485  1
  H+  H211  1  0.84364801  0.52350428  0.99739156  1
  H+  H212  1  0.38823649  0.27080751  0.83827355  1
  H+  H213  1  0.24342704  0.13528473  0.65583082  1
  H+  H214  1  0.07529499  0.71057526  0.67823511  1
  H+  H215  1  0.29678903  0.90090471  0.48996166  1
  H+  H216  1  0.38034594  0.39099305  0.49670746  1
  H+  H217  1  0.22422163  0.35436897  0.18260624  1
  H+  H218  1  0.85788441  0.64719569  0.01556833  1
  H+  H219  1  0.17616580  0.33592404  -0.05796062  1
  H+  H220  1  0.61151155  0.38584681  0.42400448  1
  H+  H221  1  0.64210449  0.32651076  0.33854478  1
  H+  H222  1  0.65284637  0.11640024  0.83330974  1
  H+  H223  1  0.59835863  0.73280738  0.81729142  1
  H+  H224  1  0.09940212  0.63360542  0.16998250  1
  H+  H225  1  0.69573456  0.46867032  0.50269683  1
  H+  H226  1  0.40638620  0.27377909  0.50557995  1
  H+  H227  1  0.86502607  0.89753415  0.67665782  1
  H+  H228  1  -0.01969060  0.87835773  0.66514792  1
  H+  H229  1  0.55203699  0.16677397  0.66458824  1
  H+  H230  1  0.55484979  0.96618426  0.17134011  1
  H+  H231  1  0.86607317  0.99105101  0.49388723  1
  H+  H232  1  0.16094462  0.79321692  0.49904968  1
  H+  H233  1  0.28368502  0.13534888  0.01456135  1
  H+  H234  1  0.47365107  0.86948744  0.32762536  1
  H+  H235  1  0.21327120  0.60544645  0.83664208  1
  H+  H236  1  -0.02808675  0.61557356  0.84675969  1
  H+  H237  1  0.52692666  0.36900841  0.82369111  1
  H+  H238  1  0.86794525  0.46923036  0.84006116  1
  H+  H239  1  0.02688858  0.37858092  0.01217230  1
  H+  H240  1  0.00213685  0.52577470  0.05715663  1
  H+  H241  1  0.01043746  0.87205923  0.84263982  1
  H+  H242  1  0.86242837  0.64000387  0.67041270  1
  H+  H243  1  0.39578521  0.87072018  0.83900336  1
  H+  H244  1  0.88938418  0.03485723  0.66691452  1
  H+  H245  1  0.74486924  0.11908938  0.83452992  1
  H+  H246  1  0.01683649  0.12465094  0.34403944  1
  H+  H247  1  0.10872869  0.47677607  0.82784192  1
  H+  H248  1  0.83025759  0.69777313  0.34466905  1
  H+  H249  1  0.73582946  0.62210873  0.67076265  1
  H+  H250  1  0.61985092  0.95832790  -0.00318917  1
  H+  H251  1  0.76501754  0.62787087  0.49763755  1
  H+  H252  1  0.14847764  0.28516565  0.84069968  1
  H+  H253  1  0.32954125  0.38061612  0.12069930  1
  H+  H254  1  0.86832170  0.88967383  1.00902763  1
  H+  H255  1  0.06647738  0.66015059  0.77171215  1
  H+  H256  1  0.25936470  0.33060422  0.02934654  1
  H+  H257  1  0.62151144  0.11573780  0.17261043  1
  H+  H258  1  0.53671957  0.38548618  0.17102205  1
  H+  H259  1  -0.02228817  0.35812408  0.50558509  1
  H+  H260  1  0.40818406  0.04389456  0.50537893  1
  H+  H261  1  0.64287685  0.78510589  0.65697819  1
  H+  H262  1  0.71767736  0.10956619  0.32769866  1
  H+  H263  1  0.09717804  0.13289359  0.16861692  1
  H+  H264  1  0.42121512  1.05509499  0.64686347  1
  H+  H265  1  0.85229798  0.50995137  0.65027970  1
  H+  H266  1  0.37111728  0.10516310  0.33191026  1
  H+  H267  1  0.87310145  -0.01489812  0.82896906  1
  H+  H268  1  0.02716693  0.14518163  0.49618065  1
  H+  H269  1  0.86216752  0.63678873  0.83133849  1
  H+  H270  1  0.35128156  0.33893244  0.02228930  1
  H+  H271  1  0.86299012  0.73254937  0.16588652  1
  H+  H272  1  0.88641283  0.12280484  0.50734444  1
  H+  H273  1  0.13099912  0.77663410  0.16710006  1
  H+  H274  1  0.61668325  0.98755024  0.48746328  1
  H+  H275  1  0.11844328  0.97077968  0.01827831  1
  H+  H276  1  0.37070913  0.38906809  0.66698586  1
  H+  H277  1  0.11224543  0.51721850  0.65736117  1
  H+  H278  1  0.61789042  0.38774063  0.00822755  1
  H+  H279  1  0.40219373  0.57931499  0.15458172  1
  H+  H280  1  0.72391902  0.11293185  0.64621827  1
  H+  H281  1  0.99036638  0.10569079  0.99195052  1
  H+  H282  1  0.38542692  0.12830352  0.17951543  1
  H+  H283  1  0.66789799  0.58604810  0.23690942  1
  H+  H284  1  0.37358816  0.00746747  0.32949126  1
  H+  H285  1  0.23803140  0.37118023  0.83842399  1
  H+  H286  1  0.11844221  0.86747839  0.65306702  1
  H+  H287  1  0.11702249  0.22450977  0.01348827  1
  H+  H288  1  0.08600821  0.41769521  0.10609964  1
  H+  H289  1  0.04685688  0.62013018  0.08233873  1
  H+  H290  1  0.20237486  0.14058203  0.91773950  1
  H+  H291  1  0.35826584  0.17651948  0.06038879  1
  H+  H292  1  0.35969141  0.93399970  0.43190064  1
  H+  H293  1  0.17832535  0.82775893  0.94368513  1
  H+  H294  1  0.17692650  0.33867878  0.56341858  1
  H+  H295  1  0.69273331  0.62871562  0.93564795  1
  H+  H296  1  0.43248132  0.85647764  0.56530776  1
  H+  H297  1  0.43498848  0.33718202  0.60084380  1
  H+  H298  1  0.67252314  0.30882389  0.27549394  1
  H+  H299  1  0.11305607  0.96711457  0.72056283  1
  H+  H300  1  -0.01003993  0.61921431  0.67751835  1
  H+  H301  1  0.43267361  0.60587608  0.95127556  1
  H+  H302  1  0.11675950  0.46423066  0.49584686  1
  H+  H303  1  0.94325220  0.58584540  1.00853919  1
  H+  H304  1  0.84119509  0.41464876  0.39865576  1
  H+  H305  1  0.40151309  0.62371360  0.31617210  1
  H+  H306  1  0.05662665  0.85927141  0.78717040  1
  H+  H307  1  0.08232741  0.91458795  0.10404612  1
  H+  H308  1  0.92611745  0.85673463  0.57362433  1
  H+  H309  1  0.68407497  0.07022066  0.92162920  1
  H+  H310  1  0.86572994  0.59550793  0.32726289  1
  H+  H311  1  0.90450668  0.58102008  0.59811696  1
  H+  H312  1  0.36164967  0.24410346  0.16544464  1
  H+  H313  1  0.59549525  0.67917712  0.06914372  1
  H+  H314  1  0.03533706  0.13405375  0.83734286  1
  H+  H315  1  0.31875627  0.89712502  0.76788934  1
  H+  H316  1  0.07823589  0.16785954  0.07449169  1
  H+  H317  1  0.33862979  0.66676087  0.38852818  1
  H+  H318  1  0.57957471  0.91702635  0.39441490  1
  H+  H319  1  0.19891564  0.85932384  0.55405662  1
  H+  H320  1  0.59650487  0.40701866  0.73048967  1
  H+  H321  1  0.90542120  0.33459125  0.59540544  1
  H+  H322  1  0.90883843  0.58674812  0.90481422  1
  H+  H323  1  0.47391305  0.12703238  0.18063165  1
  H+  H324  1  0.21852239  0.12067271  0.17570831  1
  H+  H325  1  0.07768664  0.40724287  0.40005199  1
  H+  H326  1  0.35726858  0.99106575  0.15794518  1
  H+  H327  1  0.78101772  0.88316257  0.16193819  1
  H+  H328  1  0.43597975  0.32839593  0.24849014  1
  H+  H329  1  0.77979253  0.19539674  0.71670394  1
  H+  H330  1  0.13919504  0.36333764  0.17722237  1
  H+  H331  1  0.59820825  0.92077518  0.76480994  1
  H+  H332  1  0.30730207  0.69818844  0.07624904  1
  H+  H333  1  0.60441285  0.18138232  0.72661650  1
  H+  H334  1  0.56626191  0.17514372  0.11124428  1
  H+  H335  1  0.90464588  0.07444247  0.26843610  1
  H+  H336  1  0.84406621  0.67505630  0.73289791  1
  H+  H337  1  0.83030219  0.67810266  0.07614713  1
  H+  H338  1  0.68561539  0.83736286  0.23578627  1
  H+  H339  1  0.91015557  0.32646009  0.23416839  1
  H+  H340  1  0.42863389  0.58672305  0.59108941  1
  H+  H341  1  0.67230984  0.84740318  0.59935743  1
  H+  H342  1  0.16079703  0.58370677  0.90039574  1
  H+  H343  1  0.16554880  0.08549112  0.27352298  1
  H+  H344  1  0.60019557  0.68379278  0.43117408  1
  H+  H345  1  0.83137813  0.16737097  0.43239483  1
  H+  H346  1  0.86010867  0.22314579  0.33776604  1
  H+  H347  1  0.91630227  0.83494840  0.93982855  1
  H+  H348  1  0.41616100  0.08356088  0.88758997  1
  H+  H349  1  -0.01755943  0.35997046  0.84560465  1
  H+  H350  1  0.09356129  0.17775316  0.73451553  1
  H+  H351  1  0.18098149  0.10627885  0.56294995  1
  H+  H352  1  0.15225985  0.31526473  0.27254201  1
  H+  H353  1  0.89270920  0.35892061  0.85061025  1
  H+  H354  1  0.49968497  0.35614926  0.51171312  1
  H+  H355  1  0.25636000  0.77288289  0.70470597  1
  H+  H356  1  0.08959654  0.67734461  0.43789148  1
  H+  H357  1  0.31486403  0.63652280  0.74002960  1
  H+  H358  1  0.92663490  0.83930341  0.26303278  1
  H+  H359  1  0.40397506  0.55784017  0.95312455  1
  H+  H360  1  0.36693448  0.43773440  0.39900668  1
  H+  H361  1  0.00820958  0.38233296  0.67148224  1
  H+  H362  1  0.38189608  0.73454136  0.66623802  1
  H+  H363  1  0.80810865  0.63559093  0.43254817  1
  H+  H364  1  0.74696056  0.79902410  0.37129016  1
  H+  H365  1  0.91805790  0.09525169  0.56724309  1
  H+  H366  1  0.33795819  0.93279276  0.09835955  1
  H+  H367  1  0.34256683  0.41334312  0.75916243  1
  H+  H368  1  0.40079768  0.26956288  0.98358079  1
  H+  H369  1  0.30184840  0.23571468  0.11149457  1
  H+  H370  1  0.96324535  0.11586372  0.17673145  1
  H+  H371  1  0.40202265  0.07877638  0.26685065  1
  H+  H372  1  0.83182983  0.91613865  0.44126321  1
  H+  H373  1  0.13703937  0.37004649  0.65804352  1
  H+  H374  1  0.90209154  0.53193958  0.50607886  1
  H+  H375  1  0.85723290  0.17859298  0.77298607  1
  H+  H376  1  0.66607875  0.59482516  0.58191241  1
  H+  H377  1  0.20350485  0.10146484  0.90662875  1
  H+  H378  1  0.65598721  0.07890626  0.27017110  1
  H+  H379  1  0.43143145  0.58197649  0.22703061  1
  H+  H380  1  0.00688848  0.62587991  0.33192351  1
  H+  H381  1  0.92327165  0.32224298  0.94304668  1
  H+  H382  1  0.07934425  0.93532124  0.44390875  1
  H+  H383  1  0.83510857  0.92292343  0.09999568  1
  O2-  O384  1  0.06785193  0.16342814  0.15262852  1
  O2-  O385  1  0.08709856  0.17267385  0.48025599  1
  O2-  O386  1  0.09936927  0.16386344  0.82661760  1
  O2-  O387  1  0.08568016  0.41957083  0.15165336  1
  O2-  O388  1  0.08106247  0.40543805  0.47819233  1
  O2-  O389  1  0.08494994  0.41794841  0.81026498  1
  O2-  O390  1  0.06897076  0.66076534  0.14982905  1
  O2-  O391  1  0.09218728  0.69139981  0.48092430  1
  O2-  O392  1  0.07482627  0.66644332  0.81689737  1
  O2-  O393  1  0.08406165  0.92119091  0.14927257  1
  O2-  O394  1  0.07798228  0.93902861  0.48994527  1
  O2-  O395  1  0.06968074  0.89181268  0.82498792  1
  O2-  O396  1  0.31710638  0.19992910  0.13693618  1
  O2-  O397  1  0.34812726  0.17432260  0.47804619  1
  O2-  O398  1  0.33606260  0.15156694  0.79515600  1
  O2-  O399  1  0.33286315  0.39383160  0.16511435  1
  O2-  O400  1  0.35178554  0.42246469  0.48227600  1
  O2-  O401  1  0.34507572  0.41847519  0.80506034  1
  O2-  O402  1  0.31536346  0.70370872  0.15558292  1
  O2-  O403  1  0.34047438  0.66543170  0.46223952  1
  O2-  O404  1  0.28967105  0.59930825  0.77941080  1
  O2-  O405  1  0.33338176  0.93114826  0.14357031  1
  O2-  O406  1  0.36026652  0.93394683  0.47745395  1
  O2-  O407  1  0.33054568  0.91526015  0.81089807  1
  O2-  O408  1  0.57134901  0.17149519  0.15610193  1
  O2-  O409  1  0.58109279  0.16423500  0.47041983  1
  O2-  O410  1  0.59661901  0.16439054  0.80719474  1
  O2-  O411  1  0.59535581  0.41389690  0.15278254  1
  O2-  O412  1  0.64408401  0.41118574  0.50426170  1
  O2-  O413  1  0.58713839  0.39468979  0.80850056  1
  O2-  O414  1  0.58989363  0.66487353  0.13546545  1
  O2-  O415  1  0.59377965  0.68577282  0.47693435  1
  O2-  O416  1  0.56854952  0.67466626  0.80018150  1
  O2-  O417  1  0.60959471  1.00397868  0.14934559  1
  O2-  O418  1  0.58417124  0.92423560  0.47606920  1
  O2-  O419  1  0.60236934  0.92168090  0.81064228  1
  O2-  O420  1  0.82050457  0.16484464  0.16179759  1
  O2-  O421  1  0.83176242  0.16844133  0.47806181  1
  O2-  O422  1  0.85343371  0.17135807  0.81760782  1
  O2-  O423  1  0.83289710  0.40187684  0.13969677  1
  O2-  O424  1  0.84794449  0.42551779  0.47603367  1
  O2-  O425  1  0.84533084  0.40849131  0.82918312  1
  O2-  O426  1  0.83322555  0.67287316  0.14962575  1
  O2-  O427  1  0.81823693  0.63894950  0.47717946  1
  O2-  O428  1  0.83471363  0.66960368  0.81400511  1
  O2-  O429  1  0.83886609  0.92528041  0.14547527  1
  O2-  O430  1  0.83595928  0.92759769  0.48552441  1
  O2-  O431  1  0.83587444  0.92372086  0.81470441  1
  O2-  O432  1  0.15923277  0.08403969  0.19146176  1
  O2-  O433  1  0.17821025  0.10021524  0.51771629  1
  O2-  O434  1  0.16746372  0.05585607  0.78761493  1
  O2-  O435  1  0.16142036  0.32570979  0.19186649  1
  O2-  O436  1  0.18080138  0.33866416  0.51827500  1
  O2-  O437  1  0.17882247  0.34515977  0.85523764  1
  O2-  O438  1  0.15677185  0.58639911  0.19581370  1
  O2-  O439  1  0.19439826  0.55454075  0.53341978  1
  O2-  O440  1  0.15564736  0.58162716  0.85482164  1
  O2-  O441  1  0.16014705  0.83673751  0.18156712  1
  O2-  O442  1  0.20093232  0.85511764  0.50995508  1
  O2-  O443  1  0.17376241  0.82629835  0.86259609  1
  O2-  O444  1  0.41091898  0.09456976  0.19368214  1
  O2-  O445  1  0.43786606  0.10501715  0.51808229  1
  O2-  O446  1  0.41477814  0.08272468  0.84160810  1
  O2-  O447  1  0.43255484  0.33035252  0.20297778  1
  O2-  O448  1  0.43956826  0.33370335  0.52320209  1
  O2-  O449  1  0.42154227  0.33126159  0.85056386  1
  O2-  O450  1  0.43632093  0.56616740  0.18356718  1
  O2-  O451  1  0.42786090  0.58976282  0.51632866  1
  O2-  O452  1  0.40640949  0.57785382  0.82717729  1
  O2-  O453  1  0.43853145  0.87964234  0.19016893  1
  O2-  O454  1  0.43525848  0.86071750  0.51933941  1
  O2-  O455  1  0.42691739  0.84053223  0.85103942  1
  O2-  O456  1  0.65192802  0.08367375  0.18561121  1
  O2-  O457  1  0.66295190  0.08665160  0.50889374  1
  O2-  O458  1  0.68302398  0.08510923  0.84726513  1
  O2-  O459  1  0.67339994  0.32777750  0.19301285  1
  O2-  O460  1  0.68130527  0.35600332  0.51868521  1
  O2-  O461  1  0.67233694  0.31759909  0.85904398  1
  O2-  O462  1  0.67397189  0.58266422  0.18942498  1
  O2-  O463  1  0.66057030  0.59431129  0.53653515  1
  O2-  O464  1  0.65010193  0.57081469  0.81568998  1
  O2-  O465  1  0.69413333  0.80227607  0.20229896  1
  O2-  O466  1  0.66801479  0.84728043  0.52197457  1
  O2-  O467  1  0.68297873  0.85227495  0.85616798  1
  O2-  O468  1  0.90192131  0.08437657  0.19119984  1
  O2-  O469  1  0.91835193  0.09346646  0.52220999  1
  O2-  O470  1  0.93460112  0.08535310  0.85460415  1
  O2-  O471  1  0.90726879  0.31981883  0.18824387  1
  O2-  O472  1  0.91672669  0.33251468  0.51956352  1
  O2-  O473  1  0.92360248  0.32646453  0.86308388  1
  O2-  O474  1  0.90429788  0.57504628  0.18639857  1
  O2-  O475  1  0.92543379  0.59113759  0.52260891  1
  O2-  O476  1  0.91024836  0.58603496  0.85976854  1
  O2-  O477  1  0.92139153  0.84246758  0.18926786  1
  O2-  O478  1  0.93204934  0.86492123  0.52845634  1
  O2-  O479  1  0.90844300  0.83040497  0.86066239  1
  O2-  O480  1  0.16891930  0.08763013  0.31873796  1
  O2-  O481  1  0.18373672  0.10759363  0.64016158  1
  O2-  O482  1  0.17666377  0.08331404  1.03472558  1
  O2-  O483  1  0.14773506  0.30960058  0.31741251  1
  O2-  O484  1  0.17297526  0.34471426  0.64503655  1
  O2-  O485  1  0.17033670  0.32800540  0.98661754  1
  O2-  O486  1  0.16648873  0.57493409  0.31723157  1
  O2-  O487  1  0.13947511  0.57567715  0.63958486  1
  O2-  O488  1  0.15490581  0.57702697  0.97789779  1
  O2-  O489  1  0.17481003  0.84667517  0.34441650  1
  O2-  O490  1  0.12943337  0.82137932  0.63771233  1
  O2-  O491  1  0.18476416  0.83508872  0.98845133  1
  O2-  O492  1  0.39921574  0.07262666  0.31269588  1
  O2-  O493  1  0.44530155  0.11443678  0.63354125  1
  O2-  O494  1  0.42129006  0.08314165  0.96477461  1
  O2-  O495  1  0.43733286  0.32767120  0.32545498  1
  O2-  O496  1  0.43311296  0.33950511  0.64644832  1
  O2-  O497  1  0.42540642  0.33068846  0.97151442  1
  O2-  O498  1  0.43907803  0.60117252  0.30191637  1
  O2-  O499  1  0.43046952  0.58815190  0.63715599  1
  O2-  O500  1  0.36172493  0.57426017  1.08173708  1
  O2-  O501  1  0.41293324  0.84216875  0.31140309  1
  O2-  O502  1  0.42568500  0.84318969  0.63881091  1
  O2-  O503  1  0.43572635  0.78890798  0.95945581  1
  O2-  O504  1  0.65656706  0.07891275  0.31485648  1
  O2-  O505  1  0.66235903  0.08205685  0.63494557  1
  O2-  O506  1  0.68645418  0.06076755  0.96667244  1
  O2-  O507  1  0.67543247  0.30223911  0.32011606  1
  O2-  O508  1  0.70629058  0.36026929  0.63993992  1
  O2-  O509  1  0.67806529  0.33730797  0.98009727  1
  O2-  O510  1  0.66032566  0.58860575  0.30416542  1
  O2-  O511  1  0.67245322  0.59069999  0.66101840  1
  O2-  O512  1  0.68105422  0.61776254  0.97889213  1
  O2-  O513  1  0.69721955  0.89868384  0.28955765  1
  O2-  O514  1  0.67313897  0.84705946  0.64509631  1
  O2-  O515  1  0.68176349  0.83825821  0.96941330  1
  O2-  O516  1  0.90657900  0.07334494  0.31408503  1
  O2-  O517  1  0.92257448  0.09595343  0.65260756  1
  O2-  O518  1  0.93185119  0.07630950  0.97328012  1
  O2-  O519  1  0.91509521  0.32698301  0.30881266  1
  O2-  O520  1  0.89896223  0.33721893  0.64065682  1
  O2-  O521  1  0.92413574  0.31821208  0.98829179  1
  O2-  O522  1  0.90265802  0.57259735  0.31142489  1
  O2-  O523  1  0.89298494  0.57425628  0.64322023  1
  O2-  O524  1  0.89138473  0.58035258  0.98663618  1
  O2-  O525  1  0.92910506  0.82983120  0.30861105  1
  O2-  O526  1  0.91996664  0.84625868  0.65074199  1
  O2-  O527  1  0.92248712  0.84074741  0.98486605  1
  O2-  O528  1  0.08799115  0.16446837  0.02988032  1
  O2-  O529  1  0.07684786  0.15618944  0.35903191  1
  O2-  O530  1  0.09207081  0.17694938  0.68994142  1
  O2-  O531  1  0.08811615  0.41222287  0.02725936  1
  O2-  O532  1  0.07629228  0.40650739  0.35453671  1
  O2-  O533  1  0.06928846  0.40912821  0.68464926  1
  O2-  O534  1  0.02645191  0.58494935  0.04305967  1
  O2-  O535  1  0.07136375  0.65945437  0.33806313  1
  O2-  O536  1  0.05052462  0.65182043  0.69407941  1
  O2-  O537  1  0.08770689  0.90782678  0.02513145  1
  O2-  O538  1  0.08628810  0.93279476  0.37036398  1
  O2-  O539  1  0.09578229  0.94451916  0.67909837  1
  O2-  O540  1  0.34797381  0.16512693  0.01638430  1
  O2-  O541  1  0.33368705  0.15846748  0.35750027  1
  O2-  O542  1  0.35542660  0.17863698  0.68429576  1
  O2-  O543  1  0.30505429  0.32702513  0.05226616  1
  O2-  O544  1  0.37874424  0.44578210  0.35495733  1
  O2-  O545  1  0.34189264  0.41982383  0.68361393  1
  O2-  O546  1  0.30619087  0.67758988  0.03391072  1
  O2-  O547  1  0.33475277  0.66648650  0.34238469  1
  O2-  O548  1  0.35219192  0.67401672  0.67974712  1
  O2-  O549  1  0.34284709  0.92750465  0.01842662  1
  O2-  O550  1  0.34219583  0.92713326  0.35514147  1
  O2-  O551  1  0.28021510  0.83333255  0.69409574  1
  O2-  O552  1  0.56514679  0.17267695  0.03190580  1
  O2-  O553  1  0.55459033  0.14053481  0.40697057  1
  O2-  O554  1  0.61078542  0.18848271  0.68155232  1
  O2-  O555  1  0.57869681  0.40773329  0.02284771  1
  O2-  O556  1  0.60071398  0.38687000  0.37976653  1
  O2-  O557  1  0.60155074  0.42000673  0.68590472  1
  O2-  O558  1  0.60005080  0.68393003  0.02133728  1
  O2-  O559  1  0.61208731  0.68934590  0.35636645  1
  O2-  O560  1  0.58916620  0.67932729  0.68115472  1
  O2-  O561  1  0.59310855  0.89806803  0.01133413  1
  O2-  O562  1  0.57587551  0.91771127  0.34942080  1
  O2-  O563  1  0.58584241  0.92312866  0.68838966  1
  O2-  O564  1  0.85404494  0.15004328  0.01599010  1
  O2-  O565  1  0.82746024  0.16366391  0.35491203  1
  O2-  O566  1  0.82213702  0.18905322  0.69284511  1
  O2-  O567  1  0.83105357  0.38676708  0.02405965  1
  O2-  O568  1  0.83810849  0.41081638  0.35311165  1
  O2-  O569  1  0.79802984  0.40577735  0.65993631  1
  O2-  O570  1  0.83116517  0.68108936  0.02998440  1
  O2-  O571  1  0.80257180  0.63637631  0.35288802  1
  O2-  O572  1  0.84107390  0.67823112  0.68781643  1
  O2-  O573  1  0.83561801  0.91930271  0.02083813  1
  O2-  O574  1  0.79934926  0.85556757  0.36802466  1
  O2-  O575  1  0.83557238  0.92837697  0.69228985  1
