# generated using pymatgen
data_H2O
_symmetry_space_group_name_H-M   'P 1'
_cell_length_a   17.98746332
_cell_length_b   17.98008182
_cell_length_c   21.98928796
_cell_angle_alpha   89.99442574
_cell_angle_beta   90.02576957
_cell_angle_gamma   120.03052920
_symmetry_Int_Tables_number   1
_chemical_formula_structural   H2O
_chemical_formula_sum   'H384 O192'
_cell_volume   6157.00702873
_cell_formula_units_Z   192
loop_
 _symmetry_equiv_pos_site_id
 _symmetry_equiv_pos_as_xyz
  1  'x, y, z'
loop_
 _atom_type_symbol
 _atom_type_oxidation_number
  H+  1.0
  O2-  -2.0
loop_
 _atom_site_type_symbol
 _atom_site_label
 _atom_site_symmetry_multiplicity
 _atom_site_fract_x
 _atom_site_fract_y
 _atom_site_fract_z
 _atom_site_occupancy
  H+  H0  1  0.26950916  0.14115551  0.66862129  1
  H+  H1  1  0.58432551  0.24205291  0.80945559  1
  H+  H2  1  -0.03119135  0.10056205  0.32661316  1
  H+  H3  1  0.13922322  0.51973495  0.49966804  1
  H+  H4  1  0.02097151  0.14120322  0.82599737  1
  H+  H5  1  0.26447379  0.61962720  0.35007177  1
  H+  H6  1  0.36797967  0.64684131  0.82754429  1
  H+  H7  1  0.87146339  0.73406979  0.51309433  1
  H+  H8  1  0.09676143  0.75736857  0.32604682  1
  H+  H9  1  0.76826162  0.13085609  -0.00135901  1
  H+  H10  1  0.48088640  0.62945847  0.65786460  1
  H+  H11  1  0.72867283  0.12220014  0.82967877  1
  H+  H12  1  0.64176009  1.00507253  0.16885853  1
  H+  H13  1  1.00046769  0.15083419  0.51265324  1
  H+  H14  1  0.40417056  0.36786610  0.32341652  1
  H+  H15  1  0.13467064  0.11460122  0.17548512  1
  H+  H16  1  0.13405605  0.77122114  0.85084931  1
  H+  H17  1  -0.01262189  0.14164292  0.47978126  1
  H+  H18  1  0.27412581  0.12778990  0.01068142  1
  H+  H19  1  0.38165911  0.12189281  0.67220853  1
  H+  H20  1  0.02503309  0.89008195  0.15851854  1
  H+  H21  1  0.76789719  0.12302389  0.33425139  1
  H+  H22  1  0.77764865  0.39672175  0.15266663  1
  H+  H23  1  0.48008366  0.62055857  0.84211664  1
  H+  H24  1  0.16381927  0.08301442  0.23598300  1
  H+  H25  1  0.26766115  0.12650631  0.17085021  1
  H+  H26  1  0.09384041  0.20835040  0.33011874  1
  H+  H27  1  0.61661656  0.88643185  0.34234817  1
  H+  H28  1  -0.03987786  0.35696982  0.16330385  1
  H+  H29  1  0.14716145  1.03226790  -0.00238363  1
  H+  H30  1  0.88056240  0.10362794  0.32507022  1
  H+  H31  1  0.41948724  0.82546099  0.23602509  1
  H+  H32  1  0.22877549  0.35253478  0.51046369  1
  H+  H33  1  0.75017436  0.39127228  0.48315827  1
  H+  H34  1  0.26833632  0.39966541  0.82152592  1
  H+  H35  1  0.73706675  0.09633403  0.66427869  1
  H+  H36  1  0.92476570  0.83904925  0.57321779  1
  H+  H37  1  0.72217622  0.60955531  0.83454935  1
  H+  H38  1  0.37288810  0.37609051  0.83345527  1
  H+  H39  1  0.11388844  0.39327140  0.82421006  1
  H+  H40  1  0.38893164  0.10799691  0.50998652  1
  H+  H41  1  0.90747735  0.49429687  0.48642714  1
  H+  H42  1  0.85879062  0.96908123  0.15888331  1
  H+  H43  1  0.97595104  0.61277331  0.83994430  1
  H+  H44  1  0.62654532  0.39300814  0.34017727  1
  H+  H45  1  0.61261752  0.72828330  0.82669958  1
  H+  H46  1  0.16290438  0.14805361  0.48102808  1
  H+  H47  1  0.76940487  0.87901424  0.15861954  1
  H+  H48  1  0.10769134  0.87870446  0.47817051  1
  H+  H49  1  0.03049534  0.37672161  0.49891577  1
  H+  H50  1  0.13622873  1.02034868  0.32609959  1
  H+  H51  1  0.60257966  0.25131999  0.52219681  1
  H+  H52  1  0.38780294  0.53453085  0.84131669  1
  H+  H53  1  0.86237194  0.97458830  0.33976137  1
  H+  H54  1  0.89348410  0.31779615  0.21873955  1
  H+  H55  1  0.76553554  0.39711826  0.67285756  1
  H+  H56  1  0.37677237  1.00609820  0.68348456  1
  H+  H57  1  0.32107858  0.89178682  0.38395670  1
  H+  H58  1  0.11628343  0.63773210  0.83728859  1
  H+  H59  1  0.85384181  0.38017129  -0.00515003  1
  H+  H60  1  0.40173619  0.12140649  0.33052592  1
  H+  H61  1  0.89274899  0.52575654  0.16132353  1
  H+  H62  1  0.63702653  0.86672740  0.65918563  1
  H+  H63  1  0.98550905  0.61683165  0.16875267  1
  H+  H64  1  0.13946704  0.87086460  0.17747055  1
  H+  H65  1  0.89823861  0.78450795  0.66477688  1
  H+  H66  1  0.38241352  0.79225454  0.66868652  1
  H+  H67  1  0.36116772  0.40529100  0.00497854  1
  H+  H68  1  0.10710734  0.38476955  0.00457255  1
  H+  H69  1  0.28010430  0.12701638  0.49602581  1
  H+  H70  1  0.75901720  0.36158765  0.50185535  1
  H+  H71  1  0.23226788  0.61998954  0.84059768  1
  H+  H72  1  0.13545289  0.27787663  0.83579220  1
  H+  H73  1  0.37453335  0.99038968  0.18295187  1
  H+  H74  1  0.11285011  -0.01853402  0.16421009  1
  H+  H75  1  0.39590222  0.61573836  0.33770835  1
  H+  H76  1  0.56184804  0.89109929  0.09184645  1
  H+  H77  1  0.87990821  0.86088208  0.84789485  1
  H+  H78  1  0.40019435  0.33421187  0.16875186  1
  H+  H79  1  0.13893292  1.01372199  0.50581023  1
  H+  H80  1  0.35859387  0.96939299  0.48794972  1
  H+  H81  1  0.42324954  0.60490590  0.59766945  1
  H+  H82  1  0.64426106  0.77751198  0.32551232  1
  H+  H83  1  0.87072996  0.34761399  0.31135475  1
  H+  H84  1  -0.01914088  0.34923245  0.65940611  1
  H+  H85  1  0.72373972  0.85636047  0.50591838  1
  H+  H86  1  0.64338750  0.28759857  0.16854573  1
  H+  H87  1  0.17338177  0.81132648  1.06151736  1
  H+  H88  1  0.52517181  0.39248261  -0.00049073  1
  H+  H89  1  0.67281388  0.33943677  0.26613273  1
  H+  H90  1  0.17909813  0.85442271  0.64168457  1
  H+  H91  1  0.96815985  0.86132733  0.85118933  1
  H+  H92  1  0.91117346  0.07625877  0.22874065  1
  H+  H93  1  0.17352519  0.09286399  0.93820842  1
  H+  H94  1  0.72523008  0.86671286  0.83598889  1
  H+  H95  1  0.88365411  0.63469729  0.15446046  1
  H+  H96  1  0.58369953  0.92046386  0.72640682  1
  H+  H97  1  0.63164441  0.52135443  0.83659952  1
  H+  H98  1  0.14170927  0.60892693  -0.01071144  1
  H+  H99  1  0.38299081  0.27828363  0.66136415  1
  H+  H100  1  0.88442779  0.10731518  0.16757012  1
  H+  H101  1  0.85716438  0.21715073  0.15011722  1
  H+  H102  1  0.77370258  0.12194906  0.15422307  1
  H+  H103  1  0.47498692  0.87888362  0.66601280  1
  H+  H104  1  0.72354811  0.11685869  0.50245454  1
  H+  H105  1  0.38675320  0.52536450  0.49953574  1
  H+  H106  1  0.58683262  0.86486075  0.98756313  1
  H+  H107  1  0.61053030  0.88570038  0.49752148  1
  H+  H108  1  0.11795854  0.14088543  0.00656845  1
  H+  H109  1  0.11203424  0.62954765  0.48587544  1
  H+  H110  1  0.35840687  0.34615095  0.48644282  1
  H+  H111  1  0.36646757  0.22629808  0.34277281  1
  H+  H112  1  0.11611397  0.63113787  0.33518637  1
  H+  H113  1  0.03167250  0.90775462  0.68034834  1
  H+  H114  1  0.83493696  0.91708696  0.76907264  1
  H+  H115  1  0.23141645  0.85996861  0.47767569  1
  H+  H116  1  0.50376007  0.39156745  0.82419669  1
  H+  H117  1  0.84106773  0.12565234  0.49212199  1
  H+  H118  1  0.09381306  0.38424462  0.15635628  1
  H+  H119  1  0.39585981  0.24665298  0.17658390  1
  H+  H120  1  0.37425638  0.53561417  0.17662243  1
  H+  H121  1  0.26764939  0.62685166  0.44833275  1
  H+  H122  1  0.62625029  0.23159817  0.34015254  1
  H+  H123  1  0.57326352  0.36388925  0.82308185  1
  H+  H124  1  0.11490092  0.72922662  0.69044120  1
  H+  H125  1  0.91048029  0.07780054  0.60848914  1
  H+  H126  1  0.88529735  0.11644491  0.83759899  1
  H+  H127  1  0.53240484  0.39421045  0.49454098  1
  H+  H128  1  0.47246568  0.36734369  0.66055898  1
  H+  H129  1  0.53347654  0.38114864  0.15298252  1
  H+  H130  1  0.91561219  0.83433154  -0.04983864  1
  H+  H131  1  0.73105706  0.60581616  0.99149740  1
  H+  H132  1  0.22673303  0.62336824  0.65618772  1
  H+  H133  1  0.13580412  0.27499944  -0.00808282  1
  H+  H134  1  0.20116715  0.36157907  0.16498108  1
  H+  H135  1  0.17703223  0.58514679  0.90180461  1
  H+  H136  1  0.97763249  0.85908979  0.50942202  1
  H+  H137  1  0.10970346  0.89023312  0.83949748  1
  H+  H138  1  0.88358352  0.03227060  0.99218100  1
  H+  H139  1  0.62481011  0.36098567  0.67415427  1
  H+  H140  1  0.14400349  0.88538962  0.69420238  1
  H+  H141  1  0.98026970  0.36915076  0.83492615  1
  H+  H142  1  0.77798850  0.89038646  0.67269152  1
  H+  H143  1  0.90101629  0.25434491  0.65918839  1
  H+  H144  1  0.61177433  0.63804379  0.82757647  1
  H+  H145  1  0.62828595  0.35332198  0.97845279  1
  H+  H146  1  0.36431389  -0.01792114  0.84058075  1
  H+  H147  1  0.48212664  0.84910928  0.33040774  1
  H+  H148  1  0.53918878  0.64726639  0.33974304  1
  H+  H149  1  0.13993989  0.53271256  0.65456030  1
  H+  H150  1  0.23502550  0.61797141  0.99670107  1
  H+  H151  1  0.11411908  0.71956709  0.47565375  1
  H+  H152  1  0.62983063  0.10659172  -0.01464825  1
  H+  H153  1  0.36062508  0.64649823  0.16428369  1
  H+  H154  1  0.86242229  0.97867813  0.82722976  1
  H+  H155  1  0.11693398  0.48370297  0.82634538  1
  H+  H156  1  0.36033894  0.88156424  0.49071431  1
  H+  H157  1  0.73222612  0.36760931  0.32544969  1
  H+  H158  1  0.86857784  0.38532338  0.82470232  1
  H+  H159  1  0.85971392  0.74992225  0.31488959  1
  H+  H160  1  0.86729842  0.25693205  0.31129693  1
  H+  H161  1  0.39447347  0.75813078  0.33414327  1
  H+  H162  1  0.10816247  0.71111716  -0.00357835  1
  H+  H163  1  0.13682990  0.10873320  0.32527704  1
  H+  H164  1  0.78330323  0.05204893  0.72070674  1
  H+  H165  1  0.61245421  -0.02399945  0.49643729  1
  H+  H166  1  0.98240871  0.62163394  0.50713005  1
  H+  H167  1  0.86669534  0.64540772  0.67107870  1
  H+  H168  1  0.30932125  0.41795577  0.34059924  1
  H+  H169  1  0.76608562  0.98307793  0.04559790  1
  H+  H170  1  0.90926254  0.36337659  0.50728933  1
  H+  H171  1  0.11935317  0.39406105  0.67143096  1
  H+  H172  1  0.52881778  0.15228693  0.15877626  1
  H+  H173  1  0.86295264  0.88156614  0.49603865  1
  H+  H174  1  0.25299040  0.85919183  1.01910966  1
  H+  H175  1  0.14398943  0.52120769  0.33441234  1
  H+  H176  1  0.27949577  0.89149538  0.84920606  1
  H+  H177  1  0.61194578  0.61162764  0.17141513  1
  H+  H178  1  0.31784610  0.43422649  0.09423724  1
  H+  H179  1  0.11325046  0.47609352  0.00418031  1
  H+  H180  1  0.82668927  0.15948811  0.05953033  1
  H+  H181  1  0.85865179  0.72567891  0.82963244  1
  H+  H182  1  0.97594210  0.61581126  0.66269488  1
  H+  H183  1  0.25968596  0.14609319  0.82929909  1
  H+  H184  1  1.01870870  0.62330729  0.98985484  1
  H+  H185  1  0.40450139  0.88619897  0.00436308  1
  H+  H186  1  0.97261612  0.36157544  0.99003757  1
  H+  H187  1  0.11404277  0.72895094  0.17314790  1
  H+  H188  1  0.08766389  0.42528862  0.72868033  1
  H+  H189  1  0.64757655  0.52811677  0.51032514  1
  H+  H190  1  0.18611790  0.33420446  0.30989151  1
  H+  H191  1  0.47239006  0.12666027  0.68413787  1
  H+  H192  1  0.60748521  0.24140934  0.70439665  1
  H+  H193  1  0.86981358  0.97879051  0.67425537  1
  H+  H194  1  0.12257873  0.38393008  0.49847832  1
  H+  H195  1  0.40341507  0.08859155  0.90149159  1
  H+  H196  1  0.35674895  0.73274233  0.16296280  1
  H+  H197  1  0.41363425  0.53787078  0.33428747  1
  H+  H198  1  0.86685805  0.47668784  0.32868680  1
  H+  H199  1  0.38752159  0.86700882  0.18467063  1
  H+  H200  1  0.61715913  0.98544083  0.81622372  1
  H+  H201  1  0.67141534  0.58718222  0.57134319  1
  H+  H202  1  0.37478761  0.19821692  0.02209699  1
  H+  H203  1  0.88437026  0.27105380  0.98815784  1
  H+  H204  1  0.37442789  0.90496993  0.68240734  1
  H+  H205  1  0.43101308  0.78717927  1.00083534  1
  H+  H206  1  0.46369921  0.15091250  0.85108777  1
  H+  H207  1  0.01742781  0.12999940  0.15794446  1
  H+  H208  1  0.36658522  0.65750001  0.67117449  1
  H+  H209  1  0.39750924  0.87221880  0.84938788  1
  H+  H210  1  0.97802465  0.60646581  0.31832368  1
  H+  H211  1  0.14702928  0.22820221  0.48580862  1
  H+  H212  1  0.78423651  0.01794602  0.55696916  1
  H+  H213  1  0.23045757  0.36750515  0.66224371  1
  H+  H214  1  0.89296678  0.12261917  0.98789289  1
  H+  H215  1  0.47138573  0.86609447  0.51100724  1
  H+  H216  1  0.61456890  -0.02289754  0.66525834  1
  H+  H217  1  0.84154386  0.99642126  0.51501328  1
  H+  H218  1  0.62979236  0.84926914  0.16682647  1
  H+  H219  1  0.39091244  0.10904780  0.18454403  1
  H+  H220  1  0.28367157  0.90950768  0.69877680  1
  H+  H221  1  0.63884154  0.62066869  0.66285863  1
  H+  H222  1  0.11573798  0.64212199  0.67647328  1
  H+  H223  1  0.36805601  0.29727413  0.98034822  1
  H+  H224  1  0.49298782  0.12498171  0.33006572  1
  H+  H225  1  0.22265058  0.61251983  0.17607311  1
  H+  H226  1  0.52842029  0.63408553  0.48808777  1
  H+  H227  1  0.88389657  0.85610126  0.15925138  1
  H+  H228  1  0.63957644  0.52140341  0.32324615  1
  H+  H229  1  0.11968329  0.99761046  0.68057132  1
  H+  H230  1  0.61873153  0.63590741  0.49520117  1
  H+  H231  1  0.61078420  0.13232868  0.49493073  1
  H+  H232  1  0.39554782  1.00827027  -0.01038666  1
  H+  H233  1  0.07597736  0.65030946  0.39355346  1
  H+  H234  1  0.36874308  0.28343526  0.83699581  1
  H+  H235  1  0.86287854  0.22358205  0.48916307  1
  H+  H236  1  0.62306724  0.12981130  0.77449201  1
  H+  H237  1  0.36718362  0.49024908  0.66693423  1
  H+  H238  1  0.52200885  0.13027571  0.99950454  1
  H+  H239  1  0.43324114  0.09184815  0.24391710  1
  H+  H240  1  0.11956926  0.14020470  0.67380112  1
  H+  H241  1  0.22127827  0.36764416  0.99146064  1
  H+  H242  1  0.60855962  0.71865733  0.16246459  1
  H+  H243  1  0.38592261  0.60895667  0.48011108  1
  H+  H244  1  0.65457628  0.10932184  0.66578459  1
  H+  H245  1  0.77960315  0.38432658  0.82490926  1
  H+  H246  1  0.85315353  0.88035388  0.33785203  1
  H+  H247  1  0.16653503  0.82523190  0.53216192  1
  H+  H248  1  0.51505215  0.63298122  0.16620548  1
  H+  H249  1  0.12728947  0.11614302  0.84754948  1
  H+  H250  1  0.87086721  0.63565051  0.00439790  1
  H+  H251  1  0.60881516  0.22050188  -0.00582253  1
  H+  H252  1  0.86158516  0.63826835  0.82458621  1
  H+  H253  1  0.63983417  0.10994000  0.32411130  1
  H+  H254  1  0.37754527  0.08603512  0.00002196  1
  H+  H255  1  0.41950618  0.08064363  0.56964181  1
  H+  H256  1  0.92240558  0.31797211  0.56738751  1
  H+  H257  1  0.87279531  0.63747877  0.50942934  1
  H+  H258  1  0.33823421  0.40620086  0.15721076  1
  H+  H259  1  0.88678776  0.52368551  0.83465333  1
  H+  H260  1  0.87448088  0.72906778  1.01062650  1
  H+  H261  1  0.87998994  0.72933384  0.15148761  1
  H+  H262  1  0.77476669  0.63625483  0.51153053  1
  H+  H263  1  0.60942630  0.48115402  0.67516837  1
  H+  H264  1  0.86547962  0.22952968  0.81960098  1
  H+  H265  1  0.69917385  0.87010687  -0.01108039  1
  H+  H266  1  0.62091751  0.51739053  0.16687676  1
  H+  H267  1  0.63302333  0.01752692  0.32758629  1
  H+  H268  1  0.65163587  0.37961083  0.17029142  1
  H+  H269  1  0.13235108  0.52386813  0.17688957  1
  H+  H270  1  0.13176075  0.90062301  0.01750180  1
  H+  H271  1  0.22802876  0.87236584  0.19251564  1
  H+  H272  1  0.63433951  0.76948171  0.50731828  1
  H+  H273  1  0.57173589  0.42085449  0.73444412  1
  H+  H274  1  0.00739889  0.90002113  0.33891493  1
  H+  H275  1  0.87091514  0.63779976  0.33137695  1
  H+  H276  1  0.61926575  0.47564061  -0.00094568  1
  H+  H277  1  0.40004008  0.26443409  0.51000402  1
  H+  H278  1  0.37838252  0.65319082  0.01216316  1
  H+  H279  1  0.64219556  0.61283618  0.32337716  1
  H+  H280  1  0.11849940  0.26525083  0.16284299  1
  H+  H281  1  0.87726122  0.51547819  -0.01409654  1
  H+  H282  1  0.08259313  0.92331167  0.78038942  1
  H+  H283  1  0.51403807  0.87128826  0.15596293  1
  H+  H284  1  0.02878877  0.13846648  0.67479638  1
  H+  H285  1  0.62010425  0.01403038  0.97895907  1
  H+  H286  1  0.72842176  0.62067466  0.66296400  1
  H+  H287  1  0.83307000  0.42704518  0.72610454  1
  H+  H288  1  0.80675146  0.92952048  0.06946858  1
  H+  H289  1  0.12801077  0.31368203  0.25282031  1
  H+  H290  1  0.91868397  0.58156102  0.25863325  1
  H+  H291  1  0.71429714  0.35037528  0.97419959  1
  H+  H292  1  0.91881144  0.33424538  0.89394806  1
  H+  H293  1  0.32413189  0.17195542  0.73293019  1
  H+  H294  1  0.41559414  0.59124719  0.23796637  1
  H+  H295  1  0.66429141  0.83004184  0.22917719  1
  H+  H296  1  0.20665258  0.17063713  0.61840863  1
  H+  H297  1  0.34600936  0.68346040  0.07031632  1
  H+  H298  1  0.07938265  0.16185676  0.09889722  1
  H+  H299  1  0.06785517  0.91419934  0.42984210  1
  H+  H300  1  0.63714353  0.86863288  0.83045926  1
  H+  H301  1  0.52923418  0.89501880  0.82048186  1
  H+  H302  1  0.26683800  0.29146627  0.45384071  1
  H+  H303  1  0.39710109  0.92489486  0.06549881  1
  H+  H304  1  0.59948344  0.67163161  0.39820902  1
  H+  H305  1  0.08659046  0.66620959  0.77755729  1
  H+  H306  1  0.85257736  0.42330908  0.38930182  1
  H+  H307  1  0.16482741  0.33710912  0.89516891  1
  H+  H308  1  0.89381618  0.87120795  0.66385041  1
  H+  H309  1  0.83044074  0.15517441  0.76514506  1
  H+  H310  1  0.12802754  0.82094102  0.26933218  1
  H+  H311  1  0.42327672  0.59444094  0.93377056  1
  H+  H312  1  0.33406759  0.67934051  0.73247549  1
  H+  H313  1  0.17602588  0.59013059  0.55188189  1
  H+  H314  1  0.33959055  0.16113651  0.43642980  1
  H+  H315  1  0.58253507  0.67100167  0.73335124  1
  H+  H316  1  0.67169105  0.57856695  0.93245038  1
  H+  H317  1  0.80180518  0.77760371  0.27879666  1
  H+  H318  1  0.07232482  0.42129896  0.09787352  1
  H+  H319  1  0.92399699  0.58792264  0.56884440  1
  H+  H320  1  0.10059191  0.16625209  0.39214324  1
  H+  H321  1  0.67206312  0.08627687  0.56599437  1
  H+  H322  1  0.09575014  0.38366321  0.33882305  1
  H+  H323  1  0.36784607  0.40058041  0.66890466  1
  H+  H324  1  0.91738753  0.08636000  0.89598611  1
  H+  H325  1  0.25222817  0.94854008  0.58066419  1
  H+  H326  1  0.61158913  0.34432102  0.52448727  1
  H+  H327  1  -0.01824110  0.86298784  0.00461300  1
  H+  H328  1  0.32250330  0.93219677  0.12659565  1
  H+  H329  1  0.33141251  0.43347820  0.76297768  1
  H+  H330  1  0.83644395  0.67374172  0.73117307  1
  H+  H331  1  0.72936445  0.86900648  0.32571545  1
  H+  H332  1  0.17858417  0.58156402  0.27385123  1
  H+  H333  1  0.17301214  0.07792291  0.56598021  1
  H+  H334  1  0.61613069  0.73361653  0.67509512  1
  H+  H335  1  0.09175183  0.41945337  0.40459647  1
  H+  H336  1  1.11392823  0.63985410  0.17313463  1
  H+  H337  1  0.44345701  0.84194781  0.89783730  1
  H+  H338  1  0.40961126  0.35566139  0.92356477  1
  H+  H339  1  0.14168219  0.27582036  0.66534113  1
  H+  H340  1  0.65137288  0.57512373  0.23291294  1
  H+  H341  1  0.13048246  0.02783758  0.84971698  1
  H+  H342  1  0.77906501  0.62917023  0.33594638  1
  H+  H343  1  0.59403275  0.17051794  0.39951974  1
  H+  H344  1  0.09463980  0.92985103  0.07150370  1
  H+  H345  1  0.83347728  0.91090882  0.43506055  1
  H+  H346  1  0.27718176  0.13658556  0.34131559  1
  H+  H347  1  0.88230933  0.52979574  0.65866967  1
  H+  H348  1  0.36909711  0.73575754  0.82773383  1
  H+  H349  1  0.59557233  0.42504982  0.43721321  1
  H+  H350  1  0.67168520  0.06548549  0.22767909  1
  H+  H351  1  0.08535997  0.16863215  0.76882509  1
  H+  H352  1  0.35654696  0.49057980  0.00530766  1
  H+  H353  1  0.58758741  0.42247492  0.09132762  1
  H+  H354  1  0.88141613  0.09952548  0.67239649  1
  H+  H355  1  0.51935541  0.12602411  0.49197567  1
  H+  H356  1  0.82959020  0.16029384  0.39243157  1
  H+  H357  1  0.65786502  0.09174774  0.88178257  1
  H+  H358  1  0.63654405  0.31111940  0.61907253  1
  H+  H359  1  0.90498541  0.82196580  0.21976844  1
  H+  H360  1  0.90835203  0.57840732  0.92804166  1
  H+  H361  1  0.41324620  0.84801844  0.56946494  1
  H+  H362  1  0.58188690  0.18015364  0.09621111  1
  H+  H363  1  0.86025830  0.38680980  0.14898395  1
  H+  H364  1  0.66744091  0.83415135  0.60163592  1
  H+  H365  1  0.35040914  0.85671656  0.33100171  1
  H+  H366  1  0.60434685  0.27617492  0.87954339  1
  H+  H367  1  0.51394481  0.63891228  0.03749992  1
  H+  H368  1  0.97144809  0.47892275  0.44761038  1
  H+  H369  1  0.53626977  0.38941587  0.34141448  1
  H+  H370  1  0.65162207  0.83668747  0.92411371  1
  H+  H371  1  0.17119807  0.32879517  0.57126519  1
  H+  H372  1  0.07909195  0.87234378  0.33632886  1
  H+  H373  1  0.34933065  0.14876535  0.83027198  1
  H+  H374  1  0.32590042  0.14294558  0.11145835  1
  H+  H375  1  0.42150486  0.32962299  0.56651479  1
  H+  H376  1  0.34789137  0.40375322  0.40060453  1
  H+  H377  1  0.43086935  0.32680416  0.26813521  1
  H+  H378  1  0.84966884  0.66573959  0.08751959  1
  H+  H379  1  0.58410817  0.91364932  0.40255789  1
  H+  H380  1  0.15791048  0.82790991  0.91059584  1
  H+  H381  1  0.82582858  0.41207933  0.05368320  1
  H+  H382  1  0.02685189  0.13811352  0.00377154  1
  H+  H383  1  0.26804062  0.91696351  0.58343296  1
  O2-  O384  1  0.07916728  0.16281200  0.14456282  1
  O2-  O385  1  0.16348260  0.19620730  0.45713064  1
  O2-  O386  1  0.08331193  0.17094319  0.81447829  1
  O2-  O387  1  0.06995389  0.42114379  0.14334735  1
  O2-  O388  1  0.09089235  0.41288120  0.48352853  1
  O2-  O389  1  0.08442207  0.42431245  0.80893966  1
  O2-  O390  1  0.08391085  0.66942955  0.15688018  1
  O2-  O391  1  0.07704982  0.65571808  0.47139299  1
  O2-  O392  1  0.08547074  0.66827409  0.82290988  1
  O2-  O393  1  0.08691483  0.92204314  0.14666322  1
  O2-  O394  1  0.07416182  0.90913141  0.47493873  1
  O2-  O395  1  0.07958048  0.92091150  0.82551168  1
  O2-  O396  1  0.32874328  0.15065289  0.15637531  1
  O2-  O397  1  0.34141447  0.16058237  0.48206082  1
  O2-  O398  1  0.31964696  0.17869620  0.81300145  1
  O2-  O399  1  0.30963409  0.43510881  0.14008835  1
  O2-  O400  1  0.31314972  0.35182526  0.46234350  1
  O2-  O401  1  0.33003020  0.43285524  0.80847622  1
  O2-  O402  1  0.32806024  0.67246826  0.14614279  1
  O2-  O403  1  0.32771258  0.64675435  0.43499661  1
  O2-  O404  1  0.33671952  0.67565791  0.81165063  1
  O2-  O405  1  0.33675742  0.92697990  0.16846413  1
  O2-  O406  1  0.32950706  0.91013332  0.47154678  1
  O2-  O407  1  0.34098947  0.91956089  0.83870367  1
  O2-  O408  1  0.58387141  0.19456522  0.13974391  1
  O2-  O409  1  0.58006514  0.16129526  0.47798265  1
  O2-  O410  1  0.60859788  0.13533813  0.73143887  1
  O2-  O411  1  0.59010607  0.42615080  0.13734015  1
  O2-  O412  1  0.59403518  0.42804569  0.48250783  1
  O2-  O413  1  0.56437493  0.41221100  0.81100347  1
  O2-  O414  1  0.57492948  0.65635898  0.15009347  1
  O2-  O415  1  0.59032328  0.66610902  0.47680865  1
  O2-  O416  1  0.58051339  0.66735569  0.81215823  1
  O2-  O417  1  0.57145024  0.89284451  0.13627839  1
  O2-  O418  1  0.58063887  0.91542081  0.48125233  1
  O2-  O419  1  0.58856196  0.92407615  0.80265580  1
  O2-  O420  1  0.83362107  0.15613178  0.13601930  1
  O2-  O421  1  0.82494468  0.16482952  0.47155748  1
  O2-  O422  1  0.83307192  0.16670373  0.81120462  1
  O2-  O423  1  0.83650627  0.42385915  0.13401052  1
  O2-  O424  1  0.91241694  0.44993369  0.46238130  1
  O2-  O425  1  0.83836193  0.41708166  0.81005642  1
  O2-  O426  1  0.85307060  0.66762779  0.13676812  1
  O2-  O427  1  0.83957157  0.66984119  0.50001316  1
  O2-  O428  1  0.83067165  0.66794158  0.80959389  1
  O2-  O429  1  0.82871824  0.90973176  0.14087378  1
  O2-  O430  1  0.82898291  0.90742650  0.48056209  1
  O2-  O431  1  0.83188264  0.91685891  0.81445295  1
  O2-  O432  1  0.16471908  0.08376874  0.19004163  1
  O2-  O433  1  0.17594906  0.07421103  0.51963013  1
  O2-  O434  1  0.16046694  0.08898554  0.86373247  1
  O2-  O435  1  0.14121697  0.32528998  0.17937329  1
  O2-  O436  1  0.16915053  0.32705319  0.52546254  1
  O2-  O437  1  0.16578245  0.33929050  0.84974647  1
  O2-  O438  1  0.16552107  0.58166432  0.19651081  1
  O2-  O439  1  0.17008863  0.58343910  0.50700981  1
  O2-  O440  1  0.17208076  0.58724306  0.85641036  1
  O2-  O441  1  0.16449636  0.83752874  0.19575699  1
  O2-  O442  1  0.16620771  0.82641303  0.48792998  1
  O2-  O443  1  0.16134612  0.83210075  0.86634355  1
  O2-  O444  1  0.42796378  0.08533787  0.19696262  1
  O2-  O445  1  0.41712215  0.07526604  0.52504917  1
  O2-  O446  1  0.40523824  0.10149113  0.85716599  1
  O2-  O447  1  0.43247315  0.31019155  0.18752848  1
  O2-  O448  1  0.42567782  0.32660179  0.52113151  1
  O2-  O449  1  0.40151407  0.34488509  0.85111414  1
  O2-  O450  1  0.41371711  0.59418291  0.19262651  1
  O2-  O451  1  0.41705513  0.58744683  0.50567196  1
  O2-  O452  1  0.42004986  0.59365749  0.85902515  1
  O2-  O453  1  0.41552079  0.83181770  0.19083630  1
  O2-  O454  1  0.41106872  0.84044306  0.52503981  1
  O2-  O455  1  0.43092213  0.84102491  0.85400479  1
  O2-  O456  1  0.67926833  0.06431508  0.18308828  1
  O2-  O457  1  0.66479048  0.08275618  0.52064319  1
  O2-  O458  1  0.66482358  0.09375345  0.83695372  1
  O2-  O459  1  0.67877238  0.34757387  0.18656063  1
  O2-  O460  1  0.60453352  0.29610266  0.54983799  1
  O2-  O461  1  0.56497296  0.26246668  0.84461710  1
  O2-  O462  1  0.64462103  0.57677423  0.18651771  1
  O2-  O463  1  0.67837377  0.58949231  0.52566435  1
  O2-  O464  1  0.66254772  0.58188124  0.85111105  1
  O2-  O465  1  0.66345496  0.82334081  0.18388500  1
  O2-  O466  1  0.66427263  0.82985571  0.52276998  1
  O2-  O467  1  0.66331843  0.83588613  0.84847909  1
  O2-  O468  1  0.91334317  0.07535382  0.18335015  1
  O2-  O469  1  0.84050520  0.04445428  0.53766085  1
  O2-  O470  1  0.91626540  0.08538159  0.85057102  1
  O2-  O471  1  0.89759213  0.32174393  0.17238542  1
  O2-  O472  1  0.92608571  0.32150188  0.52131274  1
  O2-  O473  1  0.91872216  0.33652431  0.84835750  1
  O2-  O474  1  0.92080208  0.58579684  0.17866146  1
  O2-  O475  1  0.92160486  0.59017820  0.52279607  1
  O2-  O476  1  0.91349174  0.58358797  0.85061244  1
  O2-  O477  1  0.91594456  0.82752189  0.17492411  1
  O2-  O478  1  0.91813767  0.82989809  0.52773544  1
  O2-  O479  1  0.90730957  0.82872639  0.86470036  1
  O2-  O480  1  0.17027756  0.08099611  0.31121722  1
  O2-  O481  1  0.18467686  0.11348277  0.63606564  1
  O2-  O482  1  0.17909696  0.09393913  0.98404115  1
  O2-  O483  1  0.12594924  0.30817890  0.29880182  1
  O2-  O484  1  0.16977851  0.33515601  0.64744449  1
  O2-  O485  1  0.16167507  0.33459013  0.97519955  1
  O2-  O486  1  0.18017432  0.58338793  0.31954816  1
  O2-  O487  1  0.16726593  0.59318933  0.63932417  1
  O2-  O488  1  0.17735665  0.58119573  0.97913300  1
  O2-  O489  1  0.09391386  0.80599335  0.30749690  1
  O2-  O490  1  0.17625534  0.85361236  0.68601423  1
  O2-  O491  1  0.18984496  0.83542218  1.02062852  1
  O2-  O492  1  0.43398640  0.09581332  0.31239666  1
  O2-  O493  1  0.41683273  0.09240766  0.66247628  1
  O2-  O494  1  0.41286753  0.06770314  0.97656509  1
  O2-  O495  1  0.43004690  0.33189085  0.31309260  1
  O2-  O496  1  0.41229977  0.33787174  0.64408681  1
  O2-  O497  1  0.41131555  0.35585866  0.97005866  1
  O2-  O498  1  0.43283036  0.59582543  0.31718996  1
  O2-  O499  1  0.42017391  0.60189340  0.64240922  1
  O2-  O500  1  0.41865442  0.59149848  0.98033000  1
  O2-  O501  1  0.42477909  0.81222067  0.31090518  1
  O2-  O502  1  0.41194646  0.85455021  0.65666473  1
  O2-  O503  1  0.46287775  0.84578060  0.97996902  1
  O2-  O504  1  0.66653085  0.07604494  0.30929496  1
  O2-  O505  1  0.67861373  0.07949172  0.64237643  1
  O2-  O506  1  0.65741813  0.07488685  0.96734578  1
  O2-  O507  1  0.67072290  0.33771410  0.31167055  1
  O2-  O508  1  0.65046713  0.32429703  0.66401318  1
  O2-  O509  1  0.65342050  0.32003225  0.96015724  1
  O2-  O510  1  0.66739773  0.58012898  0.30367584  1
  O2-  O511  1  0.66789136  0.58907467  0.64761192  1
  O2-  O512  1  0.67120318  0.57166687  0.97729418  1
  O2-  O513  1  0.66989113  0.83694701  0.30847326  1
  O2-  O514  1  0.67018755  0.83783024  0.64707713  1
  O2-  O515  1  0.64220728  0.83547696  0.96930275  1
  O2-  O516  1  0.90956148  0.07139834  0.30947226  1
  O2-  O517  1  0.92343825  0.08151786  0.65235355  1
  O2-  O518  1  0.92274682  0.09041903  0.97535464  1
  O2-  O519  1  0.89208992  0.31325775  0.29044494  1
  O2-  O520  1  0.92317171  0.31107619  0.64131371  1
  O2-  O521  1  0.91336607  0.33110783  0.97227156  1
  O2-  O522  1  0.91684190  0.57961252  0.30396802  1
  O2-  O523  1  0.91846932  0.59174606  0.64338950  1
  O2-  O524  1  0.91038238  0.57761001  0.97360462  1
  O2-  O525  1  0.86123690  0.80203870  0.29231671  1
  O2-  O526  1  0.92933152  0.84538702  0.64971377  1
  O2-  O527  1  0.91988409  0.82926491  0.99475166  1
  O2-  O528  1  0.08631442  0.16998571  0.02113048  1
  O2-  O529  1  0.07685149  0.15211767  0.34981823  1
  O2-  O530  1  0.08882135  0.16983404  0.69131082  1
  O2-  O531  1  0.07715074  0.41566333  0.01893919  1
  O2-  O532  1  0.08951072  0.42832395  0.36009436  1
  O2-  O533  1  0.08788764  0.42440358  0.68322792  1
  O2-  O534  1  0.08075402  0.64877974  0.00013257  1
  O2-  O535  1  0.07714384  0.65253441  0.34820820  1
  O2-  O536  1  0.08325506  0.66669876  0.69755309  1
  O2-  O537  1  0.09899442  0.93004809  0.02572105  1
  O2-  O538  1  0.06511741  0.91810762  0.35362201  1
  O2-  O539  1  0.09063107  0.93969933  0.69884156  1
  O2-  O540  1  0.32964257  0.14031624  0.03235995  1
  O2-  O541  1  0.33608391  0.16671777  0.35913003  1
  O2-  O542  1  0.33120004  0.17017857  0.68803017  1
  O2-  O543  1  0.32629398  0.43006766  0.02121048  1
  O2-  O544  1  0.36401174  0.43015667  0.35800029  1
  O2-  O545  1  0.33744191  0.43088397  0.68390855  1
  O2-  O546  1  0.35434569  0.68995155  0.02490821  1
  O2-  O547  1  0.32861406  0.64771790  0.36750619  1
  O2-  O548  1  0.33387587  0.68457758  0.68708083  1
  O2-  O549  1  0.37112475  0.91078082  0.02506994  1
  O2-  O550  1  0.30443401  0.86819108  0.34275194  1
  O2-  O551  1  0.34835785  0.94136419  0.70017990  1
  O2-  O552  1  0.58292398  0.16200780  0.01307785  1
  O2-  O553  1  0.59747256  0.17063476  0.35410210  1
  O2-  O554  1  0.56960145  0.19016846  0.73328198  1
  O2-  O555  1  0.58400413  0.41361312  0.01477037  1
  O2-  O556  1  0.59671499  0.42422122  0.35585993  1
  O2-  O557  1  0.57511084  0.42025815  0.68885131  1
  O2-  O558  1  0.50528590  0.60983507  -0.00185605  1
  O2-  O559  1  0.60060027  0.67344538  0.35264426  1
  O2-  O560  1  0.58330373  0.67176265  0.68767430  1
  O2-  O561  1  0.54997457  0.89300716  0.00713148  1
  O2-  O562  1  0.58351261  0.91379722  0.35701219  1
  O2-  O563  1  0.57927517  0.91631705  0.68072658  1
  O2-  O564  1  0.82854362  0.16214650  0.01363603  1
  O2-  O565  1  0.82997238  0.15451916  0.34730293  1
  O2-  O566  1  0.81213980  0.10879458  0.70165887  1
  O2-  O567  1  0.82178046  0.40940787  0.00816739  1
  O2-  O568  1  0.83621340  0.41681824  0.34586683  1
  O2-  O569  1  0.82740842  0.43440052  0.68223149  1
  O2-  O570  1  0.84338377  0.66630656  0.02455344  1
  O2-  O571  1  0.84006087  0.66738627  0.34678095  1
  O2-  O572  1  0.83725436  0.67692747  0.68557646  1
  O2-  O573  1  0.79041030  0.94850343  0.03102899  1
  O2-  O574  1  0.83069783  0.91470573  0.35780450  1
  O2-  O575  1  0.83777527  0.91719828  0.68897013  1
