# generated using pymatgen
data_H2O
_symmetry_space_group_name_H-M   'P 1'
_cell_length_a   17.99316966
_cell_length_b   17.99556680
_cell_length_c   22.00493316
_cell_angle_alpha   90.00024237
_cell_angle_beta   89.99512889
_cell_angle_gamma   120.01298092
_symmetry_Int_Tables_number   1
_chemical_formula_structural   H2O
_chemical_formula_sum   'H384 O192'
_cell_volume   6169.74288637
_cell_formula_units_Z   192
loop_
 _symmetry_equiv_pos_site_id
 _symmetry_equiv_pos_as_xyz
  1  'x, y, z'
loop_
 _atom_type_symbol
 _atom_type_oxidation_number
  H+  1.0
  O2-  -2.0
loop_
 _atom_site_type_symbol
 _atom_site_label
 _atom_site_symmetry_multiplicity
 _atom_site_fract_x
 _atom_site_fract_y
 _atom_site_fract_z
 _atom_site_occupancy
  H+  H0  1  0.22907610  0.37111578  0.84745800  1
  H+  H1  1  0.36543933  0.64480471  0.16474867  1
  H+  H2  1  0.36381064  0.47597963  0.34149242  1
  H+  H3  1  0.00705817  0.36728342  0.67083537  1
  H+  H4  1  0.42125162  0.59427053  0.59574878  1
  H+  H5  1  0.35585888  0.49336270  0.66204801  1
  H+  H6  1  0.67206116  0.84674706  0.22065641  1
  H+  H7  1  0.01134018  0.36576260  0.15177591  1
  H+  H8  1  0.86501990  0.15596071  0.49625065  1
  H+  H9  1  0.90789082  0.61357886  0.83714749  1
  H+  H10  1  0.12267274  -0.02508134  0.34394338  1
  H+  H11  1  0.85769253  0.37995852  0.81617061  1
  H+  H12  1  0.47552100  0.85805734  0.65974976  1
  H+  H13  1  0.91905715  0.51181046  0.16541183  1
  H+  H14  1  0.09958286  0.20028362  0.49421188  1
  H+  H15  1  0.77719996  0.39696454  0.47481190  1
  H+  H16  1  0.13513055  0.60479178  0.99890909  1
  H+  H17  1  0.02073366  0.88195992  0.82364992  1
  H+  H18  1  0.35918750  0.97423325  0.00556095  1
  H+  H19  1  0.39545278  0.27310751  0.99436996  1
  H+  H20  1  0.15254086  0.83129595  0.26535181  1
  H+  H21  1  0.40872210  0.36145398  0.49532465  1
  H+  H22  1  0.37534655  0.28745006  0.66550077  1
  H+  H23  1  0.85964223  0.72348688  0.66939676  1
  H+  H24  1  0.21543278  0.35294383  0.63588508  1
  H+  H25  1  0.10166036  0.24241590  0.34408819  1
  H+  H26  1  0.01800688  0.88223701  -0.00138146  1
  H+  H27  1  0.58491040  0.65152120  0.83056292  1
  H+  H28  1  0.59261399  0.21978885  0.17850467  1
  H+  H29  1  0.35701812  0.89829742  0.16695269  1
  H+  H30  1  0.52277262  0.39445390  0.00609996  1
  H+  H31  1  0.12189792  0.63725898  0.83220621  1
  H+  H32  1  0.10782599  0.46884117  0.83442704  1
  H+  H33  1  0.10598504  0.97358221  0.15799120  1
  H+  H34  1  0.35962089  0.89198207  0.81666514  1
  H+  H35  1  0.86362110  0.90238112  0.15142620  1
  H+  H36  1  0.07405332  0.18236530  0.74886958  1
  H+  H37  1  0.86030082  0.14593416  0.00012583  1
  H+  H38  1  0.12911931  0.85747262  0.99092553  1
  H+  H39  1  0.48243472  0.38372822  0.67572276  1
  H+  H40  1  0.25165372  0.10831238  0.32953838  1
  H+  H41  1  0.38607762  0.35899275  0.33491344  1
  H+  H42  1  0.51116303  0.12235790  0.67849189  1
  H+  H43  1  0.10562739  0.44746002  0.15100698  1
  H+  H44  1  0.70673787  0.61117982  0.16271664  1
  H+  H45  1  0.14119672  0.62274772  0.33693122  1
  H+  H46  1  0.87681503  0.03959945  0.82778603  1
  H+  H47  1  0.10094853  0.88425576  0.15657123  1
  H+  H48  1  0.56385597  0.15283830  0.43484458  1
  H+  H49  1  0.88795351  0.77688404  0.50918904  1
  H+  H50  1  0.51726166  0.38431703  0.83752169  1
  H+  H51  1  0.85678159  0.38778920  -0.00696180  1
  H+  H52  1  0.46998588  0.61420171  0.18295231  1
  H+  H53  1  0.96965585  0.12230470  0.83660462  1
  H+  H54  1  0.76751764  0.29320764  0.11419599  1
  H+  H55  1  0.85559849  0.87941186  0.48457182  1
  H+  H56  1  0.15433083  0.14560460  0.17237306  1
  H+  H57  1  0.35901074  0.73242863  0.49546204  1
  H+  H58  1  0.59910066  0.47377293  0.68067730  1
  H+  H59  1  0.23533543  0.36105478  1.00315737  1
  H+  H60  1  0.08232056  0.42627955  0.39734937  1
  H+  H61  1  0.09845756  0.14047729  0.69764800  1
  H+  H62  1  0.02726534  0.39460488  0.33577981  1
  H+  H63  1  0.49351745  0.87611408  0.96657113  1
  H+  H64  1  0.86138404  0.63507765  0.49321750  1
  H+  H65  1  0.22983754  0.86302030  0.65867693  1
  H+  H66  1  0.62938939  0.51281820  0.16974798  1
  H+  H67  1  0.38571042  0.38967964  0.18491139  1
  H+  H68  1  0.60483786  0.38238102  0.33150532  1
  H+  H69  1  0.42020622  0.33614358  0.93812101  1
  H+  H70  1  0.58575270  0.35652636  0.15885114  1
  H+  H71  1  0.36741115  0.03306377  0.18502337  1
  H+  H72  1  0.81438740  0.63719702  0.81476309  1
  H+  H73  1  0.88635132  0.35439171  0.16565169  1
  H+  H74  1  0.21949400  0.87398322  0.17357057  1
  H+  H75  1  0.86270830  0.38459200  0.33205208  1
  H+  H76  1  0.88569090  0.53085289  0.48885171  1
  H+  H77  1  0.62673420  0.92626032  0.83154872  1
  H+  H78  1  0.72321717  0.36919099  0.98588082  1
  H+  H79  1  0.58708296  0.67746174  0.23236133  1
  H+  H80  1  0.47180864  0.87428793  0.17104083  1
  H+  H81  1  0.96708840  0.37785892  0.50166904  1
  H+  H82  1  0.39272795  0.11595786  0.27334102  1
  H+  H83  1  0.38794386  0.76921403  0.32648070  1
  H+  H84  1  0.86710868  0.39930702  0.48375595  1
  H+  H85  1  0.88913024  0.27917195  0.32540360  1
  H+  H86  1  0.90507022  0.27315891  0.67059657  1
  H+  H87  1  0.36408493  -0.02176216  0.50732491  1
  H+  H88  1  0.24467688  0.10810628  0.49306979  1
  H+  H89  1  0.27433678  0.38765887  0.34425161  1
  H+  H90  1  0.04477553  0.63414353  0.15774370  1
  H+  H91  1  0.86093877  0.14434722  0.68824719  1
  H+  H92  1  0.40786837  0.83730217  0.88481804  1
  H+  H93  1  0.86665598  0.46197850  0.65739221  1
  H+  H94  1  0.11915853  0.97061633  0.49020457  1
  H+  H95  1  0.37616260  0.37934742  0.66940611  1
  H+  H96  1  0.38473902  0.86640350  0.50978739  1
  H+  H97  1  0.68290370  0.34843501  0.69720303  1
  H+  H98  1  0.13910948  0.86051672  0.66145429  1
  H+  H99  1  0.85483422  0.14474906  0.33982190  1
  H+  H100  1  0.11317565  0.72228176  0.00094567  1
  H+  H101  1  0.85634290  0.72585822  -0.00835691  1
  H+  H102  1  0.58149919  0.37245377  0.69290823  1
  H+  H103  1  0.38528750  0.78410776  0.17155857  1
  H+  H104  1  0.36143738  0.13997142  0.82582745  1
  H+  H105  1  0.84798222  0.13840432  0.15630209  1
  H+  H106  1  0.87777238  0.03632088  0.16375298  1
  H+  H107  1  0.65409666  0.57961262  0.94465517  1
  H+  H108  1  0.97179598  0.34890851  0.82784905  1
  H+  H109  1  -0.03528270  0.11636534  0.67396187  1
  H+  H110  1  0.63827954  0.02865451  0.50614908  1
  H+  H111  1  0.47046484  0.10767799  0.83823430  1
  H+  H112  1  0.63825253  0.36060326  0.48448888  1
  H+  H113  1  0.88484831  0.82802351  0.82003712  1
  H+  H114  1  0.64845267  0.05122181  0.98227095  1
  H+  H115  1  0.63177097  0.34641378  0.83191884  1
  H+  H116  1  0.92948671  0.65888423  0.18069754  1
  H+  H117  1  0.38625341  0.07905890  0.68810435  1
  H+  H118  1  0.48224544  0.63643296  0.50074308  1
  H+  H119  1  0.12197253  0.56082693  0.19247849  1
  H+  H120  1  0.45604929  0.64657894  0.82556121  1
  H+  H121  1  0.13608439  0.85901427  0.50723787  1
  H+  H122  1  0.13758932  0.61389183  0.66436445  1
  H+  H123  1  0.12995366  0.09895790  0.62543433  1
  H+  H124  1  0.11448402  0.23349932  0.83915290  1
  H+  H125  1  0.77141830  0.38258569  0.81820115  1
  H+  H126  1  0.72985500  0.14112380  0.98423237  1
  H+  H127  1  0.85122362  0.58502688  0.64751834  1
  H+  H128  1  0.61874371  0.67406068  0.47424311  1
  H+  H129  1  0.87834008  0.02592467  0.66605956  1
  H+  H130  1  0.73025632  0.60192981  0.52203375  1
  H+  H131  1  0.41307049  0.82515441  0.60166671  1
  H+  H132  1  0.36680926  0.72603848  0.67436755  1
  H+  H133  1  0.38258783  0.61035006  0.33241561  1
  H+  H134  1  0.11029023  0.38174602  0.83368472  1
  H+  H135  1  0.76511580  0.89117747  0.32484627  1
  H+  H136  1  0.66496917  0.32818466  0.89273828  1
  H+  H137  1  0.85868943  0.47797055  0.00423242  1
  H+  H138  1  0.89103263  0.51148866  0.31924393  1
  H+  H139  1  0.15270361  0.10584805  0.49698859  1
  H+  H140  1  0.11765511  0.48017946  0.67816702  1
  H+  H141  1  -0.11943391  0.28217179  -0.01594539  1
  H+  H142  1  0.36957545  0.94465005  0.40314676  1
  H+  H143  1  0.11197125  0.87967838  0.33726935  1
  H+  H144  1  0.60850884  0.96363688  0.32753161  1
  H+  H145  1  0.13409435  0.34631856  0.17344374  1
  H+  H146  1  0.40345822  0.54081211  0.50161753  1
  H+  H147  1  0.59231978  0.13108495  0.17797721  1
  H+  H148  1  0.34278493  0.84366416  0.98304078  1
  H+  H149  1  0.08302859  0.90856756  0.43301182  1
  H+  H150  1  0.91485705  0.82404090  0.92029539  1
  H+  H151  1  0.60719307  0.14572662  -0.00220702  1
  H+  H152  1  0.65780564  0.91812853  0.01005799  1
  H+  H153  1  0.13720787  0.77367217  0.83956302  1
  H+  H154  1  0.47530791  0.10982003  0.52042723  1
  H+  H155  1  0.57369958  0.42345354  0.77892403  1
  H+  H156  1  0.39015209  0.61782165  -0.00674726  1
  H+  H157  1  0.87286855  0.03212359  0.32091409  1
  H+  H158  1  0.74212157  0.63185461  0.32036428  1
  H+  H159  1  0.70954776  0.34878529  0.16996748  1
  H+  H160  1  0.73751743  0.86992676  0.98314500  1
  H+  H161  1  0.57995059  0.13655560  0.33177827  1
  H+  H162  1  0.27597338  0.88915725  0.49907733  1
  H+  H163  1  0.76203473  0.89905060  0.82462781  1
  H+  H164  1  0.11989275  0.72419943  0.67504925  1
  H+  H165  1  0.27875624  0.64800717  0.16609585  1
  H+  H166  1  0.67782199  0.33458200  0.54004665  1
  H+  H167  1  0.63326730  0.51885755  0.00732092  1
  H+  H168  1  0.31459083  0.40352101  0.50156665  1
  H+  H169  1  0.36858843  0.13180395  -0.00396096  1
  H+  H170  1  0.09169044  0.38603929  0.49025460  1
  H+  H171  1  0.38981745  0.62065139  0.65726281  1
  H+  H172  1  0.12562138  0.13410018  0.00948328  1
  H+  H173  1  0.36186960  0.87823529  0.67077773  1
  H+  H174  1  0.35729235  0.15576799  0.42826790  1
  H+  H175  1  0.89288634  0.51794400  0.84036399  1
  H+  H176  1  0.63436483  0.11439365  0.50736858  1
  H+  H177  1  0.97785036  0.86491555  0.50484945  1
  H+  H178  1  0.52355640  0.66396322  0.00389380  1
  H+  H179  1  0.61248936  0.75712259  0.48483328  1
  H+  H180  1  0.59911737  0.25460486  0.69776719  1
  H+  H181  1  0.62623476  0.02580065  0.17720224  1
  H+  H182  1  0.63658545  0.37316450  -0.01284755  1
  H+  H183  1  0.86921141  -0.01811736  0.99184082  1
  H+  H184  1  0.27605648  0.63883072  0.34489577  1
  H+  H185  1  0.61232032  0.89503043  0.49001375  1
  H+  H186  1  0.12734122  0.26730558  0.65047077  1
  H+  H187  1  0.62737345  0.79771103  0.83478916  1
  H+  H188  1  -0.02583738  0.86253943  0.66056775  1
  H+  H189  1  0.76022680  0.14218832  0.15839040  1
  H+  H190  1  0.88239968  0.26620996  0.16962830  1
  H+  H191  1  0.63790308  0.77539394  0.31335649  1
  H+  H192  1  0.22622527  0.60605479  0.00381993  1
  H+  H193  1  0.38688079  0.22730843  0.32646283  1
  H+  H194  1  0.10939969  0.14127289  0.83436977  1
  H+  H195  1  0.63910325  0.78507248  0.16528024  1
  H+  H196  1  0.22216334  0.61613545  0.50950851  1
  H+  H197  1  -0.00683985  0.87708294  0.33182641  1
  H+  H198  1  0.10879250  0.48339041  0.49381382  1
  H+  H199  1  0.26979769  0.14740009  0.66260025  1
  H+  H200  1  0.11372992  -0.02805628  0.66999939  1
  H+  H201  1  0.96078302  0.12215564  0.32209773  1
  H+  H202  1  0.38429194  0.36681538  0.84838586  1
  H+  H203  1  0.17690421  0.33683506  0.48353808  1
  H+  H204  1  0.61172662  0.20223367  0.83277117  1
  H+  H205  1  0.63301164  0.86168402  0.31579200  1
  H+  H206  1  0.22559458  0.61111421  0.66193702  1
  H+  H207  1  0.77232731  0.14740725  0.49412048  1
  H+  H208  1  0.61817125  0.51468081  0.85449247  1
  H+  H209  1  0.60891947  0.89564208  0.15916174  1
  H+  H210  1  0.61975634  0.64729936  0.33355404  1
  H+  H211  1  0.89860397  0.74098233  0.82610774  1
  H+  H212  1  0.77927659  0.15576195  0.68431523  1
  H+  H213  1  0.35957684  0.49866648  0.83351861  1
  H+  H214  1  0.35794550  0.37468712  0.01201124  1
  H+  H215  1  0.14283170  0.67214385  0.15868459  1
  H+  H216  1  0.72402975  0.60668916  0.67690321  1
  H+  H217  1  0.13270309  0.38170420  0.00301331  1
  H+  H218  1  0.14229663  0.37520860  0.32841169  1
  H+  H219  1  0.26576912  0.89032095  1.00957535  1
  H+  H220  1  0.14001465  0.27423120  1.00054458  1
  H+  H221  1  0.72429507  0.86786120  0.50037591  1
  H+  H222  1  0.21994942  0.11238492  0.83964732  1
  H+  H223  1  0.60928669  0.63343666  0.67916458  1
  H+  H224  1  0.23187737  0.59998300  0.84783107  1
  H+  H225  1  0.28116073  0.13607415  0.00206857  1
  H+  H226  1  0.45915121  0.11695457  0.19083843  1
  H+  H227  1  0.63476919  0.58462438  0.52865920  1
  H+  H228  1  0.90958138  0.67953420  0.16218643  1
  H+  H229  1  0.50317148  0.15394045  0.34351024  1
  H+  H230  1  0.87880120  0.28970022  0.50252883  1
  H+  H231  1  0.36337078  0.16070466  0.66039517  1
  H+  H232  1  0.47297372  0.86535057  0.50495596  1
  H+  H233  1  0.04483561  0.13158530  0.04289323  1
  H+  H234  1  0.37080887  0.97266706  0.66667770  1
  H+  H235  1  0.63657492  0.77247160  0.65566687  1
  H+  H236  1  0.48241984  0.36572703  0.32956800  1
  H+  H237  1  0.03069905  0.63090043  0.83266722  1
  H+  H238  1  0.36045963  0.64433151  0.49623928  1
  H+  H239  1  0.63852975  0.11746277  0.66668943  1
  H+  H240  1  0.36016249  0.48367882  0.16392498  1
  H+  H241  1  0.73437056  0.61629755  0.99788303  1
  H+  H242  1  0.13073369  0.02329063  0.83868444  1
  H+  H243  1  0.96857297  0.86888224  0.16974421  1
  H+  H244  1  0.47389652  0.37390149  0.18181951  1
  H+  H245  1  0.60899166  0.97351843  0.67211409  1
  H+  H246  1  0.60961470  0.88613220  0.66524708  1
  H+  H247  1  0.85568156  0.91498668  0.83810599  1
  H+  H248  1  0.86223921  0.88824845  0.67014158  1
  H+  H249  1  0.52996306  0.37801663  0.48502361  1
  H+  H250  1  0.22393626  0.86470293  0.83545361  1
  H+  H251  1  0.80995937  0.38371630  0.08386681  1
  H+  H252  1  0.63551766  0.07339947  0.36484334  1
  H+  H253  1  0.47936666  0.88102279  0.83335613  1
  H+  H254  1  0.39606304  0.91215574  0.34644723  1
  H+  H255  1  0.11335369  0.72858661  0.49651339  1
  H+  H256  1  0.37527247  0.13136578  0.49545817  1
  H+  H257  1  0.37945861  0.27475738  0.84226651  1
  H+  H258  1  0.12780728  0.77189999  0.32539867  1
  H+  H259  1  -0.03268960  0.10956347  0.51494611  1
  H+  H260  1  0.62094853  0.46604043  0.49156294  1
  H+  H261  1  0.47541373  0.11126986  -0.01052031  1
  H+  H262  1  0.59827601  0.22850351  0.99769975  1
  H+  H263  1  0.82724912  0.74354609  0.14902710  1
  H+  H264  1  0.72540333  0.86146487  0.65531876  1
  H+  H265  1  0.11298307  0.88980313  0.82532613  1
  H+  H266  1  0.40087442  0.17110578  0.14863181  1
  H+  H267  1  1.02636151  0.63059414  0.34100517  1
  H+  H268  1  0.59786179  0.10520992  0.83182937  1
  H+  H269  1  0.60403669  0.62897360  0.18118963  1
  H+  H270  1  0.34444251  0.71547683  0.00633023  1
  H+  H271  1  0.69901366  0.60874362  0.85733233  1
  H+  H272  1  0.85987356  0.90573674  0.31899284  1
  H+  H273  1  0.63114447  0.27554430  0.32882970  1
  H+  H274  1  -0.02687809  0.61408093  -0.00511367  1
  H+  H275  1  0.90080602  0.84054558  0.36071611  1
  H+  H276  1  0.40251332  0.26948057  0.49371127  1
  H+  H277  1  0.37870574  0.71517689  0.83096549  1
  H+  H278  1  0.13275243  0.78329533  0.16818345  1
  H+  H279  1  0.60932725  0.22085421  0.48625804  1
  H+  H280  1  0.97503889  0.62100593  0.49820775  1
  H+  H281  1  0.88010558  0.56187730  0.58559195  1
  H+  H282  1  0.53536273  0.91335887  -0.04358377  1
  H+  H283  1  0.63979879  0.79095718  -0.00881583  1
  H+  H284  1  0.57138793  0.14518999  0.73982837  1
  H+  H285  1  0.28736984  0.76675903  0.93875234  1
  H+  H286  1  0.17134728  0.12065934  0.33686907  1
  H+  H287  1  0.12559329  0.47794681  0.00478613  1
  H+  H288  1  0.84327071  0.92560085  0.05283252  1
  H+  H289  1  0.83114264  0.17861300  0.40155313  1
  H+  H290  1  0.52174239  0.63628178  0.67062753  1
  H+  H291  1  0.66269553  0.33586722  0.23568535  1
  H+  H292  1  0.91645716  0.58231697  0.93464488  1
  H+  H293  1  0.32889834  0.40693443  0.07079659  1
  H+  H294  1  0.41576318  0.08358269  0.58127852  1
  H+  H295  1  0.41450824  0.83058389  0.26667862  1
  H+  H296  1  0.90196151  0.33326705  0.92225839  1
  H+  H297  1  0.66618208  0.85132206  0.89632358  1
  H+  H298  1  0.85670117  0.41700738  0.72225145  1
  H+  H299  1  0.27705618  0.43398555  0.70639121  1
  H+  H300  1  0.27366056  0.39045856  0.16734159  1
  H+  H301  1  0.02627677  0.21387857  0.38948432  1
  H+  H302  1  0.49163614  0.30544522  0.12813959  1
  H+  H303  1  0.33568739  0.66981792  0.40370252  1
  H+  H304  1  0.66538527  0.83922053  0.56189341  1
  H+  H305  1  0.08883342  0.66914667  0.06249842  1
  H+  H306  1  0.66792340  0.57041800  0.61768707  1
  H+  H307  1  0.90074276  0.08766437  0.91761829  1
  H+  H308  1  0.13533611  0.01966252  0.99288285  1
  H+  H309  1  0.07362242  0.14338907  0.43674061  1
  H+  H310  1  0.10890071  0.63730454  0.49728365  1
  H+  H311  1  0.18372636  0.07296469  0.24206871  1
  H+  H312  1  0.89036023  0.73599168  0.31804641  1
  H+  H313  1  0.91414131  0.10262279  0.57433247  1
  H+  H314  1  0.17047464  0.33866613  0.27110244  1
  H+  H315  1  0.17176621  0.57569801  0.90638448  1
  H+  H316  1  0.90973430  0.84456912  0.22871966  1
  H+  H317  1  0.35032160  0.43830437  0.77933603  1
  H+  H318  1  0.60468629  0.66756545  0.03524616  1
  H+  H319  1  0.57137944  0.67852271  0.76431848  1
  H+  H320  1  0.08331679  0.40420413  0.06108958  1
  H+  H321  1  0.42123328  0.61347021  0.92791915  1
  H+  H322  1  0.18205232  0.07418982  0.58320326  1
  H+  H323  1  0.58048244  0.41541261  0.39093111  1
  H+  H324  1  0.90095911  0.60310598  0.30142887  1
  H+  H325  1  0.47196251  0.61116790  0.32497131  1
  H+  H326  1  0.77446539  0.89971156  0.14507645  1
  H+  H327  1  0.67263096  0.58925517  0.26849792  1
  H+  H328  1  0.80771876  0.66053963  0.44588789  1
  H+  H329  1  0.07255368  0.91249755  0.06085243  1
  H+  H330  1  0.08178405  0.66846102  0.40311323  1
  H+  H331  1  0.80559111  0.68533186  0.08983926  1
  H+  H332  1  0.83156677  0.17551549  0.06123296  1
  H+  H333  1  0.88853808  0.67661672  0.36977625  1
  H+  H334  1  0.72459735  0.36195743  0.32613497  1
  H+  H335  1  0.85266100  0.66981823  0.72908591  1
  H+  H336  1  0.16455610  0.08120080  0.93439723  1
  H+  H337  1  0.92060212  0.33388338  0.26353807  1
  H+  H338  1  0.15634003  0.27087153  0.18197257  1
  H+  H339  1  0.32704182  0.91836644  0.75824517  1
  H+  H340  1  0.13323085  0.18047132  0.11244907  1
  H+  H341  1  0.71361350  1.00423096  0.04562584  1
  H+  H342  1  0.72609737  0.12252421  0.33431853  1
  H+  H343  1  0.57526926  0.41100431  0.06755640  1
  H+  H344  1  0.33344176  0.66777511  0.07088950  1
  H+  H345  1  0.33061995  0.17227684  0.76826094  1
  H+  H346  1  0.40317632  0.58051755  0.23658840  1
  H+  H347  1  0.16390343  0.83274446  0.93170449  1
  H+  H348  1  0.83663640  0.42030164  0.39113779  1
  H+  H349  1  0.73264416  0.34215681  0.60960980  1
  H+  H350  1  0.82370504  0.90738522  0.42459599  1
  H+  H351  1  0.70551761  0.29370654  0.60927274  1
  H+  H352  1  0.89968337  0.09186104  0.22464412  1
  H+  H353  1  0.09004901  0.42085705  0.73870701  1
  H+  H354  1  0.13976528  0.53209693  0.33129505  1
  H+  H355  1  0.96722567  0.12329964  0.97094271  1
  H+  H356  1  0.67431164  0.09359570  0.60806669  1
  H+  H357  1  0.17210588  0.33811254  0.90777686  1
  H+  H358  1  0.59482656  0.93725884  0.10163771  1
  H+  H359  1  0.41965712  0.35354369  0.25413944  1
  H+  H360  1  0.13805594  0.31089680  0.55080191  1
  H+  H361  1  0.09250815  0.66670953  0.73473408  1
  H+  H362  1  0.91292044  0.36872792  0.65967563  1
  H+  H363  1  0.85898111  0.22588805  0.78057383  1
  H+  H364  1  0.16320710  0.58343210  0.56942701  1
  H+  H365  1  0.17975821  0.60833109  0.24854773  1
  H+  H366  1  0.24411923  0.08827720  0.18595713  1
  H+  H367  1  0.82805897  0.91553942  0.72865492  1
  H+  H368  1  0.58034768  0.91848350  0.42946643  1
  H+  H369  1  0.08357682  0.91813949  0.73238376  1
  H+  H370  1  0.95365200  0.55017261  0.23073787  1
  H+  H371  1  0.85901123  0.63698179  0.00003964  1
  H+  H372  1  0.65658182  0.08271072  0.23755722  1
  H+  H373  1  0.91709061  0.83759407  0.60019340  1
  H+  H374  1  0.58217808  0.68348181  0.38566644  1
  H+  H375  1  0.16659977  0.83080708  0.56750000  1
  H+  H376  1  0.51835065  0.87512698  0.33126942  1
  H+  H377  1  0.37786504  0.02445540  0.83286071  1
  H+  H378  1  0.34138626  0.66284852  0.73259846  1
  H+  H379  1  0.38021689  0.19664417  0.08362689  1
  H+  H380  1  0.41232158  0.07595373  0.93069338  1
  H+  H381  1  0.32903482  0.92821289  0.10773669  1
  H+  H382  1  0.88775918  0.86121040  0.97858765  1
  H+  H383  1  0.34888254  0.42564555  0.43257484  1
  O2-  O384  1  0.12939534  0.18024490  0.15705112  1
  O2-  O385  1  0.08173276  0.14073093  0.48094514  1
  O2-  O386  1  0.08082875  0.17434389  0.82172741  1
  O2-  O387  1  0.07205918  0.38982980  0.13430030  1
  O2-  O388  1  0.07375355  0.42584378  0.47366679  1
  O2-  O389  1  0.07857660  0.40964806  0.81708152  1
  O2-  O390  1  0.09886748  0.68304644  0.14032057  1
  O2-  O391  1  0.08012484  0.66812144  0.48026342  1
  O2-  O392  1  0.09132096  0.66688366  0.81786712  1
  O2-  O393  1  0.07047253  0.91493916  0.14119782  1
  O2-  O394  1  0.08155843  0.90909129  0.47855223  1
  O2-  O395  1  0.08264335  0.91991863  0.81011543  1
  O2-  O396  1  0.40408588  0.21935723  0.12464376  1
  O2-  O397  1  0.34794153  0.16028041  0.47197729  1
  O2-  O398  1  0.33034909  0.17127930  0.81309755  1
  O2-  O399  1  0.33461298  0.42156276  0.15190977  1
  O2-  O400  1  0.36619512  0.43506067  0.47712382  1
  O2-  O401  1  0.34020711  0.43785041  0.82305130  1
  O2-  O402  1  0.33709311  0.67637683  0.14803241  1
  O2-  O403  1  0.32740361  0.67105794  0.48055678  1
  O2-  O404  1  0.34786579  0.65337915  0.81780145  1
  O2-  O405  1  0.32568464  0.92801478  0.15286813  1
  O2-  O406  1  0.33811314  0.92008738  0.48843633  1
  O2-  O407  1  0.32632293  0.91990812  0.80416096  1
  O2-  O408  1  0.55586085  0.15728566  0.17164612  1
  O2-  O409  1  0.57406161  0.15762829  0.47943463  1
  O2-  O410  1  0.57357516  0.14241835  0.81887591  1
  O2-  O411  1  0.54167148  0.36637074  0.13773299  1
  O2-  O412  1  0.59148413  0.41185900  0.46828105  1
  O2-  O413  1  0.57831645  0.41943218  0.82340689  1
  O2-  O414  1  0.57958232  0.66753824  0.18855065  1
  O2-  O415  1  0.58117387  0.69677156  0.46457087  1
  O2-  O416  1  0.56270084  0.68417833  0.80909351  1
  O2-  O417  1  0.57833594  0.92625480  0.14552532  1
  O2-  O418  1  0.58042271  0.92339852  0.47436395  1
  O2-  O419  1  0.59210145  0.95405741  0.81969229  1
  O2-  O420  1  0.81943854  0.17203313  0.14099417  1
  O2-  O421  1  0.83185975  0.18120508  0.47711794  1
  O2-  O422  1  0.86707851  0.23240109  0.82546669  1
  O2-  O423  1  0.79669667  0.35396608  0.12512883  1
  O2-  O424  1  0.83904106  0.43129908  0.46337295  1
  O2-  O425  1  0.83227417  0.41578833  0.80412833  1
  O2-  O426  1  0.78101295  0.69344419  0.12754324  1
  O2-  O427  1  0.82376087  0.66398097  0.48850768  1
  O2-  O428  1  0.87443370  0.67195571  0.80385654  1
  O2-  O429  1  0.83536670  0.93122843  0.13095225  1
  O2-  O430  1  0.81526423  0.89709949  0.46867104  1
  O2-  O431  1  0.82307410  0.92724602  0.80841182  1
  O2-  O432  1  0.18534830  0.07240055  0.19669327  1
  O2-  O433  1  0.18467979  0.07639052  0.51031576  1
  O2-  O434  1  0.16002741  0.08343151  0.85537566  1
  O2-  O435  1  0.17409067  0.33247225  0.19463965  1
  O2-  O436  1  0.12289968  0.30744064  0.50562359  1
  O2-  O437  1  0.16913932  0.33771015  0.86233410  1
  O2-  O438  1  0.17822354  0.60949621  0.20210726  1
  O2-  O439  1  0.16127208  0.58385171  0.52373122  1
  O2-  O440  1  0.17153853  0.57462877  0.86105026  1
  O2-  O441  1  0.15720646  0.84233588  0.18547663  1
  O2-  O442  1  0.16751189  0.82983355  0.52179153  1
  O2-  O443  1  0.16490876  0.83483615  0.85352444  1
  O2-  O444  1  0.39529041  0.09357622  0.19978083  1
  O2-  O445  1  0.41492892  0.08328485  0.53498311  1
  O2-  O446  1  0.40852587  0.08400885  0.84988050  1
  O2-  O447  1  0.42530449  0.37148569  0.20669507  1
  O2-  O448  1  0.43652773  0.32928305  0.50933418  1
  O2-  O449  1  0.41308552  0.33425598  0.85956984  1
  O2-  O450  1  0.40665752  0.58389165  0.19100253  1
  O2-  O451  1  0.42419878  0.59918906  0.51868971  1
  O2-  O452  1  0.39655318  0.61485277  0.84431600  1
  O2-  O453  1  0.41229235  0.84373570  0.18794850  1
  O2-  O454  1  0.41385519  0.83277411  0.52197415  1
  O2-  O455  1  0.41790327  0.83770488  0.84062747  1
  O2-  O456  1  0.65831795  0.08631209  0.19301177  1
  O2-  O457  1  0.66881707  0.08843646  0.52225853  1
  O2-  O458  1  0.63267051  0.03353902  0.84616264  1
  O2-  O459  1  0.65419725  0.33174997  0.19034856  1
  O2-  O460  1  0.67152505  0.33032620  0.49582327  1
  O2-  O461  1  0.66482235  0.32038519  0.84761668  1
  O2-  O462  1  0.65412413  0.57009474  0.18723295  1
  O2-  O463  1  0.67140400  0.56117929  0.53931804  1
  O2-  O464  1  0.64078075  0.57429093  0.87278905  1
  O2-  O465  1  0.66983805  0.84698697  0.17512674  1
  O2-  O466  1  0.66348161  0.84326143  0.51634079  1
  O2-  O467  1  0.66454252  0.85660364  0.85061710  1
  O2-  O468  1  0.89924586  0.09519079  0.17970657  1
  O2-  O469  1  0.91633702  0.11045156  0.52968346  1
  O2-  O470  1  0.90839424  0.09573482  0.84839076  1
  O2-  O471  1  0.91937767  0.32860203  0.18281537  1
  O2-  O472  1  0.90620108  0.35114316  0.51446121  1
  O2-  O473  1  0.90881572  0.32480744  0.83688759  1
  O2-  O474  1  0.97138383  0.53985097  0.18959876  1
  O2-  O475  1  0.91149966  0.59061567  0.50641003  1
  O2-  O476  1  0.92719917  0.57624694  0.85877930  1
  O2-  O477  1  0.90777218  0.84450072  0.18426768  1
  O2-  O478  1  0.91761182  0.83831357  0.52074853  1
  O2-  O479  1  0.92095671  0.81467844  0.84540186  1
  O2-  O480  1  0.18842785  0.08117797  0.32035321  1
  O2-  O481  1  0.17131292  0.07910754  0.62825543  1
  O2-  O482  1  0.16719265  0.08138781  0.97988673  1
  O2-  O483  1  0.16997397  0.34057660  0.31682488  1
  O2-  O484  1  0.16149715  0.30828137  0.61802359  1
  O2-  O485  1  0.17167120  0.33471069  0.98574190  1
  O2-  O486  1  0.17322418  0.59442265  0.31999560  1
  O2-  O487  1  0.16540010  0.58047725  0.64733312  1
  O2-  O488  1  0.16586828  0.57339433  0.98635811  1
  O2-  O489  1  0.15176275  0.83169560  0.31052857  1
  O2-  O490  1  0.16854100  0.83092281  0.64436765  1
  O2-  O491  1  0.16162386  0.82883920  0.97730252  1
  O2-  O492  1  0.40332674  0.12482086  0.31898108  1
  O2-  O493  1  0.41996009  0.07664349  0.65447729  1
  O2-  O494  1  0.41213421  0.07518535  0.97595612  1
  O2-  O495  1  0.41705707  0.33282845  0.31417415  1
  O2-  O496  1  0.40970737  0.35126670  0.65733493  1
  O2-  O497  1  0.42325051  0.33577210  0.98335746  1
  O2-  O498  1  0.40965825  0.57783217  0.31443376  1
  O2-  O499  1  0.41820720  0.58800483  0.64118809  1
  O2-  O500  1  0.42947341  0.60406180  0.97072442  1
  O2-  O501  1  0.42167808  0.82955272  0.31157701  1
  O2-  O502  1  0.41279000  0.82314753  0.64705912  1
  O2-  O503  1  0.34357346  0.79683161  0.95810281  1
  O2-  O504  1  0.66238540  0.08626484  0.32475624  1
  O2-  O505  1  0.67546912  0.09353423  0.65313009  1
  O2-  O506  1  0.66951372  0.11093178  0.97011240  1
  O2-  O507  1  0.66391950  0.33465853  0.31137100  1
  O2-  O508  1  0.62098256  0.31924389  0.70308131  1
  O2-  O509  1  0.66316487  0.34140119  0.96963714  1
  O2-  O510  1  0.68158765  0.61104832  0.31068670  1
  O2-  O511  1  0.66219024  0.57404352  0.66247741  1
  O2-  O512  1  0.66614430  0.58246995  0.99030841  1
  O2-  O513  1  0.66741150  0.83612665  0.29827525  1
  O2-  O514  1  0.66588314  0.83128655  0.63824549  1
  O2-  O515  1  0.67663992  0.84897233  0.97105087  1
  O2-  O516  1  0.90099113  0.09303690  0.30654484  1
  O2-  O517  1  0.90590017  0.08867113  0.65688976  1
  O2-  O518  1  0.90562802  0.08697089  0.96468137  1
  O2-  O519  1  0.92244969  0.33901472  0.30868701  1
  O2-  O520  1  0.94372670  0.33294260  0.65207036  1
  O2-  O521  1  0.90442512  0.34080418  0.96671542  1
  O2-  O522  1  0.93114615  0.56991428  0.30057737  1
  O2-  O523  1  0.85002283  0.53739396  0.62432386  1
  O2-  O524  1  0.91261977  0.58642069  0.98019791  1
  O2-  O525  1  0.92802883  0.84634009  0.32118006  1
  O2-  O526  1  0.91368176  0.83413258  0.64554373  1
  O2-  O527  1  0.91375498  0.82569930  0.96639172  1
  O2-  O528  1  0.10311070  0.17051059  0.02905382  1
  O2-  O529  1  0.05518044  0.18999088  0.36560943  1
  O2-  O530  1  0.07289312  0.17665800  0.70287741  1
  O2-  O531  1  0.09772281  0.41371021  0.01618230  1
  O2-  O532  1  0.08748405  0.42582387  0.35173360  1
  O2-  O533  1  0.09237593  0.41967054  0.69349242  1
  O2-  O534  1  0.08460707  0.66216685  0.01727220  1
  O2-  O535  1  0.08532668  0.66795161  0.35749063  1
  O2-  O536  1  0.09301013  0.66409238  0.68978813  1
  O2-  O537  1  0.07757010  0.91333604  0.01557930  1
  O2-  O538  1  0.08435578  0.91393863  0.35546323  1
  O2-  O539  1  0.08146866  0.91328157  0.68672872  1
  O2-  O540  1  0.34353557  0.16815446  0.01082543  1
  O2-  O541  1  0.35690076  0.16633428  0.34249216  1
  O2-  O542  1  0.32902287  0.18310675  0.67971231  1
  O2-  O543  1  0.32137372  0.39836992  0.02626065  1
  O2-  O544  1  0.33531895  0.41605905  0.35871750  1
  O2-  O545  1  0.31896185  0.43216292  0.67922071  1
  O2-  O546  1  0.32615560  0.65897616  0.02572473  1
  O2-  O547  1  0.33746777  0.66637707  0.35812862  1
  O2-  O548  1  0.33771469  0.66361621  0.68786595  1
  O2-  O549  1  0.32628584  0.91495638  0.02369251  1
  O2-  O550  1  0.39700601  0.96330053  0.36306065  1
  O2-  O551  1  0.33313340  0.91153548  0.68263272  1
  O2-  O552  1  0.56916575  0.16847590  0.01187720  1
  O2-  O553  1  0.56403452  0.17287287  0.35510801  1
  O2-  O554  1  0.57402401  0.15786363  0.69543776  1
  O2-  O555  1  0.58337825  0.42719568  0.02323572  1
  O2-  O556  1  0.57086518  0.40888070  0.34619336  1
  O2-  O557  1  0.55568961  0.41363747  0.69511345  1
  O2-  O558  1  0.57831128  0.70222358  0.02674026  1
  O2-  O559  1  0.58199636  0.67344909  0.34105491  1
  O2-  O560  1  0.58024787  0.66672608  0.68941476  1
  O2-  O561  1  0.65438444  0.96363887  0.03472492  1
  O2-  O562  1  0.58120911  0.90556825  0.34522248  1
  O2-  O563  1  0.57511029  0.91119303  0.68025316  1
  O2-  O564  1  0.83474915  0.17985150  0.01602569  1
  O2-  O565  1  0.82785937  0.17817075  0.35554478  1
  O2-  O566  1  0.83970859  0.18425371  0.70022182  1
  O2-  O567  1  0.82559000  0.41541825  0.01372560  1
  O2-  O568  1  0.83184423  0.41532030  0.34505761  1
  O2-  O569  1  0.86550887  0.41199203  0.67842890  1
  O2-  O570  1  0.82443692  0.66582055  0.00961650  1
  O2-  O571  1  0.86321624  0.67420579  0.33013335  1
  O2-  O572  1  0.83079973  0.66405176  0.68614261  1
  O2-  O573  1  0.84386131  0.92190458  0.00732708  1
  O2-  O574  1  0.82600176  0.92634070  0.34069269  1
  O2-  O575  1  0.82948746  0.91698283  0.68355161  1
