# generated using pymatgen
data_H2O
_symmetry_space_group_name_H-M   'P 1'
_cell_length_a   17.98539924
_cell_length_b   17.98554860
_cell_length_c   21.99375262
_cell_angle_alpha   90.02573496
_cell_angle_beta   90.00532325
_cell_angle_gamma   119.99118596
_symmetry_Int_Tables_number   1
_chemical_formula_structural   H2O
_chemical_formula_sum   'H384 O192'
_cell_volume   6161.86575580
_cell_formula_units_Z   192
loop_
 _symmetry_equiv_pos_site_id
 _symmetry_equiv_pos_as_xyz
  1  'x, y, z'
loop_
 _atom_type_symbol
 _atom_type_oxidation_number
  H+  1.0
  O2-  -2.0
loop_
 _atom_site_type_symbol
 _atom_site_label
 _atom_site_symmetry_multiplicity
 _atom_site_fract_x
 _atom_site_fract_y
 _atom_site_fract_z
 _atom_site_occupancy
  H+  H0  1  0.86985200  0.89085010  0.16536061  1
  H+  H1  1  0.10569168  0.38254239  0.34303785  1
  H+  H2  1  0.62558336  0.38186915  0.00245174  1
  H+  H3  1  0.61063547  0.46868825  0.83359763  1
  H+  H4  1  0.65193104  0.78698226  0.17207638  1
  H+  H5  1  0.82927696  0.78236405  0.82900796  1
  H+  H6  1  0.40102842  0.02511159  0.17250312  1
  H+  H7  1  0.11957310  0.63773416  0.99792263  1
  H+  H8  1  0.62013784  0.19109509  0.67474028  1
  H+  H9  1  0.13159312  0.11517393  0.83939794  1
  H+  H10  1  0.73879648  0.35863054  0.98900365  1
  H+  H11  1  0.51520646  0.40450149  0.32624337  1
  H+  H12  1  0.35264773  0.89515154  0.66508408  1
  H+  H13  1  0.67379562  0.86576515  0.26553096  1
  H+  H14  1  0.61159963  0.37823455  0.83589919  1
  H+  H15  1  0.27745275  0.14208758  1.00972757  1
  H+  H16  1  0.54585962  0.65889853  0.15751062  1
  H+  H17  1  0.84651651  -0.00542704  0.49978209  1
  H+  H18  1  0.12341207  0.97677302  0.48225990  1
  H+  H19  1  0.33475567  0.41609093  0.13379842  1
  H+  H20  1  0.40197484  0.83122369  0.81901062  1
  H+  H21  1  0.46694072  0.15637088  0.94348857  1
  H+  H22  1  0.35019761  0.87536562  0.49352452  1
  H+  H23  1  0.59994437  0.97339060  0.49644291  1
  H+  H24  1  0.67580310  0.84944717  0.59889039  1
  H+  H25  1  0.11254609  0.88344190  0.48229866  1
  H+  H26  1  0.38863979  0.10715840  0.17811245  1
  H+  H27  1  0.93497969  0.10060444  0.57710303  1
  H+  H28  1  0.38272409  0.10418793  0.50344492  1
  H+  H29  1  0.48887777  0.36223085  0.84340580  1
  H+  H30  1  0.66157144  0.31304901  0.90140348  1
  H+  H31  1  0.63722634  0.89440483  0.32366137  1
  H+  H32  1  0.63441965  0.52541820  0.51189572  1
  H+  H33  1  0.59339409  1.03342985  0.34353621  1
  H+  H34  1  0.11894162  0.96534450  0.32706541  1
  H+  H35  1  0.61334662  0.09660800  0.67857771  1
  H+  H36  1  -0.03057892  0.36847461  0.18076904  1
  H+  H37  1  0.83443560  0.91276531  0.06249543  1
  H+  H38  1  0.88538099  0.36508588  0.83740481  1
  H+  H39  1  0.36104960  0.39274653  0.64973531  1
  H+  H40  1  0.38058028  0.66465459  0.68339749  1
  H+  H41  1  0.91260480  0.62561400  0.31835119  1
  H+  H42  1  0.77143574  0.37350744  0.50403357  1
  H+  H43  1  -0.02054763  0.11605573  0.31591413  1
  H+  H44  1  0.09881181  0.39103407  0.16391640  1
  H+  H45  1  0.32595889  0.66149581  0.40852228  1
  H+  H46  1  0.02735872  0.92262551  0.69873082  1
  H+  H47  1  0.35744926  0.63769392  0.34567866  1
  H+  H48  1  0.72824758  0.86465595  0.98740603  1
  H+  H49  1  0.65087792  0.64990115  0.35389288  1
  H+  H50  1  0.51991777  0.88099613  0.00102674  1
  H+  H51  1  0.35818987  0.75358550  0.17276206  1
  H+  H52  1  0.34729127  0.87694801  -0.00405466  1
  H+  H53  1  0.40993529  0.83637744  0.56862833  1
  H+  H54  1  0.62499119  0.25985608  0.51056138  1
  H+  H55  1  0.62941905  0.35106540  0.51429307  1
  H+  H56  1  0.76728449  0.38048149  0.18025368  1
  H+  H57  1  0.14302377  0.68052404  0.68916609  1
  H+  H58  1  0.23877217  0.67672906  0.19983195  1
  H+  H59  1  0.19791633  0.31225728  0.51914312  1
  H+  H60  1  0.02247934  0.38377071  0.67266550  1
  H+  H61  1  0.27785274  0.13762941  0.16208015  1
  H+  H62  1  0.85602555  0.79018543  0.48458791  1
  H+  H63  1  0.62702230  0.51449335  0.35825398  1
  H+  H64  1  0.15636787  0.04077287  0.83575769  1
  H+  H65  1  0.97972166  0.60115354  0.50769816  1
  H+  H66  1  0.75974737  0.63568754  0.83823510  1
  H+  H67  1  0.12485030  0.87880971  0.65388763  1
  H+  H68  1  0.49378000  0.63067057  0.98222762  1
  H+  H69  1  0.43182207  0.85075773  0.92351434  1
  H+  H70  1  0.79263433  0.14738546  0.81372681  1
  H+  H71  1  0.36199286  0.11597482  0.66108209  1
  H+  H72  1  0.72773644  0.11189261  0.17367505  1
  H+  H73  1  0.65084094  0.27101474  0.00027834  1
  H+  H74  1  0.17364375  0.58319643  0.92481187  1
  H+  H75  1  0.10587185  0.13511814  1.00658874  1
  H+  H76  1  0.14177240  0.30901741  0.60710442  1
  H+  H77  1  0.01089904  0.09126263  0.47870112  1
  H+  H78  1  0.76328186  0.37310360  0.82768651  1
  H+  H79  1  0.82771848  0.48694090  0.33018881  1
  H+  H80  1  1.00954741  0.12470444  0.82591107  1
  H+  H81  1  0.36624326  0.64483097  0.50200553  1
  H+  H82  1  0.71773126  0.87623325  0.50417209  1
  H+  H83  1  0.86803014  0.69871819  0.52345902  1
  H+  H84  1  0.86123626  -0.02898094  1.00292493  1
  H+  H85  1  0.36075553  0.01737132  0.66025462  1
  H+  H86  1  0.62244149  0.64048218  0.00547903  1
  H+  H87  1  0.34700043  0.96232069  0.49369310  1
  H+  H88  1  0.02373516  0.40824940  0.01090018  1
  H+  H89  1  0.62292972  0.98555769  0.15913839  1
  H+  H90  1  0.87560804  0.60950436  0.84778423  1
  H+  H91  1  -0.01417551  0.86355923  0.32832737  1
  H+  H92  1  0.94671719  0.13815244  0.67053114  1
  H+  H93  1  0.22504142  0.60685098  0.33253386  1
  H+  H94  1  0.97887892  0.29614446  0.96629715  1
  H+  H95  1  0.11939277  0.47800936  0.82048324  1
  H+  H96  1  0.66089921  0.45017620  0.35428889  1
  H+  H97  1  0.92340561  0.83837640  0.23516219  1
  H+  H98  1  0.47153906  0.35429584  0.66138696  1
  H+  H99  1  0.86435864  0.47440021  0.17194999  1
  H+  H100  1  0.38011025  0.64242648  0.14464651  1
  H+  H101  1  0.39160280  0.27720794  0.99475012  1
  H+  H102  1  0.87601889  0.10264720  -0.00669678  1
  H+  H103  1  0.74233919  0.88564376  0.65547915  1
  H+  H104  1  0.40198569  0.54765735  0.51992723  1
  H+  H105  1  0.23487730  0.90899519  0.23265411  1
  H+  H106  1  0.81142289  0.13344289  0.33778280  1
  H+  H107  1  0.26088184  0.89327728  0.65643651  1
  H+  H108  1  0.64091911  0.51994693  0.99461195  1
  H+  H109  1  0.86112596  0.63561750  0.65929148  1
  H+  H110  1  0.73347596  0.63775009  0.34858267  1
  H+  H111  1  0.88662681  0.11774609  0.83671779  1
  H+  H112  1  0.85983595  0.46334652  0.50294257  1
  H+  H113  1  0.10614966  0.23336443  0.51292321  1
  H+  H114  1  0.61265086  0.06472187  0.95753107  1
  H+  H115  1  0.62520099  0.25500314  0.84115022  1
  H+  H116  1  0.62609220  0.60596400  0.84076415  1
  H+  H117  1  0.24420299  0.35252249  0.96982880  1
  H+  H118  1  0.63992730  -0.00995489  0.80680525  1
  H+  H119  1  0.09521506  0.11984696  0.66471268  1
  H+  H120  1  0.37664254  0.37306251  0.50696043  1
  H+  H121  1  0.63829816  0.91176199  0.65831933  1
  H+  H122  1  0.17978553  0.93195985  0.19230587  1
  H+  H123  1  0.11992981  0.77401897  0.22268370  1
  H+  H124  1  0.10924118  0.71327673  0.86677386  1
  H+  H125  1  0.34961465  0.69850433  0.84050844  1
  H+  H126  1  -0.02705389  0.59658423  0.16284829  1
  H+  H127  1  0.08297973  0.41402612  0.74002232  1
  H+  H128  1  0.12741565  0.79111282  0.65834103  1
  H+  H129  1  0.87491974  1.00629852  0.17266518  1
  H+  H130  1  0.96271134  0.36006716  0.33061137  1
  H+  H131  1  0.51881625  0.63596312  0.81721634  1
  H+  H132  1  0.89222157  0.77658564  0.17549222  1
  H+  H133  1  0.21189080  0.84899309  0.50425604  1
  H+  H134  1  0.87940810  0.23783869  0.81948736  1
  H+  H135  1  0.86230162  0.87902978  0.49985116  1
  H+  H136  1  0.28379551  0.64475532  -0.01123171  1
  H+  H137  1  0.47761927  0.88354426  0.65848727  1
  H+  H138  1  0.00859886  0.38668230  0.49371933  1
  H+  H139  1  0.25328537  0.38400961  0.81548593  1
  H+  H140  1  0.12091049  0.63340551  0.34280396  1
  H+  H141  1  0.89376472  0.36072831  0.66135819  1
  H+  H142  1  0.10283012  0.37930215  0.82013786  1
  H+  H143  1  0.10747024  0.11499231  0.48747993  1
  H+  H144  1  0.12470054  1.01982824  0.66034060  1
  H+  H145  1  0.86120169  0.37593932  0.17732905  1
  H+  H146  1  0.10495634  -0.00423936  0.15469597  1
  H+  H147  1  0.13152374  0.10534794  0.31810204  1
  H+  H148  1  0.00853159  0.12844654  0.15649701  1
  H+  H149  1  0.14610347  0.53631299  0.98979959  1
  H+  H150  1  0.42112993  0.54790142  0.17045771  1
  H+  H151  1  0.17303028  0.87427148  0.34141152  1
  H+  H152  1  0.99751713  0.59898226  0.82921771  1
  H+  H153  1  0.22111013  0.36023562  0.31735350  1
  H+  H154  1  0.35618661  0.18896840  0.30744062  1
  H+  H155  1  0.80281272  0.57853814  0.36400439  1
  H+  H156  1  0.35926343  0.84598398  0.33004171  1
  H+  H157  1  0.47494347  0.63518851  0.32162284  1
  H+  H158  1  0.62639369  0.73183868  0.00010069  1
  H+  H159  1  0.08030015  0.25253297  0.99081604  1
  H+  H160  1  0.72908470  0.60879679  0.99519523  1
  H+  H161  1  0.39563056  0.78034498  -0.02232040  1
  H+  H162  1  0.63999048  0.61792850  0.50462171  1
  H+  H163  1  0.44460643  0.94900844  0.12144551  1
  H+  H164  1  0.65237214  0.87675166  0.16815324  1
  H+  H165  1  0.10087948  0.35075736  -0.00659427  1
  H+  H166  1  0.52741516  0.14017509  0.17268886  1
  H+  H167  1  -0.02588723  0.61479886  0.66540321  1
  H+  H168  1  0.88787327  0.60670629  -0.00168209  1
  H+  H169  1  0.82871402  0.94533788  0.43373655  1
  H+  H170  1  0.39241292  0.53964508  0.31697802  1
  H+  H171  1  0.14532141  0.75497466  0.23611326  1
  H+  H172  1  0.21205823  0.11658727  0.65728551  1
  H+  H173  1  0.89699966  0.80562539  0.93341783  1
  H+  H174  1  0.45238077  0.11090892  0.80020193  1
  H+  H175  1  0.32551913  0.43168105  0.57173029  1
  H+  H176  1  0.86407532  0.71932856  0.00879533  1
  H+  H177  1  0.38155978  0.60907714  0.82435497  1
  H+  H178  1  0.10985172  0.37342134  0.67645450  1
  H+  H179  1  0.84666168  0.46685477  0.82980551  1
  H+  H180  1  0.63848132  0.11074696  0.17744144  1
  H+  H181  1  0.39915948  0.27320949  0.17501265  1
  H+  H182  1  0.73099369  0.86198520  0.83222994  1
  H+  H183  1  0.28594569  0.62882528  0.13853431  1
  H+  H184  1  0.19250310  0.34857062  0.16942725  1
  H+  H185  1  0.77189262  0.62917457  0.50557171  1
  H+  H186  1  0.35396190  0.72621286  0.50002897  1
  H+  H187  1  0.50152754  0.89119743  0.82450359  1
  H+  H188  1  0.24853284  0.65066054  0.67048290  1
  H+  H189  1  0.11246901  0.26192251  0.83345098  1
  H+  H190  1  0.63612058  0.85882179  0.98782114  1
  H+  H191  1  0.97765264  0.60751966  0.99330360  1
  H+  H192  1  0.18318154  0.80477995  0.85075081  1
  H+  H193  1  0.88569676  0.36534734  0.50876655  1
  H+  H194  1  0.21831378  0.10074582  0.31411893  1
  H+  H195  1  0.44022162  0.61589125  0.57260341  1
  H+  H196  1  0.85613543  0.21436361  1.00150864  1
  H+  H197  1  0.62809740  0.13728375  0.03200170  1
  H+  H198  1  0.77554920  0.90333567  0.33947409  1
  H+  H199  1  0.52192824  0.39499578  0.49709742  1
  H+  H200  1  0.12292623  0.26168020  0.66997575  1
  H+  H201  1  0.26375540  0.88153797  0.74856281  1
  H+  H202  1  0.42434133  0.32946669  0.90718950  1
  H+  H203  1  0.39927543  0.54415222  0.65484031  1
  H+  H204  1  0.13707099  1.02800455  -0.00542891  1
  H+  H205  1  0.65268089  0.61982443  0.16439919  1
  H+  H206  1  0.27220694  0.39222142  0.65609850  1
  H+  H207  1  0.63610196  0.78164319  0.50789236  1
  H+  H208  1  0.11276571  0.48509934  0.17001988  1
  H+  H209  1  0.54073132  0.38612544  0.15597709  1
  H+  H210  1  0.24470777  0.31468531  -0.04398153  1
  H+  H211  1  0.50685433  0.89005428  0.33933481  1
  H+  H212  1  0.37163453  0.15062338  1.01079912  1
  H+  H213  1  0.01306322  0.89342285  0.15906039  1
  H+  H214  1  0.86681142  0.72930810  0.65211210  1
  H+  H215  1  0.10908525  0.47314736  0.33996216  1
  H+  H216  1  0.10648171  0.71575905  0.49551794  1
  H+  H217  1  0.11098696  0.22081651  0.33645683  1
  H+  H218  1  0.14723059  0.62675289  0.17023909  1
  H+  H219  1  0.57124745  0.38964629  0.73553470  1
  H+  H220  1  0.53107870  0.64983057  0.49462029  1
  H+  H221  1  0.38168940  0.40716831  0.32544716  1
  H+  H222  1  0.14512105  0.81090162  0.94962172  1
  H+  H223  1  0.13630399  0.59361948  0.83592791  1
  H+  H224  1  0.87498717  0.02288116  0.83555371  1
  H+  H225  1  0.35582945  0.10620263  0.32972366  1
  H+  H226  1  0.12973705  0.72586901  0.35085806  1
  H+  H227  1  0.36629145  0.87912043  0.15948406  1
  H+  H228  1  0.59486520  0.30748049  0.33744514  1
  H+  H229  1  0.38055281  0.28740097  0.49369754  1
  H+  H230  1  0.83995693  0.07306680  0.58228169  1
  H+  H231  1  0.39401172  0.79127632  0.67015629  1
  H+  H232  1  0.65140582  0.63713464  0.66212653  1
  H+  H233  1  0.59946777  0.88539276  0.49187093  1
  H+  H234  1  0.85282458  0.14356488  0.49916092  1
  H+  H235  1  0.89723505  0.99154448  0.67020509  1
  H+  H236  1  0.41409800  0.37777708  -0.01061159  1
  H+  H237  1  0.59979658  0.41157340  0.09656642  1
  H+  H238  1  0.01912712  0.88581318  0.00488969  1
  H+  H239  1  0.22079455  0.60446914  0.51175027  1
  H+  H240  1  0.86746587  0.27997140  0.33086361  1
  H+  H241  1  0.62753747  0.74386214  0.67587199  1
  H+  H242  1  0.62065186  0.23705572  0.33392936  1
  H+  H243  1  0.61849619  0.22935388  0.17360661  1
  H+  H244  1  0.16509988  0.08325815  0.56708787  1
  H+  H245  1  0.07878166  0.64851135  0.08795132  1
  H+  H246  1  0.64315042  0.36481728  0.17845799  1
  H+  H247  1  0.43787855  0.22195619  0.45483502  1
  H+  H248  1  0.89914565  0.92332604  0.81441280  1
  H+  H249  1  0.09017266  0.90394603  0.81948271  1
  H+  H250  1  0.00962492  0.12101814  0.00544849  1
  H+  H251  1  0.88816589  0.02897619  0.32157308  1
  H+  H252  1  0.71233933  0.10332469  0.52275543  1
  H+  H253  1  0.77852626  0.88984739  0.16367509  1
  H+  H254  1  0.59678346  0.35066172  0.68002011  1
  H+  H255  1  0.29209786  0.89101106  0.40197839  1
  H+  H256  1  0.46577041  0.09600891  0.51425095  1
  H+  H257  1  0.87665008  0.89534919  0.65988572  1
  H+  H258  1  0.49847590  0.13977775  0.00546585  1
  H+  H259  1  0.86830895  0.22413569  0.16276109  1
  H+  H260  1  0.65718234  0.11513856  0.83313743  1
  H+  H261  1  0.21076276  0.85431321  1.00440685  1
  H+  H262  1  0.90325259  0.23187291  0.66684531  1
  H+  H263  1  0.34999639  0.14860183  0.81018206  1
  H+  H264  1  0.59820852  0.11591949  0.51030201  1
  H+  H265  1  0.88849360  0.59697648  0.50936876  1
  H+  H266  1  0.40765349  0.50109830  -0.00565814  1
  H+  H267  1  0.75163101  0.63532163  0.65499929  1
  H+  H268  1  0.36309813  -0.00615315  0.32415589  1
  H+  H269  1  0.87106280  0.38258916  0.99542611  1
  H+  H270  1  0.34260291  0.46538076  0.80692011  1
  H+  H271  1  0.46640355  0.86225773  0.50745295  1
  H+  H272  1  0.10782830  0.48337711  0.49551837  1
  H+  H273  1  0.43080924  0.31943534  0.33933030  1
  H+  H274  1  0.37113537  0.76469738  0.33482358  1
  H+  H275  1  0.89027089  0.27796819  0.50709254  1
  H+  H276  1  0.53723882  0.07429199  0.81820164  1
  H+  H277  1  0.12608011  0.11581414  0.16555877  1
  H+  H278  1  0.59946402  0.68255613  0.29232999  1
  H+  H279  1  0.53545756  0.38008365  1.00259746  1
  H+  H280  1  0.88062549  0.85354985  0.98858764  1
  H+  H281  1  0.23044811  0.11981586  0.51066734  1
  H+  H282  1  0.86897308  0.46944317  0.00000839  1
  H+  H283  1  0.06431489  0.14948179  0.76439661  1
  H+  H284  1  0.23470518  0.60389034  0.83138496  1
  H+  H285  1  0.87156088  0.64253795  0.16259956  1
  H+  H286  1  0.38566916  0.27583270  0.83835111  1
  H+  H287  1  0.89375076  0.78010672  0.32878241  1
  H+  H288  1  0.33784245  0.42720573  0.37975073  1
  H+  H289  1  0.58068063  0.13540258  0.75826740  1
  H+  H290  1  0.41891451  0.33445838  0.59841274  1
  H+  H291  1  0.66971989  0.59707648  0.59922862  1
  H+  H292  1  0.90423147  0.57321656  0.90380799  1
  H+  H293  1  0.99360024  0.61441579  0.32204032  1
  H+  H294  1  0.26739183  0.15776599  0.82559894  1
  H+  H295  1  0.39482531  0.08154046  0.59858116  1
  H+  H296  1  0.07558058  0.42122425  0.43015067  1
  H+  H297  1  0.33838098  0.16918327  0.10445559  1
  H+  H298  1  0.12014397  0.31376599  0.89404926  1
  H+  H299  1  0.27445741  0.44483434  0.51719230  1
  H+  H300  1  0.14904186  0.32410538  0.26618678  1
  H+  H301  1  0.59466614  0.17164011  0.08573298  1
  H+  H302  1  0.87450034  0.10437801  0.17252750  1
  H+  H303  1  0.90580728  0.07544626  0.93232091  1
  H+  H304  1  0.40201365  0.62499127  0.97848611  1
  H+  H305  1  0.73304314  0.14756471  0.35010809  1
  H+  H306  1  0.36290652  0.79724401  0.23906261  1
  H+  H307  1  0.92354039  0.57910563  0.60276607  1
  H+  H308  1  0.34541717  0.67313247  0.04675995  1
  H+  H309  1  0.09510673  0.91568643  0.39115113  1
  H+  H310  1  0.58675675  0.68159611  0.43378832  1
  H+  H311  1  0.07201836  0.92326538  0.09141289  1
  H+  H312  1  0.14852460  0.82812318  0.56060828  1
  H+  H313  1  0.33081580  0.90686245  0.05910135  1
  H+  H314  1  0.90522067  0.83523339  0.58058124  1
  H+  H315  1  0.66020825  0.30706199  0.60750248  1
  H+  H316  1  0.67065037  0.84074553  0.89033908  1
  H+  H317  1  0.87389789  0.17399883  0.72612359  1
  H+  H318  1  0.76587477  0.12619593  0.00377286  1
  H+  H319  1  0.34233043  0.68119706  0.74640818  1
  H+  H320  1  0.78231297  0.64299119  0.16174797  1
  H+  H321  1  0.35533189  0.17409113  0.41491393  1
  H+  H322  1  0.65804899  0.32632347  0.24234723  1
  H+  H323  1  0.10903327  0.72122510  0.01081204  1
  H+  H324  1  0.84733869  0.92024169  0.75535557  1
  H+  H325  1  0.06723124  0.64575159  0.77600997  1
  H+  H326  1  0.84344277  0.65459960  0.41003029  1
  H+  H327  1  0.07710123  0.15238543  0.39135802  1
  H+  H328  1  0.08220694  0.65519601  0.43674258  1
  H+  H329  1  0.68761724  0.07438560  0.88598488  1
  H+  H330  1  0.59607034  0.67896606  0.73385090  1
  H+  H331  1  0.60716113  0.94054418  0.72099649  1
  H+  H332  1  0.65704820  0.57866407  0.90188992  1
  H+  H333  1  0.56586438  0.92049393  0.39900747  1
  H+  H334  1  0.57924972  0.90911262  0.06274236  1
  H+  H335  1  0.92639900  0.58015563  0.22787622  1
  H+  H336  1  0.49138000  0.62941701  0.66450649  1
  H+  H337  1  0.43022643  0.60801757  0.22685312  1
  H+  H338  1  0.65189672  0.05187916  0.58110687  1
  H+  H339  1  0.09666603  0.70887255  0.14536574  1
  H+  H340  1  0.41050637  0.40578979  0.16056621  1
  H+  H341  1  0.65300486  0.53094063  0.16276167  1
  H+  H342  1  0.97882548  0.85880115  0.63018847  1
  H+  H343  1  0.74055209  0.40013868  0.34233712  1
  H+  H344  1  0.57008469  0.13528517  0.44621177  1
  H+  H345  1  0.50980704  0.09556998  0.34314727  1
  H+  H346  1  0.83564460  0.16486869  0.10210804  1
  H+  H347  1  0.16781838  0.08992617  0.93654840  1
  H+  H348  1  0.18867229  0.88828599  0.78116090  1
  H+  H349  1  0.83128103  0.40636413  0.73431594  1
  H+  H350  1  0.83733210  0.66465016  0.06982102  1
  H+  H351  1  0.44123238  0.33901284  0.23183702  1
  H+  H352  1  0.60986122  0.72483880  0.82410178  1
  H+  H353  1  0.14952624  0.75550336  0.73435097  1
  H+  H354  1  0.97857046  0.37184008  0.83223883  1
  H+  H355  1  0.10602306  0.26097347  0.16895527  1
  H+  H356  1  0.18022248  0.61190673  0.61629252  1
  H+  H357  1  0.63086832  0.89656388  0.80687285  1
  H+  H358  1  0.85972722  0.46508177  0.67517310  1
  H+  H359  1  0.92848968  0.34038213  0.59923368  1
  H+  H360  1  0.59086387  0.42799267  0.44327195  1
  H+  H361  1  0.35508908  0.23112392  0.66592859  1
  H+  H362  1  0.11689532  0.94527138  0.75164297  1
  H+  H363  1  0.36871453  0.03535370  0.82850079  1
  H+  H364  1  0.17110129  0.58488905  0.27029507  1
  H+  H365  1  0.54193560  0.89142881  0.16837545  1
  H+  H366  1  0.92307814  0.32061705  0.92448506  1
  H+  H367  1  0.60363941  0.68493929  0.09766829  1
  H+  H368  1  0.41112523  0.45985646  0.05794350  1
  H+  H369  1  0.72182986  0.33776165  0.66472850  1
  H+  H370  1  0.32159632  0.17736167  0.72753317  1
  H+  H371  1  0.40921959  0.05901587  0.26774659  1
  H+  H372  1  0.42036076  0.58303349  0.88064700  1
  H+  H373  1  0.91000198  0.07691999  0.24011533  1
  H+  H374  1  0.07842519  0.43830867  0.07194863  1
  H+  H375  1  0.10669292  0.88301021  0.01226321  1
  H+  H376  1  0.61538633  0.76475461  0.32738720  1
  H+  H377  1  0.90903087  0.33018899  0.24095997  1
  H+  H378  1  0.81430567  0.16771323  0.44101334  1
  H+  H379  1  0.13265317  0.60634726  0.51062134  1
  H+  H380  1  0.86136316  0.89550313  0.34403963  1
  H+  H381  1  0.15533631  0.08030001  0.22366004  1
  H+  H382  1  0.06732097  0.16170059  0.09593873  1
  H+  H383  1  0.63334165  -0.00327296  0.98552578  1
  O2-  O384  1  0.06856567  0.16398313  0.14228063  1
  O2-  O385  1  0.06942768  0.13626474  0.46990771  1
  O2-  O386  1  0.06943495  0.15441215  0.80939022  1
  O2-  O387  1  0.07444515  0.42831549  0.15250092  1
  O2-  O388  1  0.07249152  0.42220321  0.47674415  1
  O2-  O389  1  0.08036559  0.41706809  0.80282651  1
  O2-  O390  1  0.07595034  0.64880753  0.13495753  1
  O2-  O391  1  0.07977683  0.65393341  0.48226679  1
  O2-  O392  1  0.05908606  0.62276425  0.81798310  1
  O2-  O393  1  0.07243624  0.93039567  0.13923701  1
  O2-  O394  1  0.09282232  0.92024180  0.46234153  1
  O2-  O395  1  0.13877581  0.94828432  0.79685077  1
  O2-  O396  1  0.33898363  0.16765257  0.15022923  1
  O2-  O397  1  0.37528058  0.19045011  0.45801632  1
  O2-  O398  1  0.32628110  0.18836571  0.80612975  1
  O2-  O399  1  0.39575299  0.44873477  0.14325127  1
  O2-  O400  1  0.32366041  0.43707237  0.52479001  1
  O2-  O401  1  0.30400046  0.40855995  0.78908311  1
  O2-  O402  1  0.34590836  0.66680914  0.12589019  1
  O2-  O403  1  0.32733310  0.66498812  0.48604920  1
  O2-  O404  1  0.32359903  0.65212031  0.81099543  1
  O2-  O405  1  0.38707802  0.93332136  0.13515282  1
  O2-  O406  1  0.31697016  0.90275019  0.47769509  1
  O2-  O407  1  0.21334403  0.84984227  0.77537939  1
  O2-  O408  1  0.58845981  0.16906943  0.15791172  1
  O2-  O409  1  0.56709244  0.14311334  0.49062607  1
  O2-  O410  1  0.57138252  0.13469405  0.80668904  1
  O2-  O411  1  0.60152965  0.41505131  0.14222914  1
  O2-  O412  1  0.58438594  0.42156749  0.48837317  1
  O2-  O413  1  0.57934201  0.40666435  0.82115044  1
  O2-  O414  1  0.60667058  0.68807621  0.14335307  1
  O2-  O415  1  0.59175140  0.67710011  0.47777921  1
  O2-  O416  1  0.58312425  0.66584831  0.80716489  1
  O2-  O417  1  0.59357706  0.92250006  0.14369950  1
  O2-  O418  1  0.56864509  0.91501703  0.47687862  1
  O2-  O419  1  0.60623085  0.93093483  0.78855764  1
  O2-  O420  1  0.84022782  0.16375313  0.14743189  1
  O2-  O421  1  0.82123328  0.17251101  0.48600489  1
  O2-  O422  1  0.85473240  0.17782386  0.80300777  1
  O2-  O423  1  0.82929864  0.40858203  0.16409779  1
  O2-  O424  1  0.83147859  0.40257123  0.48920241  1
  O2-  O425  1  0.82376790  0.40742673  0.81324734  1
  O2-  O426  1  0.84574211  0.67728135  0.14921454  1
  O2-  O427  1  0.83394719  0.65618823  0.49254783  1
  O2-  O428  1  0.82279879  0.67180706  0.82737347  1
  O2-  O429  1  0.84084248  0.92241909  0.14938658  1
  O2-  O430  1  0.81975095  0.93826825  0.47863630  1
  O2-  O431  1  0.84432506  0.91662724  0.80113785  1
  O2-  O432  1  0.15400028  0.08171621  0.17758402  1
  O2-  O433  1  0.16990394  0.08435000  0.52083616  1
  O2-  O434  1  0.17123646  0.09618823  0.85631584  1
  O2-  O435  1  0.13478859  0.32137973  0.18651447  1
  O2-  O436  1  0.13874500  0.29095221  0.53203829  1
  O2-  O437  1  0.13521576  0.32078375  0.85014724  1
  O2-  O438  1  0.19111002  0.61718152  0.19164793  1
  O2-  O439  1  0.15959277  0.57227607  0.52544776  1
  O2-  O440  1  0.17092619  0.56764998  0.84965088  1
  O2-  O441  1  0.23164534  0.95803283  0.21709062  1
  O2-  O442  1  0.14995803  0.81924722  0.51576709  1
  O2-  O443  1  0.14700665  0.77072724  0.88494358  1
  O2-  O444  1  0.42304296  0.08158945  0.19345381  1
  O2-  O445  1  0.40320712  0.07061862  0.52636255  1
  O2-  O446  1  0.38908822  0.08188379  0.79897571  1
  O2-  O447  1  0.43647288  0.33506725  0.18699229  1
  O2-  O448  1  0.41036977  0.34420778  0.51364085  1
  O2-  O449  1  0.42591109  0.33324537  0.85959092  1
  O2-  O450  1  0.43929502  0.60824210  0.18204357  1
  O2-  O451  1  0.43705199  0.61076548  0.52652451  1
  O2-  O452  1  0.41952521  0.58330002  0.83560831  1
  O2-  O453  1  0.33625463  0.78493205  0.19755011  1
  O2-  O454  1  0.40600377  0.83144813  0.52330377  1
  O2-  O455  1  0.44620642  0.87575171  0.84448402  1
  O2-  O456  1  0.66692367  0.07635571  0.18567969  1
  O2-  O457  1  0.65203397  0.06641109  0.53600302  1
  O2-  O458  1  0.69024143  0.08533842  0.84143853  1
  O2-  O459  1  0.67112032  0.33365786  0.19805254  1
  O2-  O460  1  0.65802827  0.31885856  0.52732559  1
  O2-  O461  1  0.65661676  0.31466534  0.85579010  1
  O2-  O462  1  0.68378544  0.59052615  0.17839240  1
  O2-  O463  1  0.66796042  0.58788389  0.52399146  1
  O2-  O464  1  0.65578250  0.57521171  0.85631405  1
  O2-  O465  1  0.68178862  0.84816152  0.18794877  1
  O2-  O466  1  0.65988964  0.84143604  0.52336139  1
  O2-  O467  1  0.67091101  0.84010831  0.84464399  1
  O2-  O468  1  0.90343600  0.07140183  0.18928201  1
  O2-  O469  1  0.88332903  0.08291308  0.55155967  1
  O2-  O470  1  0.90773715  0.07993145  0.85504004  1
  O2-  O471  1  0.90885433  0.33044221  0.19405194  1
  O2-  O472  1  0.92423204  0.33925740  0.52077786  1
  O2-  O473  1  0.91929852  0.33691050  0.84952878  1
  O2-  O474  1  0.91516581  0.57077264  0.18273997  1
  O2-  O475  1  0.92043277  0.57021774  0.52636472  1
  O2-  O476  1  0.89744086  0.57025124  0.85831988  1
  O2-  O477  1  0.92173411  0.83897055  0.18954678  1
  O2-  O478  1  0.88601775  0.84075525  0.51039201  1
  O2-  O479  1  0.84745271  0.75354958  0.85847540  1
  O2-  O480  1  0.15879515  0.07468534  0.29849585  1
  O2-  O481  1  0.15282898  0.08342430  0.64054895  1
  O2-  O482  1  0.16715017  0.08933467  0.98208712  1
  O2-  O483  1  0.15826741  0.32725388  0.31104207  1
  O2-  O484  1  0.15084129  0.32025235  0.65206386  1
  O2-  O485  1  0.07554346  0.29816208  0.96825217  1
  O2-  O486  1  0.16512828  0.57605943  0.31508483  1
  O2-  O487  1  0.18724460  0.62876249  0.65919968  1
  O2-  O488  1  0.17702185  0.59392525  0.97022531  1
  O2-  O489  1  0.20231809  0.83911690  0.33622983  1
  O2-  O490  1  0.15363852  0.84758377  0.63676120  1
  O2-  O491  1  0.14716165  0.82503492  0.99446854  1
  O2-  O492  1  0.40504722  0.05457127  0.31359078  1
  O2-  O493  1  0.38962304  0.08092736  0.64488633  1
  O2-  O494  1  0.44609765  0.12743347  0.98235104  1
  O2-  O495  1  0.45366970  0.36894369  0.31217311  1
  O2-  O496  1  0.41218896  0.33267213  0.64304829  1
  O2-  O497  1  0.43032634  0.33347003  0.97436833  1
  O2-  O498  1  0.41510823  0.60089340  0.30586466  1
  O2-  O499  1  0.43286210  0.60675711  0.64688967  1
  O2-  O500  1  0.43533976  0.59759831  0.96407419  1
  O2-  O501  1  0.39513594  0.82237618  0.31474572  1
  O2-  O502  1  0.41612205  0.84884742  0.64863346  1
  O2-  O503  1  0.42691844  0.84350242  0.96852105  1
  O2-  O504  1  0.62038169  0.09620236  0.33213459  1
  O2-  O505  1  0.65248394  0.03274032  0.65430364  1
  O2-  O506  1  0.66124351  0.05604824  0.96508584  1
  O2-  O507  1  0.63873504  0.29672773  0.32060553  1
  O2-  O508  1  0.66087992  0.30094927  0.65247268  1
  O2-  O509  1  0.67552728  0.32576923  0.97732463  1
  O2-  O510  1  0.67118397  0.61124979  0.34026228  1
  O2-  O511  1  0.67966127  0.60467807  0.64457453  1
  O2-  O512  1  0.66855018  0.58058196  0.98002911  1
  O2-  O513  1  0.67171039  0.86706643  0.31102493  1
  O2-  O514  1  0.68027832  0.85697537  0.64453959  1
  O2-  O515  1  0.66960978  0.83421164  0.96895941  1
  O2-  O516  1  0.91833454  0.08621956  0.30033209  1
  O2-  O517  1  0.97643546  0.10357932  0.65486371  1
  O2-  O518  1  0.90679948  0.07305326  0.97790331  1
  O2-  O519  1  0.90550434  0.33611255  0.31144696  1
  O2-  O520  1  0.93042014  0.33777563  0.64471737  1
  O2-  O521  1  0.93076327  0.30913685  0.96819303  1
  O2-  O522  1  0.93537040  0.58954180  0.30277835  1
  O2-  O523  1  0.91629358  0.58180685  0.64806025  1
  O2-  O524  1  0.91627702  0.57626575  0.98006594  1
  O2-  O525  1  0.92402335  0.83997406  0.31523416  1
  O2-  O526  1  0.91624842  0.83254240  0.62565898  1
  O2-  O527  1  0.91243416  0.82359184  0.97621446  1
  O2-  O528  1  0.06885176  0.15800527  0.02239019  1
  O2-  O529  1  0.07886984  0.15806924  0.34604342  1
  O2-  O530  1  0.06212731  0.14795402  0.68374463  1
  O2-  O531  1  0.08292081  0.43885109  0.02687684  1
  O2-  O532  1  0.07692927  0.41400637  0.35819775  1
  O2-  O533  1  0.08311687  0.40934804  0.69070492  1
  O2-  O534  1  0.08286068  0.65768359  0.01890649  1
  O2-  O535  1  0.09106072  0.66382760  0.35898686  1
  O2-  O536  1  0.10959848  0.70707634  0.70713901  1
  O2-  O537  1  0.07711075  0.91722093  0.02428389  1
  O2-  O538  1  0.09419476  0.90717244  0.34501570  1
  O2-  O539  1  0.08566114  0.93738307  0.68774166  1
  O2-  O540  1  0.33651406  0.17548494  0.02693460  1
  O2-  O541  1  0.33081352  0.14511574  0.33896161  1
  O2-  O542  1  0.32241880  0.17038625  0.68233790  1
  O2-  O543  1  0.39535813  0.44641288  0.01499152  1
  O2-  O544  1  0.34116438  0.42831544  0.33543132  1
  O2-  O545  1  0.33183163  0.42653230  0.64082749  1
  O2-  O546  1  0.34576214  0.67600880  0.00153788  1
  O2-  O547  1  0.32343868  0.66283947  0.36285872  1
  O2-  O548  1  0.35257359  0.69581960  0.69954005  1
  O2-  O549  1  0.31280516  0.89853068  0.01620401  1
  O2-  O550  1  0.29230580  0.89289821  0.35583989  1
  O2-  O551  1  0.31923883  0.92421827  0.67615666  1
  O2-  O552  1  0.59929357  0.17014796  0.03956993  1
  O2-  O553  1  0.56833338  0.12802656  0.36300381  1
  O2-  O554  1  0.58868589  0.13287860  0.69335791  1
  O2-  O555  1  0.59534824  0.41172174  0.01873170  1
  O2-  O556  1  0.60806342  0.45121740  0.36513107  1
  O2-  O557  1  0.56424342  0.37971311  0.69132337  1
  O2-  O558  1  0.59511237  0.67410149  0.01979127  1
  O2-  O559  1  0.58591888  0.69978487  0.33115570  1
  O2-  O560  1  0.60019207  0.68254288  0.68759519  1
  O2-  O561  1  0.58080290  0.90675010  0.01758333  1
  O2-  O562  1  0.56698727  0.92758237  0.35362078  1
  O2-  O563  1  0.60257911  0.94010511  0.67291664  1
  O2-  O564  1  0.82391375  0.15683525  0.02197525  1
  O2-  O565  1  0.79480962  0.16985622  0.36010984  1
  O2-  O566  1  0.89018412  0.17485627  0.68266414  1
  O2-  O567  1  0.83778995  0.40741025  0.01161637  1
  O2-  O568  1  0.77135842  0.46242399  0.35035053  1
  O2-  O569  1  0.83427978  0.40477064  0.68887575  1
  O2-  O570  1  0.83473524  0.65936216  0.02449911  1
  O2-  O571  1  0.83216909  0.64185704  0.36604398  1
  O2-  O572  1  0.83148246  0.66933528  0.66770340  1
  O2-  O573  1  0.83187695  0.90984467  0.01761133  1
  O2-  O574  1  0.83574117  0.93132417  0.35546163  1
  O2-  O575  1  0.85378741  0.93051443  0.67862468  1
