# generated using pymatgen
data_H2O
_symmetry_space_group_name_H-M   'P 1'
_cell_length_a   17.98709842
_cell_length_b   17.99833368
_cell_length_c   21.98570715
_cell_angle_alpha   89.99641026
_cell_angle_beta   90.00661805
_cell_angle_gamma   120.00720313
_symmetry_Int_Tables_number   1
_chemical_formula_structural   H2O
_chemical_formula_sum   'H384 O192'
_cell_volume   6163.57876830
_cell_formula_units_Z   192
loop_
 _symmetry_equiv_pos_site_id
 _symmetry_equiv_pos_as_xyz
  1  'x, y, z'
loop_
 _atom_type_symbol
 _atom_type_oxidation_number
  H+  1.0
  O2-  -2.0
loop_
 _atom_site_type_symbol
 _atom_site_label
 _atom_site_symmetry_multiplicity
 _atom_site_fract_x
 _atom_site_fract_y
 _atom_site_fract_z
 _atom_site_occupancy
  H+  H0  1  0.97085932  0.60379506  0.47534262  1
  H+  H1  1  0.72510817  0.60182530  0.84142009  1
  H+  H2  1  0.59720433  0.74613922  0.34513934  1
  H+  H3  1  0.97541594  0.85353828  0.65952122  1
  H+  H4  1  0.73441973  0.36612666  0.00586599  1
  H+  H5  1  0.39470427  0.60446193  0.17152811  1
  H+  H6  1  0.12769388  0.51382475  0.50989006  1
  H+  H7  1  0.79093660  0.63821028  0.00360412  1
  H+  H8  1  0.78815392  0.12769648  0.17565760  1
  H+  H9  1  0.08632088  0.67206956  0.91164568  1
  H+  H10  1  0.66264513  0.40485526  0.15002948  1
  H+  H11  1  0.37682055  0.36446272  0.68007438  1
  H+  H12  1  0.14408523  0.76408853  0.65715935  1
  H+  H13  1  0.94350942  0.60617793  -0.05550258  1
  H+  H14  1  0.50831981  0.89480165  0.10521007  1
  H+  H15  1  0.27978615  0.64468329  0.82976469  1
  H+  H16  1  0.87293811  0.38532367  0.16463940  1
  H+  H17  1  0.09658872  0.46437392  0.67683939  1
  H+  H18  1  0.12170675  0.37977882  0.00906382  1
  H+  H19  1  0.88870957  0.54422545  0.86275535  1
  H+  H20  1  0.20989300  0.10056437  0.65072370  1
  H+  H21  1  1.01275948  0.63895544  0.13241942  1
  H+  H22  1  0.74852887  0.37147178  0.30671135  1
  H+  H23  1  0.33262418  0.75399912  0.64993950  1
  H+  H24  1  0.63835080  0.09998203  0.84828486  1
  H+  H25  1  0.12876665  0.85647947  0.50091560  1
  H+  H26  1  0.37463420  0.79340990  0.09915250  1
  H+  H27  1  0.88470846  0.76057920  0.66130115  1
  H+  H28  1  0.89813198  0.55933511  0.31451144  1
  H+  H29  1  0.72851169  0.35820868  0.66641975  1
  H+  H30  1  0.35189205  0.72639774  1.00912833  1
  H+  H31  1  0.26263563  0.64426089  0.34533190  1
  H+  H32  1  0.64101962  0.02596015  1.00091324  1
  H+  H33  1  0.12386331  0.60040230  0.66423354  1
  H+  H34  1  0.90276437  0.33803905  0.33701908  1
  H+  H35  1  0.79897376  0.41128370  0.14829351  1
  H+  H36  1  0.25861044  0.39454724  0.80324674  1
  H+  H37  1  0.14382746  0.04445862  0.33921678  1
  H+  H38  1  0.66300492  0.78480728  0.16600110  1
  H+  H39  1  0.65054052  0.87499030  0.02166773  1
  H+  H40  1  0.35408404  0.58794468  0.66185884  1
  H+  H41  1  0.86324523  0.46190774  0.65874294  1
  H+  H42  1  0.14637086  0.11426301  0.82840453  1
  H+  H43  1  0.12325015  1.01690167  0.50555298  1
  H+  H44  1  0.65850472  0.79188718  1.00816465  1
  H+  H45  1  0.64364865  0.26788946  0.84881678  1
  H+  H46  1  0.52326098  0.13705283  0.48012422  1
  H+  H47  1  1.00893152  0.13934041  0.17610840  1
  H+  H48  1  0.63228634  0.10531703  0.50426785  1
  H+  H49  1  0.37915131  0.35023520  0.17647527  1
  H+  H50  1  0.35441984  0.38480410  0.49526241  1
  H+  H51  1  0.86699491  0.65952226  0.83199408  1
  H+  H52  1  0.86025307  0.64175991  0.47584011  1
  H+  H53  1  0.52118153  0.88337542  1.00677498  1
  H+  H54  1  0.37663271  0.52894709  0.82959304  1
  H+  H55  1  0.25591009  0.62341647  0.67612588  1
  H+  H56  1  0.82859184  0.67013676  0.73567147  1
  H+  H57  1  0.11505448  0.59488557  0.99165935  1
  H+  H58  1  1.02994008  0.37428087  0.34279062  1
  H+  H59  1  0.38874776  0.12137128  0.84601818  1
  H+  H60  1  0.87491320  0.06946363  0.83739766  1
  H+  H61  1  0.02555069  0.90934934  0.33158066  1
  H+  H62  1  0.89451868  0.28220357  0.82728508  1
  H+  H63  1  0.07707237  0.16316507  0.75941457  1
  H+  H64  1  0.64845414  0.98381891  0.68872905  1
  H+  H65  1  0.13664797  1.02221253  0.83081598  1
  H+  H66  1  0.21453075  0.34587941  0.66315823  1
  H+  H67  1  0.36445554  0.12951665  0.17036899  1
  H+  H68  1  0.62190050  0.48184480  0.32844973  1
  H+  H69  1  0.88196891  0.60401005  0.69073347  1
  H+  H70  1  0.88845168  0.01564256  1.00056320  1
  H+  H71  1  0.96869813  0.10867013  0.50206875  1
  H+  H72  1  0.36658977  0.21488688  0.01978403  1
  H+  H73  1  0.02005990  0.12312898  -0.00347296  1
  H+  H74  1  0.86132931  0.97370831  0.49154063  1
  H+  H75  1  0.75738841  0.09622906  0.82801001  1
  H+  H76  1  0.77250098  0.86161871  0.67379458  1
  H+  H77  1  0.62068792  0.89609974  0.33277531  1
  H+  H78  1  0.93497235  0.61178437  0.25451126  1
  H+  H79  1  0.02120202  0.63436460  0.69731691  1
  H+  H80  1  0.65049166  0.02050103  0.30669546  1
  H+  H81  1  0.89732599  0.80960290  0.31350373  1
  H+  H82  1  0.88392830  0.67678480  0.33005573  1
  H+  H83  1  0.66055770  0.90249774  0.69003391  1
  H+  H84  1  0.35455406  0.96785454  0.17346923  1
  H+  H85  1  0.26290322  0.63690997  0.01376861  1
  H+  H86  1  0.38966504  0.78105954  0.83848752  1
  H+  H87  1  0.52383109  0.13481205  0.68043006  1
  H+  H88  1  0.67252084  1.07718742  0.90903684  1
  H+  H89  1  0.32470192  0.67749774  0.40218103  1
  H+  H90  1  0.54726099  0.65557002  1.00197117  1
  H+  H91  1  0.61466584  0.21733577  0.48201805  1
  H+  H92  1  0.35793473  0.85263230  0.65507606  1
  H+  H93  1  0.14572229  0.52920761  0.84011512  1
  H+  H94  1  0.09710852  0.77575931  0.98524059  1
  H+  H95  1  0.36472919  0.71033505  0.16332053  1
  H+  H96  1  0.65620733  0.15196076  0.32475513  1
  H+  H97  1  0.61927494  0.52863262  0.17067372  1
  H+  H98  1  0.13809200  0.09301018  0.18005903  1
  H+  H99  1  0.10454905  0.72449349  0.12587098  1
  H+  H100  1  0.65658048  0.62042938  -0.00600995  1
  H+  H101  1  0.13739703  0.12975863  0.33745408  1
  H+  H102  1  0.38761421  0.35236894  1.00248643  1
  H+  H103  1  0.36655086  0.77263968  0.31463782  1
  H+  H104  1  0.37823154  0.36934490  0.32910502  1
  H+  H105  1  0.14488755  0.61736766  0.85379509  1
  H+  H106  1  0.32525238  0.64599776  0.11012025  1
  H+  H107  1  0.41887731  -0.02565998  0.50205607  1
  H+  H108  1  0.38330531  0.48413126  0.15856008  1
  H+  H109  1  0.84135070  0.69405630  0.38854184  1
  H+  H110  1  0.40146849  0.37658416  0.78817772  1
  H+  H111  1  0.36923975  0.99458537  0.68063864  1
  H+  H112  1  0.99323363  0.36063247  1.00701387  1
  H+  H113  1  0.10472458  0.22161560  0.49448730  1
  H+  H114  1  0.49477314  0.13137262  0.99281414  1
  H+  H115  1  0.23760767  0.83643412  0.47735216  1
  H+  H116  1  0.88607566  0.00327495  0.65292969  1
  H+  H117  1  0.10548666  0.87342023  0.16080453  1
  H+  H118  1  0.85445057  0.12372126  0.49105041  1
  H+  H119  1  0.56539695  0.30786837  0.31703273  1
  H+  H120  1  0.27324566  0.90106353  0.33268426  1
  H+  H121  1  0.38703053  0.14339903  0.49294952  1
  H+  H122  1  0.90676362  0.90513758  0.15646474  1
  H+  H123  1  0.83922248  0.15881169  0.07116780  1
  H+  H124  1  0.10628468  0.12511173  0.66253400  1
  H+  H125  1  0.89298482  0.86752745  1.00885837  1
  H+  H126  1  0.75830752  0.36104345  0.27555479  1
  H+  H127  1  0.85425223  0.21119600  0.67688414  1
  H+  H128  1  0.08857607  0.66426757  0.42903675  1
  H+  H129  1  0.22202523  0.34577695  -0.00875134  1
  H+  H130  1  0.72975052  0.61772893  0.49827877  1
  H+  H131  1  0.73184682  0.11274642  0.00149004  1
  H+  H132  1  0.52228823  0.64110360  0.82116314  1
  H+  H133  1  0.72096182  0.10440462  0.50429256  1
  H+  H134  1  0.96977637  0.33881960  0.66468900  1
  H+  H135  1  0.47736023  0.60551377  0.32308931  1
  H+  H136  1  0.87860158  0.25580654  0.50008713  1
  H+  H137  1  0.07268765  0.16499855  0.43294890  1
  H+  H138  1  0.53152529  0.38786794  0.01258840  1
  H+  H139  1  0.75162159  0.12218365  0.66955839  1
  H+  H140  1  0.77255344  0.63380652  0.67381295  1
  H+  H141  1  0.89566559  0.48852351  0.01387166  1
  H+  H142  1  0.22221352  0.36195165  0.50470861  1
  H+  H143  1  0.17559979  0.09087013  0.24606722  1
  H+  H144  1  0.10526877  0.96954417  0.66700251  1
  H+  H145  1  0.94728794  0.88138852  0.82643217  1
  H+  H146  1  0.27560809  0.12905859  0.16964306  1
  H+  H147  1  0.11994568  -0.03390763  0.17371773  1
  H+  H148  1  0.52171314  0.63178905  0.66499876  1
  H+  H149  1  0.01866948  0.88073147  0.48909938  1
  H+  H150  1  0.22701952  0.60850187  0.18689341  1
  H+  H151  1  0.83113125  0.40886769  0.59653418  1
  H+  H152  1  0.50853459  0.86116512  0.63496006  1
  H+  H153  1  0.26667763  0.15457904  0.37452024  1
  H+  H154  1  0.37981826  0.47801311  0.71675042  1
  H+  H155  1  0.46250762  0.16006507  0.32012202  1
  H+  H156  1  0.66380681  0.08111154  0.59898657  1
  H+  H157  1  0.90578801  0.36668407  1.00525921  1
  H+  H158  1  1.02270284  0.12483800  0.82048570  1
  H+  H159  1  0.38668639  0.96050554  0.52758781  1
  H+  H160  1  0.39015254  0.63320399  0.99526172  1
  H+  H161  1  0.01610120  0.41123952  0.85616044  1
  H+  H162  1  0.90884898  0.52892549  0.17405243  1
  H+  H163  1  0.09538104  0.20589629  0.64766296  1
  H+  H164  1  0.28052035  0.90709516  0.68469320  1
  H+  H165  1  0.79994033  0.11605211  0.32419112  1
  H+  H166  1  0.88461634  0.64727673  0.01021920  1
  H+  H167  1  0.21667442  0.87438216  0.84647789  1
  H+  H168  1  0.39637896  0.12138477  0.99963553  1
  H+  H169  1  0.92718291  0.15183753  0.18777103  1
  H+  H170  1  0.72820640  0.86807840  0.32769306  1
  H+  H171  1  0.88256725  0.59992899  0.16674135  1
  H+  H172  1  0.08866781  0.88458339  0.82897740  1
  H+  H173  1  0.75335120  0.62045883  0.31487567  1
  H+  H174  1  0.36202999  0.46196479  0.00730045  1
  H+  H175  1  0.67339215  0.83598409  0.26600937  1
  H+  H176  1  0.59452083  0.36189075  0.48331899  1
  H+  H177  1  0.61306512  0.64115261  0.49303903  1
  H+  H178  1  0.89676748  0.55030271  0.74004951  1
  H+  H179  1  0.36663308  0.89883054  0.83654234  1
  H+  H180  1  0.40216417  0.07921567  0.24629400  1
  H+  H181  1  0.88240573  0.34041115  0.65243642  1
  H+  H182  1  0.35604381  0.62598243  0.49662279  1
  H+  H183  1  0.51788662  0.88217245  0.48915995  1
  H+  H184  1  0.87907957  0.29738584  0.80062943  1
  H+  H185  1  0.35852671  0.47511370  0.49076424  1
  H+  H186  1  0.60518023  0.11048952  0.17717168  1
  H+  H187  1  0.53299482  0.65230821  0.15233299  1
  H+  H188  1  0.96977864  0.09405554  0.65324069  1
  H+  H189  1  0.13296134  0.53027567  0.18018723  1
  H+  H190  1  0.86961545  0.21977730  1.01283157  1
  H+  H191  1  0.79178990  0.91503193  0.12622457  1
  H+  H192  1  0.23567820  0.80394599  0.62830857  1
  H+  H193  1  0.38556701  0.02686840  0.85239010  1
  H+  H194  1  0.89818561  0.56308499  0.42586761  1
  H+  H195  1  0.13061980  0.51574594  0.33306019  1
  H+  H196  1  0.39501194  0.51056525  0.31926435  1
  H+  H197  1  0.43367275  0.86873801  0.29737903  1
  H+  H198  1  0.73201790  0.84311562  0.83678522  1
  H+  H199  1  0.64081439  0.52972842  0.50022709  1
  H+  H200  1  0.11550341  0.38889312  0.67588623  1
  H+  H201  1  0.38065521  0.85284330  0.15184918  1
  H+  H202  1  0.63529027  0.77582444  0.51270114  1
  H+  H203  1  0.22041884  0.84975924  0.15485335  1
  H+  H204  1  0.85092214  0.17483041  0.82283033  1
  H+  H205  1  0.78024018  0.39040171  0.86784983  1
  H+  H206  1  0.61483030  0.21936654  0.68777234  1
  H+  H207  1  0.14999360  0.30337030  0.18140009  1
  H+  H208  1  0.62042484  0.96184155  0.84469532  1
  H+  H209  1  0.64077337  0.31217628  0.55775837  1
  H+  H210  1  0.63243379  0.10773505  0.66149517  1
  H+  H211  1  0.36913148  0.22237460  0.81283325  1
  H+  H212  1  0.33287920  0.22750880  0.47312761  1
  H+  H213  1  0.84714098  0.73698393  0.82334631  1
  H+  H214  1  0.13298248  0.26739806  0.83289533  1
  H+  H215  1  0.88677465  0.10202911  0.99078688  1
  H+  H216  1  0.11331379  0.38316629  0.82883768  1
  H+  H217  1  0.64353147  0.76896525  0.65888021  1
  H+  H218  1  0.39014124  0.12603870  0.65558447  1
  H+  H219  1  0.62624237  0.46997899  0.82910996  1
  H+  H220  1  0.60208623  0.38787425  0.67398491  1
  H+  H221  1  0.77796524  0.89751609  1.03246006  1
  H+  H222  1  0.51127122  0.38376562  0.16779784  1
  H+  H223  1  0.63505909  0.52412266  0.65773274  1
  H+  H224  1  0.77182225  0.88580822  0.49473623  1
  H+  H225  1  0.83761584  0.88913844  0.73683582  1
  H+  H226  1  0.12828559  0.26465029  0.33935743  1
  H+  H227  1  0.40274834  0.87076653  0.99466784  1
  H+  H228  1  0.62786318  0.74846650  0.82643490  1
  H+  H229  1  0.64908592  0.52844803  0.00075232  1
  H+  H230  1  0.47463777  0.61040273  0.51255174  1
  H+  H231  1  0.62028556  0.16831250  0.38634748  1
  H+  H232  1  0.86296178  0.90883294  0.33382121  1
  H+  H233  1  0.88186195  0.86307504  0.50276947  1
  H+  H234  1  0.12933305  0.60350054  0.50754950  1
  H+  H235  1  0.53408226  0.38513946  0.81926794  1
  H+  H236  1  0.37880536  0.25914942  0.18012168  1
  H+  H237  1  0.64083821  0.35587902  0.84459378  1
  H+  H238  1  0.87138412  0.85741522  0.67078618  1
  H+  H239  1  0.92525230  0.41940886  0.87518204  1
  H+  H240  1  0.61692417  0.13758628  0.00957554  1
  H+  H241  1  0.61986304  0.65142981  0.15450486  1
  H+  H242  1  0.97266727  0.36120586  0.17354513  1
  H+  H243  1  0.41483189  1.00362381  0.01605193  1
  H+  H244  1  0.98118269  0.63049413  0.85655540  1
  H+  H245  1  0.32268971  0.17134912  0.59726024  1
  H+  H246  1  1.01711706  0.37553028  0.49555571  1
  H+  H247  1  0.75402546  0.60638625  0.15044268  1
  H+  H248  1  0.36922331  0.64708865  0.82509922  1
  H+  H249  1  0.11417385  0.13060963  -0.00645361  1
  H+  H250  1  0.89422440  0.78128478  0.99907727  1
  H+  H251  1  0.86588780  0.22253611  0.16628376  1
  H+  H252  1  0.48072051  0.38202797  0.32296863  1
  H+  H253  1  0.14500624  0.19464293  0.13272356  1
  H+  H254  1  0.10067053  0.71434068  0.49148603  1
  H+  H255  1  0.83522217  0.42870210  0.92633147  1
  H+  H256  1  0.46519193  0.09424877  0.18975862  1
  H+  H257  1  0.67756505  0.34641803  0.72667754  1
  H+  H258  1  0.37438605  0.75751764  0.50062436  1
  H+  H259  1  0.85750865  0.46179529  0.50147908  1
  H+  H260  1  0.26672497  0.37408077  0.34139929  1
  H+  H261  1  0.13282983  0.36092849  0.50957078  1
  H+  H262  1  0.59378684  0.23726117  0.31528660  1
  H+  H263  1  0.26532832  0.62402292  0.49962850  1
  H+  H264  1  0.90156308  0.25094631  0.32383607  1
  H+  H265  1  0.11353682  0.90776342  0.33096373  1
  H+  H266  1  0.33334984  0.83736402  0.47237218  1
  H+  H267  1  0.05661195  0.25581188  0.20828995  1
  H+  H268  1  0.48220044  0.86428316  0.84273870  1
  H+  H269  1  0.29037505  0.40297613  0.16460315  1
  H+  H270  1  0.65589860  0.01000475  0.21294123  1
  H+  H271  1  0.62003883  0.22782715  0.01619912  1
  H+  H272  1  0.72005250  0.35500088  0.51308189  1
  H+  H273  1  0.62150462  0.39198373  1.01981900  1
  H+  H274  1  0.67305166  0.56664420  0.90311685  1
  H+  H275  1  0.64568892  0.85483277  0.84198342  1
  H+  H276  1  0.93363040  0.45235852  0.38751929  1
  H+  H277  1  0.09664446  0.38929822  0.17083329  1
  H+  H278  1  0.86146086  0.73139348  0.48775465  1
  H+  H279  1  0.11030434  0.88327593  0.67068645  1
  H+  H280  1  0.22989797  0.10874928  -0.01126919  1
  H+  H281  1  0.49825677  0.86733751  0.66711507  1
  H+  H282  1  0.87265414  -0.04805842  0.83031261  1
  H+  H283  1  0.37023710  0.12645500  0.34579003  1
  H+  H284  1  -0.02085854  0.88127226  0.16888009  1
  H+  H285  1  0.60625435  0.97054425  0.49503402  1
  H+  H286  1  0.18637688  0.76548409  0.31126635  1
  H+  H287  1  0.45896862  0.35612827  0.51517345  1
  H+  H288  1  0.91196143  0.30535100  0.56316717  1
  H+  H289  1  0.60083559  0.67986810  0.06315318  1
  H+  H290  1  0.14402588  0.06625336  0.59477059  1
  H+  H291  1  0.40536589  0.57019125  0.56760456  1
  H+  H292  1  0.33586158  0.14979974  0.07550572  1
  H+  H293  1  0.90868995  0.07177495  0.56150350  1
  H+  H294  1  0.28137497  0.81283806  0.28208496  1
  H+  H295  1  0.42345499  0.09561235  0.92064346  1
  H+  H296  1  0.57766841  0.13868446  0.11651811  1
  H+  H297  1  0.91196342  0.82983630  0.56079884  1
  H+  H298  1  0.07948510  0.13613542  0.08487706  1
  H+  H299  1  0.91222847  0.05351947  0.89889516  1
  H+  H300  1  0.15513560  0.32910519  0.28162429  1
  H+  H301  1  0.06733079  0.91182059  0.76594164  1
  H+  H302  1  0.08048215  0.91535447  0.43102936  1
  H+  H303  1  0.81946122  0.63061036  0.09331762  1
  H+  H304  1  0.60982525  0.63005128  0.66605898  1
  H+  H305  1  0.33615854  0.41048215  0.06942845  1
  H+  H306  1  0.50890539  0.71707677  0.37685728  1
  H+  H307  1  0.33876480  0.93449335  0.77982363  1
  H+  H308  1  0.15100721  0.84530263  0.90368663  1
  H+  H309  1  0.82563245  0.91835052  0.39688986  1
  H+  H310  1  0.82756882  0.15085793  0.42978864  1
  H+  H311  1  0.34989308  0.93197411  0.10694746  1
  H+  H312  1  0.80034516  0.42863585  0.76779782  1
  H+  H313  1  0.41057778  0.33329889  0.26501304  1
  H+  H314  1  0.46684862  0.96929008  0.05532331  1
  H+  H315  1  0.92670709  0.87384911  0.25644125  1
  H+  H316  1  0.15939693  0.57638749  0.27217418  1
  H+  H317  1  0.67029631  0.59346353  0.22427795  1
  H+  H318  1  0.52918686  0.13286331  0.83700108  1
  H+  H319  1  0.11882395  0.10385540  0.50758226  1
  H+  H320  1  0.16369636  0.82517306  0.55907670  1
  H+  H321  1  0.89265122  0.12980724  0.34462409  1
  H+  H322  1  0.56990393  0.42140262  0.10744438  1
  H+  H323  1  0.87734922  0.57916098  0.58366030  1
  H+  H324  1  0.11916830  0.73870257  0.85804447  1
  H+  H325  1  0.15153729  0.56982818  0.60379850  1
  H+  H326  1  0.17049016  0.80300871  0.21232371  1
  H+  H327  1  0.12211772  0.38480035  0.35086169  1
  H+  H328  1  0.96060453  0.37737185  0.92897194  1
  H+  H329  1  0.59281931  0.93202038  0.38889270  1
  H+  H330  1  0.16390189  0.57563780  0.93913348  1
  H+  H331  1  0.13104370  0.25926503  0.98853170  1
  H+  H332  1  0.32508237  0.66626981  0.73033360  1
  H+  H333  1  0.81322041  0.13517812  0.73391704  1
  H+  H334  1  0.39637110  0.35706372  0.85648554  1
  H+  H335  1  0.38265576  0.82121996  0.55328258  1
  H+  H336  1  0.18831215  0.36286619  0.59698683  1
  H+  H337  1  0.31055194  0.49102404  0.64117568  1
  H+  H338  1  0.41774425  0.31445888  0.94866048  1
  H+  H339  1  0.75227361  0.82088737  0.19744031  1
  H+  H340  1  0.85640934  0.37160275  0.51215620  1
  H+  H341  1  0.08050493  0.41037784  0.43796522  1
  H+  H342  1  0.91882367  0.32313149  0.23523410  1
  H+  H343  1  0.05449543  0.65973640  0.04741724  1
  H+  H344  1  0.74539086  0.48526231  0.12631921  1
  H+  H345  1  0.40154206  0.33813172  0.57444787  1
  H+  H346  1  0.41478127  0.58154342  0.89255007  1
  H+  H347  1  0.33087524  0.40896888  0.39941331  1
  H+  H348  1  0.63444624  0.86414236  0.51128337  1
  H+  H349  1  0.04409735  0.65929847  0.33376576  1
  H+  H350  1  0.38649112  0.05837587  0.50685072  1
  H+  H351  1  0.46757622  0.37040866  0.66970577  1
  H+  H352  1  0.83461090  0.41638665  0.76482880  1
  H+  H353  1  0.34802869  0.99575675  0.35526532  1
  H+  H354  1  0.61009811  0.91646490  0.78154901  1
  H+  H355  1  0.57490614  0.67707562  0.44101219  1
  H+  H356  1  0.12014559  0.46954391  0.01013763  1
  H+  H357  1  0.10282022  0.67729331  0.74031565  1
  H+  H358  1  0.58406656  0.42247525  0.73390600  1
  H+  H359  1  0.67392379  0.33446786  0.94687733  1
  H+  H360  1  0.30059381  0.88925728  0.41520809  1
  H+  H361  1  0.67936475  0.83568678  0.60260417  1
  H+  H362  1  0.92123801  0.58398584  0.58400300  1
  H+  H363  1  0.16738788  0.32549017  0.89293829  1
  H+  H364  1  1.00031118  0.13739618  0.28775388  1
  H+  H365  1  0.58061904  0.42503986  0.38923954  1
  H+  H366  1  0.83608799  0.40377349  0.37025337  1
  H+  H367  1  0.11601684  0.63099827  0.33997743  1
  H+  H368  1  0.42847112  0.10022834  0.60251791  1
  H+  H369  1  0.46446977  0.68597877  0.95097989  1
  H+  H370  1  0.85931225  0.42427741  0.06955749  1
  H+  H371  1  0.73559145  0.54197527  0.27392878  1
  H+  H372  1  0.51217879  0.32242880  0.44348428  1
  H+  H373  1  0.58531292  0.15522720  0.77672670  1
  H+  H374  1  0.10071041  0.86611846  0.98169215  1
  H+  H375  1  0.35126743  0.23103188  0.65375859  1
  H+  H376  1  0.43499485  0.57452737  0.22562153  1
  H+  H377  1  0.41719123  0.83163673  0.93267999  1
  H+  H378  1  0.58040673  0.67071456  0.75922732  1
  H+  H379  1  0.08417481  0.41952433  0.10542491  1
  H+  H380  1  0.07831916  0.41146269  0.77049982  1
  H+  H381  1  0.66973672  0.58380689  0.59793010  1
  H+  H382  1  0.28199550  0.13261081  0.81996970  1
  H+  H383  1  0.18048481  0.08989450  0.92480302  1
  O2-  O384  1  0.09110564  0.14046035  0.13050066  1
  O2-  O385  1  0.07238193  0.16180896  0.47929057  1
  O2-  O386  1  0.08131780  0.16345655  0.80443719  1
  O2-  O387  1  0.07496887  0.42365426  0.14967442  1
  O2-  O388  1  0.07886401  0.41041089  0.48388909  1
  O2-  O389  1  0.08598899  0.41778271  0.81590592  1
  O2-  O390  1  0.06476586  0.66774081  0.10587547  1
  O2-  O391  1  0.07612049  0.65540542  0.47422897  1
  O2-  O392  1  0.09082916  0.67444694  0.86667962  1
  O2-  O393  1  0.08093454  0.91108799  0.15378338  1
  O2-  O394  1  0.08011028  0.90951503  0.47624069  1
  O2-  O395  1  0.06092200  0.91525504  0.81042809  1
  O2-  O396  1  0.33558398  0.16045174  0.15258931  1
  O2-  O397  1  0.31818490  0.17045260  0.45711110  1
  O2-  O398  1  0.34488730  0.15979332  0.81034632  1
  O2-  O399  1  0.34575586  0.42013602  0.14578164  1
  O2-  O400  1  0.32638899  0.41461056  0.47557005  1
  O2-  O401  1  0.30381941  0.44913575  0.78385410  1
  O2-  O402  1  0.33352082  0.64771943  0.15479523  1
  O2-  O403  1  0.32534716  0.65672764  0.48389166  1
  O2-  O404  1  0.33833620  0.67704151  0.81121488  1
  O2-  O405  1  0.33064975  0.91335921  0.14938013  1
  O2-  O406  1  0.28463075  0.83999748  0.44928839  1
  O2-  O407  1  0.33789965  0.93217337  0.82536367  1
  O2-  O408  1  0.56389039  0.12513980  0.15973779  1
  O2-  O409  1  0.58355185  0.15644032  0.46905237  1
  O2-  O410  1  0.58900712  0.15855663  0.82220188  1
  O2-  O411  1  0.56953056  0.42571881  0.15271601  1
  O2-  O412  1  0.55162729  0.37542793  0.46487585  1
  O2-  O413  1  0.59539640  0.41012786  0.80836793  1
  O2-  O414  1  0.59384324  0.68545789  0.13786849  1
  O2-  O415  1  0.57964163  0.67067718  0.48590947  1
  O2-  O416  1  0.58206835  0.67450564  0.80460591  1
  O2-  O417  1  0.55007942  0.94907161  0.08337238  1
  O2-  O418  1  0.57927982  0.91141480  0.47751916  1
  O2-  O419  1  0.59377443  0.90339704  0.82606906  1
  O2-  O420  1  0.84353808  0.16092374  0.15414207  1
  O2-  O421  1  0.82361577  0.15362708  0.47484057  1
  O2-  O422  1  0.81476406  0.11679117  0.80660513  1
  O2-  O423  1  0.86133673  0.42822728  0.14400493  1
  O2-  O424  1  0.82581395  0.40439192  0.52103812  1
  O2-  O425  1  0.84064329  0.43039400  0.88195351  1
  O2-  O426  1  0.80052237  0.59819921  0.13285828  1
  O2-  O427  1  0.82887650  0.67313026  0.46777386  1
  O2-  O428  1  0.82952982  0.67720295  0.81056605  1
  O2-  O429  1  0.84982910  0.95340464  0.10877529  1
  O2-  O430  1  0.83127291  0.91170103  0.47838245  1
  O2-  O431  1  0.84188105  0.89160140  0.81006422  1
  O2-  O432  1  0.17739433  0.07871222  0.20191573  1
  O2-  O433  1  0.14646745  0.07316280  0.52628137  1
  O2-  O434  1  0.17651431  0.08357652  0.84166527  1
  O2-  O435  1  0.11271263  0.31401586  0.20751948  1
  O2-  O436  1  0.16523718  0.33301709  0.52580077  1
  O2-  O437  1  0.16476263  0.32823827  0.84765112  1
  O2-  O438  1  0.16729501  0.58631449  0.20083603  1
  O2-  O439  1  0.15831173  0.57410272  0.52616037  1
  O2-  O440  1  0.17741437  0.58637378  0.86000007  1
  O2-  O441  1  0.16027316  0.81141344  0.16915706  1
  O2-  O442  1  0.15623962  0.82182473  0.51401666  1
  O2-  O443  1  0.15511017  0.84152010  0.85706309  1
  O2-  O444  1  0.40365236  0.07131359  0.20149220  1
  O2-  O445  1  0.41926165  0.11984446  0.51558589  1
  O2-  O446  1  0.41797585  0.08977760  0.86683298  1
  O2-  O447  1  0.40720015  0.32049635  0.19575401  1
  O2-  O448  1  0.39913148  0.33086765  0.52953337  1
  O2-  O449  1  0.41738545  0.34607363  0.81866996  1
  O2-  O450  1  0.43191343  0.57843910  0.17936557  1
  O2-  O451  1  0.41206050  0.57653479  0.52275072  1
  O2-  O452  1  0.41876899  0.58574140  0.84773642  1
  O2-  O453  1  0.40773685  0.81934395  0.13610523  1
  O2-  O454  1  0.39689977  0.82052749  0.50960862  1
  O2-  O455  1  0.42131764  0.84048193  0.85594696  1
  O2-  O456  1  0.68151448  0.07188406  0.22064310  1
  O2-  O457  1  0.66215681  0.07663264  0.52305170  1
  O2-  O458  1  0.66821822  0.06950901  0.86348462  1
  O2-  O459  1  0.71752795  0.42170926  0.12973932  1
  O2-  O460  1  0.65517654  0.32244896  0.51465196  1
  O2-  O461  1  0.67078931  0.32786665  0.86444351  1
  O2-  O462  1  0.65811966  0.59150842  0.18015749  1
  O2-  O463  1  0.67037464  0.58778253  0.51691429  1
  O2-  O464  1  0.66868539  0.55883843  0.85815524  1
  O2-  O465  1  0.71094998  0.83816211  0.18497647  1
  O2-  O466  1  0.66687159  0.83650203  0.52755051  1
  O2-  O467  1  0.67056688  0.81525834  0.84928740  1
  O2-  O468  1  0.98161991  0.15967178  0.20610041  1
  O2-  O469  1  0.90717873  0.07545896  0.51582226  1
  O2-  O470  1  0.91229637  0.04786057  0.85321317  1
  O2-  O471  1  0.91294391  0.32460775  0.18991105  1
  O2-  O472  1  0.90935916  0.31482691  0.51901475  1
  O2-  O473  1  0.97804332  0.41770621  0.88930430  1
  O2-  O474  1  0.92963343  0.59097494  0.18386404  1
  O2-  O475  1  0.90586783  0.57060997  0.46971380  1
  O2-  O476  1  0.91914395  0.60757676  0.86650349  1
  O2-  O477  1  0.92054670  0.86904248  0.18242178  1
  O2-  O478  1  0.91232499  0.83090137  0.51592047  1
  O2-  O479  1  0.88437278  0.84632443  0.83644390  1
  O2-  O480  1  0.17698804  0.10607716  0.32752608  1
  O2-  O481  1  0.14738550  0.06622324  0.64212872  1
  O2-  O482  1  0.17765837  0.10074177  0.96860563  1
  O2-  O483  1  0.16666866  0.32935011  0.32577702  1
  O2-  O484  1  0.20348176  0.38579481  0.64033295  1
  O2-  O485  1  0.16328914  0.32132392  0.97470369  1
  O2-  O486  1  0.15615150  0.57608689  0.31860023  1
  O2-  O487  1  0.15081195  0.56725704  0.64957836  1
  O2-  O488  1  0.15540210  0.57323732  0.98420063  1
  O2-  O489  1  0.22686740  0.81525946  0.28618498  1
  O2-  O490  1  0.18783629  0.81639495  0.63545298  1
  O2-  O491  1  0.13418373  0.83598939  0.97328053  1
  O2-  O492  1  0.40540710  0.10565430  0.32540941  1
  O2-  O493  1  0.42415130  0.09707342  0.64737201  1
  O2-  O494  1  0.43226121  0.09931459  0.97708177  1
  O2-  O495  1  0.41730308  0.34520978  0.31117285  1
  O2-  O496  1  0.40615517  0.34099787  0.65579349  1
  O2-  O497  1  0.41997879  0.32167335  0.99266664  1
  O2-  O498  1  0.43554201  0.56117285  0.29529679  1
  O2-  O499  1  0.36758562  0.54308072  0.64746279  1
  O2-  O500  1  0.43538280  0.62970569  0.97060787  1
  O2-  O501  1  0.37934454  0.81964797  0.28467291  1
  O2-  O502  1  0.33207114  0.80238932  0.62766754  1
  O2-  O503  1  0.41767260  0.82790591  0.97840538  1
  O2-  O504  1  0.69251649  0.07982010  0.28766200  1
  O2-  O505  1  0.66678374  0.08233783  0.64497860  1
  O2-  O506  1  0.67190764  0.08563184  0.98486156  1
  O2-  O507  1  0.54981206  0.25159633  0.30033296  1
  O2-  O508  1  0.66828787  0.33184801  0.68342023  1
  O2-  O509  1  0.67396328  0.33511833  0.99219473  1
  O2-  O510  1  0.70590196  0.56884038  0.29309970  1
  O2-  O511  1  0.66776693  0.58500859  0.64327634  1
  O2-  O512  1  0.68366678  0.58609276  0.98164443  1
  O2-  O513  1  0.66655512  0.83622620  0.31065880  1
  O2-  O514  1  0.68500320  0.82984966  0.64803195  1
  O2-  O515  1  0.68960481  0.85587114  1.00633606  1
  O2-  O516  1  0.99159508  0.12474209  0.33177777  1
  O2-  O517  1  0.91055224  0.06151631  0.63683039  1
  O2-  O518  1  0.91394690  0.06945273  0.97515975  1
  O2-  O519  1  0.92951177  0.31277179  0.31093747  1
  O2-  O520  1  0.90963986  0.30401273  0.64864027  1
  O2-  O521  1  0.93474919  0.33645615  0.98671805  1
  O2-  O522  1  0.93313246  0.61847620  0.30080553  1
  O2-  O523  1  0.91220980  0.57049216  0.69826875  1
  O2-  O524  1  0.95258813  0.59883735  0.98870561  1
  O2-  O525  1  0.92986378  0.87112613  0.30256101  1
  O2-  O526  1  0.91283590  0.82250254  0.64638627  1
  O2-  O527  1  0.90532700  0.83486579  0.97843301  1
  O2-  O528  1  0.08032838  0.15629816  0.01221854  1
  O2-  O529  1  0.07950083  0.17316836  0.35811761  1
  O2-  O530  1  0.07754535  0.15859911  0.67626013  1
  O2-  O531  1  0.09283693  0.41004704  0.02713464  1
  O2-  O532  1  0.08687796  0.41211864  0.36242257  1
  O2-  O533  1  0.07320020  0.40419779  0.69237055  1
  O2-  O534  1  0.04782128  0.64964390  -0.00489985  1
  O2-  O535  1  0.09901536  0.67478903  0.35397008  1
  O2-  O536  1  0.08575887  0.66718325  0.69761585  1
  O2-  O537  1  0.04427758  0.91749362  -0.01716190  1
  O2-  O538  1  0.08363772  0.93250145  0.35244161  1
  O2-  O539  1  0.07504619  0.90799789  0.68306155  1
  O2-  O540  1  0.34024422  0.15297457  0.02976683  1
  O2-  O541  1  0.32753394  0.18513270  0.39088884  1
  O2-  O542  1  0.32375110  0.16924767  0.64167860  1
  O2-  O543  1  0.33417992  0.40382449  0.02380182  1
  O2-  O544  1  0.32987937  0.40514571  0.35369004  1
  O2-  O545  1  0.35408502  0.42556138  0.74273699  1
  O2-  O546  1  0.32366971  0.66794741  0.02812852  1
  O2-  O547  1  0.32309198  0.68361555  0.35772533  1
  O2-  O548  1  0.31869967  0.65942316  0.68518850  1
  O2-  O549  1  0.40925187  0.95346926  0.03855035  1
  O2-  O550  1  0.29883356  0.94034834  0.36878244  1
  O2-  O551  1  0.33960213  0.93723037  0.70085577  1
  O2-  O552  1  0.58384285  0.16506444  0.02460772  1
  O2-  O553  1  0.64970855  0.19522117  0.34796597  1
  O2-  O554  1  0.58299228  0.15674738  0.69710076  1
  O2-  O555  1  0.58991779  0.42279753  0.02975497  1
  O2-  O556  1  0.57604838  0.42546759  0.34446080  1
  O2-  O557  1  0.57521669  0.42102410  0.68827146  1
  O2-  O558  1  0.60637738  0.68071533  0.01736042  1
  O2-  O559  1  0.54978090  0.69743768  0.36925688  1
  O2-  O560  1  0.58023443  0.66174788  0.68115693  1
  O2-  O561  1  0.57686079  0.91972035  0.02935422  1
  O2-  O562  1  0.59572616  0.93305415  0.34398237  1
  O2-  O563  1  0.65822417  0.94616184  0.71593474  1
  O2-  O564  1  0.83663784  0.15913683  0.02578293  1
  O2-  O565  1  0.85078391  0.14993110  0.35035248  1
  O2-  O566  1  0.81417662  0.14822970  0.68879535  1
  O2-  O567  1  0.85954247  0.42622548  0.02314832  1
  O2-  O568  1  0.88076266  0.39703207  0.39023527  1
  O2-  O569  1  0.83077678  0.40283297  0.64218772  1
  O2-  O570  1  0.84827130  0.67066923  0.02404269  1
  O2-  O571  1  0.84491253  0.69806210  0.34317608  1
  O2-  O572  1  0.83255563  0.66443457  0.69006578  1
  O2-  O573  1  0.84295093  0.92666831  0.04463683  1
  O2-  O574  1  0.82111297  0.92295383  0.35226492  1
  O2-  O575  1  0.83552913  0.88856262  0.69032475  1
