# generated using pymatgen
data_H2O
_symmetry_space_group_name_H-M   'P 1'
_cell_length_a   17.98272933
_cell_length_b   17.98592937
_cell_length_c   21.99059198
_cell_angle_alpha   89.99985086
_cell_angle_beta   90.00376375
_cell_angle_gamma   120.04746837
_symmetry_Int_Tables_number   1
_chemical_formula_structural   H2O
_chemical_formula_sum   'H384 O192'
_cell_volume   6156.70168094
_cell_formula_units_Z   192
loop_
 _symmetry_equiv_pos_site_id
 _symmetry_equiv_pos_as_xyz
  1  'x, y, z'
loop_
 _atom_type_symbol
 _atom_type_oxidation_number
  H+  1.0
  O2-  -2.0
loop_
 _atom_site_type_symbol
 _atom_site_label
 _atom_site_symmetry_multiplicity
 _atom_site_fract_x
 _atom_site_fract_y
 _atom_site_fract_z
 _atom_site_occupancy
  H+  H0  1  0.40939260  0.83246197  0.48526338  1
  H+  H1  1  0.83584059  0.11984440  0.01157592  1
  H+  H2  1  0.63376889  0.27525035  0.00411012  1
  H+  H3  1  0.37942923  0.11418443  0.18292559  1
  H+  H4  1  0.80371881  0.14460712  0.83222833  1
  H+  H5  1  0.48629497  0.85835669  0.98578212  1
  H+  H6  1  0.64461585  0.16751877  0.49384005  1
  H+  H7  1  0.79156436  0.16566120  0.68530595  1
  H+  H8  1  0.02050463  0.37035448  -0.00172260  1
  H+  H9  1  0.25061395  0.36200411  0.18762834  1
  H+  H10  1  0.10274358  0.15508029  0.06843881  1
  H+  H11  1  0.58683394  0.70523840  0.32547044  1
  H+  H12  1  0.35794617  0.94180502  0.84904609  1
  H+  H13  1  0.60923443  0.70110934  0.47379098  1
  H+  H14  1  0.88893063  0.12408864  0.66769801  1
  H+  H15  1  0.62254234  0.63924339  0.16090366  1
  H+  H16  1  0.07912879  0.40482619  0.77687059  1
  H+  H17  1  0.74816944  0.88731928  0.97310860  1
  H+  H18  1  0.89989606  0.61360340  -0.00926857  1
  H+  H19  1  0.35648091  0.72370820  0.33069789  1
  H+  H20  1  0.65051751  0.06474357  0.68672921  1
  H+  H21  1  0.35285850  0.21263935  1.01239565  1
  H+  H22  1  0.02713455  0.14329730  0.15818965  1
  H+  H23  1  0.40193439  1.02072062  -0.03337596  1
  H+  H24  1  0.53128448  0.17450301  0.68367798  1
  H+  H25  1  0.32521773  0.09222556  0.53914618  1
  H+  H26  1  0.25297187  0.89701155  0.70195145  1
  H+  H27  1  0.26836116  0.15323513  0.68084476  1
  H+  H28  1  0.32560769  0.73019887  0.66118244  1
  H+  H29  1  0.64017971  0.27162594  0.32384444  1
  H+  H30  1  0.95697132  0.14067765  -0.03500418  1
  H+  H31  1  0.36815432  0.60490125  0.82445886  1
  H+  H32  1  0.59760982  0.17308836  0.39486054  1
  H+  H33  1  0.28161614  0.11534922  0.01797428  1
  H+  H34  1  0.63167422  0.49119396  0.48926336  1
  H+  H35  1  0.61358167  0.13362093  0.33386802  1
  H+  H36  1  0.21642403  0.60307423  0.82484204  1
  H+  H37  1  0.36196582  0.14041169  0.34557809  1
  H+  H38  1  0.89033479  0.26998786  0.31902438  1
  H+  H39  1  0.13596143  0.77338255  0.98314433  1
  H+  H40  1  0.77590321  0.38647305  1.00712121  1
  H+  H41  1  0.13858577  1.02835352  0.33478775  1
  H+  H42  1  0.22747045  0.86989103  0.32423895  1
  H+  H43  1  0.88425223  0.35721188  0.99382136  1
  H+  H44  1  0.47574639  0.11730941  0.33449033  1
  H+  H45  1  0.62136856  0.22484610  0.83715925  1
  H+  H46  1  0.73312495  0.84589537  0.49544836  1
  H+  H47  1  0.85955847  0.18987569  0.73860780  1
  H+  H48  1  0.89271708  0.29826377  0.67000584  1
  H+  H49  1  0.45839822  0.61239106  0.84413630  1
  H+  H50  1  0.09849269  0.70865822  0.82100294  1
  H+  H51  1  0.88713401  0.11856826  0.17095698  1
  H+  H52  1  0.03056704  0.38156215  0.33866417  1
  H+  H53  1  0.88567877  0.62068139  0.50088878  1
  H+  H54  1  0.11361979  0.80556345  0.45001179  1
  H+  H55  1  0.61166414  0.47219806  0.16081773  1
  H+  H56  1  0.63177824  0.62385182  0.84430979  1
  H+  H57  1  0.35874494  0.13792236  0.54749347  1
  H+  H58  1  0.36247283  0.88652269  0.32534939  1
  H+  H59  1  0.63060837  0.59927224  0.49083507  1
  H+  H60  1  0.13640308  0.51154511  0.98176329  1
  H+  H61  1  0.01461429  0.64142135  0.66661252  1
  H+  H62  1  0.72568781  0.82921143  0.68776351  1
  H+  H63  1  0.34783740  0.47297012  0.00786214  1
  H+  H64  1  0.33635917  0.60014225  0.46864476  1
  H+  H65  1  0.76942522  0.88940289  0.80436676  1
  H+  H66  1  0.48567060  0.38775575  0.83872508  1
  H+  H67  1  0.88431883  0.61885263  0.34895879  1
  H+  H68  1  0.85094347  0.97278664  0.49810378  1
  H+  H69  1  0.13771622  0.12290381  0.34101042  1
  H+  H70  1  0.61386398  0.38656247  1.00475479  1
  H+  H71  1  0.56671214  0.63705399  0.41774367  1
  H+  H72  1  0.60503785  0.72337577  0.82313104  1
  H+  H73  1  0.52506594  0.13856555  1.00085311  1
  H+  H74  1  0.85628320  0.88763915  0.34180320  1
  H+  H75  1  0.87327018  0.11045445  0.51572507  1
  H+  H76  1  0.08283344  0.62353346  0.43760120  1
  H+  H77  1  0.21205759  0.13635885  0.50805137  1
  H+  H78  1  0.15690146  0.84598283  0.44997761  1
  H+  H79  1  0.26777841  0.63172540  0.32789338  1
  H+  H80  1  0.55177011  0.15174837  0.49239266  1
  H+  H81  1  0.77292837  0.64434088  0.82367142  1
  H+  H82  1  0.63079111  0.85947555  0.16781892  1
  H+  H83  1  0.88793711  0.51147157  0.16791005  1
  H+  H84  1  0.41427242  0.82462305  0.26192836  1
  H+  H85  1  0.88304345  0.03273985  0.67580755  1
  H+  H86  1  0.88140866  0.90082442  0.00320275  1
  H+  H87  1  0.20664980  0.69615183  0.54827493  1
  H+  H88  1  0.61495914  0.33664058  0.85882135  1
  H+  H89  1  0.81228251  0.77342520  0.20821562  1
  H+  H90  1  0.14442079  0.60942257  0.16211663  1
  H+  H91  1  0.04118157  0.40766091  0.49753922  1
  H+  H92  1  0.83004511  0.22786063  0.45777979  1
  H+  H93  1  0.36807053  0.63163919  0.00670061  1
  H+  H94  1  0.38053085  0.83371010  0.83724764  1
  H+  H95  1  0.51802003  0.86159127  0.81638616  1
  H+  H96  1  0.27703543  0.37677066  0.01157753  1
  H+  H97  1  0.63079533  0.11510422  -0.00581087  1
  H+  H98  1  0.23486060  0.12417084  0.33467322  1
  H+  H99  1  0.63151037  1.02501495  -0.00993413  1
  H+  H100  1  0.10728433  0.99586663  0.49721488  1
  H+  H101  1  0.62353140  0.48309413  0.00318329  1
  H+  H102  1  0.20478603  0.80920464  0.53971283  1
  H+  H103  1  0.12183699  0.60700113  0.52657586  1
  H+  H104  1  0.21523274  0.84774560  0.83399695  1
  H+  H105  1  -0.02941625  0.87419213  0.66641726  1
  H+  H106  1  0.34815060  0.70512785  0.80709165  1
  H+  H107  1  0.72093659  0.10539584  0.31388918  1
  H+  H108  1  0.51616945  0.13567007  0.16422957  1
  H+  H109  1  0.36216388  0.48696887  0.46006714  1
  H+  H110  1  0.13058049  0.76619958  0.15321891  1
  H+  H111  1  0.22680937  0.35962430  0.84333678  1
  H+  H112  1  0.13487949  0.27183084  0.84513821  1
  H+  H113  1  0.97136454  0.87173089  0.51035114  1
  H+  H114  1  0.30242294  0.40613917  0.36199895  1
  H+  H115  1  0.26826493  0.55469147  0.96110230  1
  H+  H116  1  0.38441150  0.26587964  0.18363682  1
  H+  H117  1  0.11239394  0.26456496  0.51153583  1
  H+  H118  1  0.43556340  0.85459007  0.66540482  1
  H+  H119  1  0.86396913  0.12877230  0.32399588  1
  H+  H120  1  0.12898709  1.03843854  0.83804641  1
  H+  H121  1  0.62175731  0.50685476  0.82208035  1
  H+  H122  1  0.47647780  0.35328300  0.17894315  1
  H+  H123  1  1.02737020  0.11659547  0.98000353  1
  H+  H124  1  0.76700164  0.95136112  0.72496009  1
  H+  H125  1  0.10076781  0.62083895  0.82211962  1
  H+  H126  1  0.36563009  0.23218900  0.33877204  1
  H+  H127  1  0.47149558  0.85824924  0.32108174  1
  H+  H128  1  0.76892281  0.89685346  0.16080199  1
  H+  H129  1  0.05515627  0.85679628  0.15678177  1
  H+  H130  1  0.52116155  0.87950475  0.15136157  1
  H+  H131  1  0.59013888  0.81810058  0.67270430  1
  H+  H132  1  0.63616273  0.36024703  0.17084577  1
  H+  H133  1  0.35196719  0.56841346  0.92314358  1
  H+  H134  1  0.10694848  0.90791678  0.49319915  1
  H+  H135  1  0.85363018  0.72850203  0.67138980  1
  H+  H136  1  0.48941458  0.81987221  0.48511234  1
  H+  H137  1  0.26587697  0.63435514  0.63715885  1
  H+  H138  1  0.27199458  0.87369175  -0.02522297  1
  H+  H139  1  0.03065337  0.64071557  0.34831662  1
  H+  H140  1  0.72984976  0.36022133  0.32544300  1
  H+  H141  1  0.87353017  0.61476937  0.65253658  1
  H+  H142  1  0.09808224  0.89358253  0.68694551  1
  H+  H143  1  0.71211815  0.84706456  0.32422435  1
  H+  H144  1  0.13603608  0.82891468  0.75023599  1
  H+  H145  1  0.75465061  0.13167345  1.00694386  1
  H+  H146  1  0.12045840  0.72682791  0.34416859  1
  H+  H147  1  0.35689980  0.39606538  0.66853046  1
  H+  H148  1  0.52966386  0.38190953  0.34618929  1
  H+  H149  1  0.43749878  0.69661159  0.65539258  1
  H+  H150  1  0.38411735  0.28817752  0.66449490  1
  H+  H151  1  0.91365312  0.30874771  0.53187505  1
  H+  H152  1  0.65337333  0.29096125  0.50966239  1
  H+  H153  1  0.27885920  0.62228887  0.15765460  1
  H+  H154  1  0.40271255  0.37187076  0.33865146  1
  H+  H155  1  0.71463272  0.36513414  0.84373337  1
  H+  H156  1  0.85867557  0.73254276  0.34005465  1
  H+  H157  1  0.49002634  0.61508108  0.17320752  1
  H+  H158  1  0.40427866  0.52482020  0.18260183  1
  H+  H159  1  0.16328256  0.09587936  0.57245857  1
  H+  H160  1  0.11567510  0.89841200  0.34173375  1
  H+  H161  1  0.77059980  0.38465561  0.15794436  1
  H+  H162  1  0.62591635  0.94125810  0.47789805  1
  H+  H163  1  0.12142549  0.22568889  0.16470367  1
  H+  H164  1  0.17524720  0.32253757  0.94009638  1
  H+  H165  1  -0.00330734  0.36310214  0.84669615  1
  H+  H166  1  0.85404051  0.22409651  0.16135948  1
  H+  H167  1  0.64210151  0.43442496  0.80187371  1
  H+  H168  1  0.62480082  0.89535968  -0.00567845  1
  H+  H169  1  0.39474864  0.38618735  0.84062964  1
  H+  H170  1  0.72999706  0.60375185  0.17172982  1
  H+  H171  1  0.36203928  0.25195331  0.83463442  1
  H+  H172  1  0.15014290  0.87073332  0.98090949  1
  H+  H173  1  0.13483401  0.60700763  0.32058576  1
  H+  H174  1  0.36833170  0.67170567  0.07878522  1
  H+  H175  1  0.15324592  0.36442706  0.34149588  1
  H+  H176  1  0.50652260  0.61999467  0.68368555  1
  H+  H177  1  0.11701603  0.47210201  0.33814965  1
  H+  H178  1  0.60758864  -0.02927973  0.15160392  1
  H+  H179  1  0.13468858  0.03360540  0.66368868  1
  H+  H180  1  0.01234768  0.59697805  0.48949438  1
  H+  H181  1  0.40194685  0.73900711  0.01441545  1
  H+  H182  1  0.63658261  0.69541584  0.07201816  1
  H+  H183  1  0.63851501  0.51747441  0.32695910  1
  H+  H184  1  0.11989050  0.36844710  0.50213845  1
  H+  H185  1  0.66845103  0.62541340  0.99783630  1
  H+  H186  1  0.66879968  0.12731076  0.83638303  1
  H+  H187  1  0.62571779  0.10633799  0.16703379  1
  H+  H188  1  0.87713285  0.26397145  0.99424655  1
  H+  H189  1  0.63639972  0.85937542  0.82323822  1
  H+  H190  1  0.62443770  0.85376564  0.47121164  1
  H+  H191  1  0.27604146  0.25628159  0.44854830  1
  H+  H192  1  0.62075369  0.04215578  0.53580150  1
  H+  H193  1  0.66586950  0.79779810  -0.01750272  1
  H+  H194  1  0.88722623  0.78179717  0.82397058  1
  H+  H195  1  0.89241434  0.98743367  -0.02250535  1
  H+  H196  1  0.92017673  0.23608664  0.45095705  1
  H+  H197  1  0.35887171  0.87260401  0.66646475  1
  H+  H198  1  0.87123145  0.62706767  0.15998319  1
  H+  H199  1  0.63435688  0.39595481  0.49451943  1
  H+  H200  1  0.12037863  1.00945677  0.16086558  1
  H+  H201  1  0.09533156  0.13585247  0.50370368  1
  H+  H202  1  0.61993567  0.38121128  0.34184879  1
  H+  H203  1  0.03323821  0.63271112  -0.00422067  1
  H+  H204  1  0.38277856  0.84759733  0.17666682  1
  H+  H205  1  0.34319568  0.98857912  0.69458604  1
  H+  H206  1  0.96393631  0.60240758  0.83281116  1
  H+  H207  1  0.87056635  0.48456197  0.49014363  1
  H+  H208  1  0.86230765  -0.01596961  0.16215512  1
  H+  H209  1  0.02073569  0.14048032  0.67487870  1
  H+  H210  1  0.66354761  0.58152750  0.59259938  1
  H+  H211  1  0.97506803  0.87108416  0.32951581  1
  H+  H212  1  0.90667229  0.39116178  0.51505565  1
  H+  H213  1  0.58709796  0.91394764  0.05579394  1
  H+  H214  1  0.38762266  0.76039466  0.17130178  1
  H+  H215  1  0.12786616  0.27512951  0.66122484  1
  H+  H216  1  0.60984645  0.97022854  0.32463509  1
  H+  H217  1  0.72743811  0.61319092  0.49785897  1
  H+  H218  1  0.49110558  0.13740589  0.82849727  1
  H+  H219  1  0.40227780  0.95720701  0.47741986  1
  H+  H220  1  0.62442631  0.59773461  0.31885514  1
  H+  H221  1  0.86547464  0.52296816  0.65082910  1
  H+  H222  1  0.39503536  0.48997017  0.35513418  1
  H+  H223  1  0.88649480  0.02019299  0.32436727  1
  H+  H224  1  0.47624547  0.58825969  0.50531069  1
  H+  H225  1  0.00332982  0.13024843  0.50088986  1
  H+  H226  1  0.89415050  0.52164447  0.99026708  1
  H+  H227  1  0.67730804  0.31243626  0.67034214  1
  H+  H228  1  0.36508910  0.16580073  0.82996148  1
  H+  H229  1  0.35534646  0.47951508  0.82551791  1
  H+  H230  1  0.83359574  0.38360004  0.66918950  1
  H+  H231  1  0.88661287  0.73327291  0.01346303  1
  H+  H232  1  0.13580285  0.11406899  0.01709460  1
  H+  H233  1  0.11039501  0.36970244  0.00277912  1
  H+  H234  1  0.91747087  0.58527321  0.40096278  1
  H+  H235  1  0.50654636  0.39063794  0.99487259  1
  H+  H236  1  0.26472536  0.12603985  0.16700652  1
  H+  H237  1  0.51500979  0.62643443  0.96677025  1
  H+  H238  1  0.13731007  0.51764463  0.16208425  1
  H+  H239  1  -0.03138295  0.36110315  0.16558664  1
  H+  H240  1  0.72011994  0.09625360  0.52500534  1
  H+  H241  1  0.71624108  0.10793022  0.16840023  1
  H+  H242  1  0.48634838  0.36738819  0.51174331  1
  H+  H243  1  0.02398881  0.40115159  0.69184776  1
  H+  H244  1  0.02982169  0.62932228  0.14952180  1
  H+  H245  1  0.38031077  0.13689401  0.68462522  1
  H+  H246  1  0.85806841  0.73276523  0.49533609  1
  H+  H247  1  0.90142530  0.26715307  0.84360487  1
  H+  H248  1  0.83620646  0.47870253  0.82073289  1
  H+  H249  1  0.72209463  0.61272473  0.65395644  1
  H+  H250  1  0.13071973  0.10077531  0.16804965  1
  H+  H251  1  0.62527283  0.84969992  0.31752811  1
  H+  H252  1  0.60650306  0.49155304  0.66232449  1
  H+  H253  1  0.58027641  0.59767078  0.68480533  1
  H+  H254  1  0.49342391  0.59947193  -0.00562540  1
  H+  H255  1  0.82998645  0.67753565  0.43302037  1
  H+  H256  1  0.36456449  0.97771683  0.33480039  1
  H+  H257  1  0.40274055  0.38659175  0.99587483  1
  H+  H258  1  0.38675222  0.29823772  0.50617940  1
  H+  H259  1  0.61851871  0.17092346  0.68054300  1
  H+  H260  1  0.85661749  0.86964633  0.18062726  1
  H+  H261  1  0.16276329  0.85700184  0.12291558  1
  H+  H262  1  0.85875230  0.38183539  0.15916732  1
  H+  H263  1  0.09077342  0.36962385  0.14351783  1
  H+  H264  1  0.17500292  0.37634240  0.20698615  1
  H+  H265  1  0.12034059  0.22842457  0.35247787  1
  H+  H266  1  -0.03095004  0.85992275  0.06822847  1
  H+  H267  1  0.10396538  0.38605598  0.68438520  1
  H+  H268  1  0.87031076  0.71537524  0.15950680  1
  H+  H269  1  0.83762696  0.41561288  0.06421680  1
  H+  H270  1  0.86320233  0.88997340  0.49540836  1
  H+  H271  1  0.97775746  0.10883241  0.32656984  1
  H+  H272  1  0.56998421  0.88281504  0.64054169  1
  H+  H273  1  0.10705015  0.13805485  0.82762019  1
  H+  H274  1  0.11673201  0.77117878  0.69202021  1
  H+  H275  1  0.39062770  0.84610572  0.98197864  1
  H+  H276  1  0.28612430  0.82599339  0.50017348  1
  H+  H277  1  0.37125642  0.62638408  0.16760543  1
  H+  H278  1  0.37031815  0.70613317  0.47472151  1
  H+  H279  1  0.10729618  0.90118931  0.82565872  1
  H+  H280  1  0.39566893  0.06738643  0.81091267  1
  H+  H281  1  0.97466088  0.86656539  0.16939163  1
  H+  H282  1  0.88556371  0.86830872  0.81301712  1
  H+  H283  1  0.08906583  0.66095814  0.08920094  1
  H+  H284  1  0.41091517  0.07476075  0.52433849  1
  H+  H285  1  0.76933932  0.64088533  0.33818676  1
  H+  H286  1  0.12473699  0.63730593  0.99575069  1
  H+  H287  1  0.07568453  0.16199062  0.40773684  1
  H+  H288  1  0.57437429  0.43982996  0.72929298  1
  H+  H289  1  0.31252247  0.19751859  0.42706528  1
  H+  H290  1  0.12964925  0.51419856  0.83619326  1
  H+  H291  1  0.65605280  0.07650491  0.25767749  1
  H+  H292  1  0.40362907  0.10261836  0.62746468  1
  H+  H293  1  0.84587284  0.66152882  0.06357895  1
  H+  H294  1  0.32525221  0.19134449  0.74236784  1
  H+  H295  1  0.82437952  0.91877061  0.39817873  1
  H+  H296  1  0.67086423  0.59225525  0.89921920  1
  H+  H297  1  0.72970854  0.75196569  0.04530044  1
  H+  H298  1  0.07110232  0.93603587  0.73675122  1
  H+  H299  1  0.91145023  0.83993108  0.56994765  1
  H+  H300  1  0.89976644  0.15210362  0.82375209  1
  H+  H301  1  0.37547825  0.38375918  0.16784392  1
  H+  H302  1  0.67900363  0.84149202  0.88171235  1
  H+  H303  1  0.83754189  0.40854704  0.39892334  1
  H+  H304  1  0.89251797  0.35997998  0.32506007  1
  H+  H305  1  0.90565946  0.83946999  0.27441836  1
  H+  H306  1  0.56817717  0.88229958  0.75431534  1
  H+  H307  1  0.42419109  0.33835722  0.27572269  1
  H+  H308  1  0.08094762  0.76824045  0.57403611  1
  H+  H309  1  0.61994270  0.72840123  0.16055468  1
  H+  H310  1  0.07806822  0.17190862  0.73490045  1
  H+  H311  1  0.41547941  0.09241605  0.27613454  1
  H+  H312  1  0.91824047  0.33443835  0.22952948  1
  H+  H313  1  0.56012945  0.64115037  0.77673064  1
  H+  H314  1  0.66786249  0.33204103  0.22991587  1
  H+  H315  1  0.16793903  0.57326763  0.92306193  1
  H+  H316  1  0.66974072  0.57650130  0.23094897  1
  H+  H317  1  0.86441772  0.47132928  0.34399285  1
  H+  H318  1  0.09044785  0.41449239  0.43278831  1
  H+  H319  1  0.92846893  0.36838953  0.61656272  1
  H+  H320  1  0.41434707  0.79995511  0.89112651  1
  H+  H321  1  0.15335759  0.26059552  0.99802917  1
  H+  H322  1  0.13460662  0.12234241  0.66434325  1
  H+  H323  1  0.34340471  0.92548132  0.12826753  1
  H+  H324  1  0.32809349  0.65379937  0.40485690  1
  H+  H325  1  0.38284603  0.02676720  0.19134013  1
  H+  H326  1  0.11420275  0.37888756  0.83892111  1
  H+  H327  1  0.26795341  0.87870010  0.17409197  1
  H+  H328  1  0.32780128  0.41763003  0.76713544  1
  H+  H329  1  0.57483594  0.16363256  0.06585498  1
  H+  H330  1  0.92832103  0.57292686  0.22565543  1
  H+  H331  1  0.74569152  0.61071698  0.98858450  1
  H+  H332  1  0.69235498  0.35604370  0.56730883  1
  H+  H333  1  0.00346185  0.88098884  0.00322726  1
  H+  H334  1  0.89988546  0.07799806  0.57541016  1
  H+  H335  1  0.91021850  0.58614744  0.55994047  1
  H+  H336  1  0.69176107  0.10014734  0.89824492  1
  H+  H337  1  0.08289464  0.93015124  0.39976792  1
  H+  H338  1  0.19310438  0.33229305  0.29006318  1
  H+  H339  1  0.65994100  0.80159062  0.54674177  1
  H+  H340  1  0.34924892  0.47971269  0.67163759  1
  H+  H341  1  0.14793896  0.82275248  0.88584076  1
  H+  H342  1  0.67549690  0.74518121  0.64724116  1
  H+  H343  1  0.41832292  0.34422706  0.60140572  1
  H+  H344  1  0.88008455  0.86917332  0.66701780  1
  H+  H345  1  0.30902679  0.65112057  0.74493137  1
  H+  H346  1  0.78622358  0.39367306  0.49388100  1
  H+  H347  1  0.65911755  0.82843276  0.22846470  1
  H+  H348  1  0.59671101  0.18397516  0.77126490  1
  H+  H349  1  0.34389774  0.41586555  0.10975277  1
  H+  H350  1  0.98880688  0.11302194  0.87569054  1
  H+  H351  1  0.43013558  0.09589496  0.91944229  1
  H+  H352  1  0.35565655  0.90408147  0.41705304  1
  H+  H353  1  0.42762719  0.63277993  0.60439840  1
  H+  H354  1  0.82254841  0.16353903  0.10263739  1
  H+  H355  1  0.46203531  0.03930148  0.55990449  1
  H+  H356  1  0.57941343  0.41342002  0.10176727  1
  H+  H357  1  0.01640413  0.89827253  0.82459248  1
  H+  H358  1  0.14815357  0.33048821  0.57116252  1
  H+  H359  1  0.07391811  0.40974037  0.08594658  1
  H+  H360  1  0.50416056  0.39765442  0.66878571  1
  H+  H361  1  0.82867201  0.15324256  0.38155384  1
  H+  H362  1  0.79345632  0.41801304  0.76170938  1
  H+  H363  1  0.06730494  0.65282529  0.72693824  1
  H+  H364  1  0.92211923  0.32747617  0.90696963  1
  H+  H365  1  0.90989534  0.57841464  0.89405276  1
  H+  H366  1  0.15902817  0.83764822  0.27039102  1
  H+  H367  1  0.66691625  0.33299976  0.94451448  1
  H+  H368  1  0.16134690  0.57400618  0.26051854  1
  H+  H369  1  0.33151848  0.91131731  0.77963480  1
  H+  H370  1  0.33184145  0.16395089  0.11243282  1
  H+  H371  1  0.10945321  0.81642681  0.57399908  1
  H+  H372  1  0.43467967  0.36259343  0.93097269  1
  H+  H373  1  0.85882841  0.63813114  0.82225042  1
  H+  H374  1  0.92106770  0.08901094  0.22842248  1
  H+  H375  1  0.46677353  0.59843773  0.27620419  1
  H+  H376  1  0.59822250  0.41732773  0.42715950  1
  H+  H377  1  0.33592521  0.92040901  0.02787381  1
  H+  H378  1  0.58535344  0.90574918  0.38148381  1
  H+  H379  1  0.82390829  0.66546280  0.72861636  1
  H+  H380  1  0.67730271  0.11062452  0.62251129  1
  H+  H381  1  0.60726821  0.22213205  0.16030478  1
  H+  H382  1  0.21601366  0.13077653  0.84010727  1
  H+  H383  1  0.21489749  0.36579689  0.65748507  1
  O2-  O384  1  0.08835312  0.16924996  0.14473839  1
  O2-  O385  1  0.06360408  0.16343019  0.48540856  1
  O2-  O386  1  0.07603339  0.17378669  0.81194324  1
  O2-  O387  1  0.07188950  0.40999299  0.13222232  1
  O2-  O388  1  0.09493048  0.41571303  0.47838873  1
  O2-  O389  1  0.07931523  0.40510513  0.82440164  1
  O2-  O390  1  0.09033892  0.66298541  0.13497512  1
  O2-  O391  1  0.06009907  0.58882688  0.47501687  1
  O2-  O392  1  0.06692106  0.64790475  0.80746241  1
  O2-  O393  1  0.02535949  0.88679379  0.14282835  1
  O2-  O394  1  0.07560541  0.93615029  0.47909558  1
  O2-  O395  1  0.07976305  0.93407269  0.81250581  1
  O2-  O396  1  0.32815392  0.16191679  0.15811985  1
  O2-  O397  1  0.29591879  0.21837493  0.46414863  1
  O2-  O398  1  0.32999254  0.19230461  0.81857523  1
  O2-  O399  1  0.34595605  0.41641087  0.15482857  1
  O2-  O400  1  0.35187022  0.52112598  0.49076226  1
  O2-  O401  1  0.33079125  0.41769033  0.81242184  1
  O2-  O402  1  0.34157222  0.65457454  0.14706540  1
  O2-  O403  1  0.32636158  0.64780905  0.45452724  1
  O2-  O404  1  0.31283620  0.64576981  0.79055375  1
  O2-  O405  1  0.33216371  0.91065076  0.17120138  1
  O2-  O406  1  0.37159585  0.89903026  0.46007473  1
  O2-  O407  1  0.32685047  0.89123394  0.82332031  1
  O2-  O408  1  0.57450918  0.16151349  0.14550456  1
  O2-  O409  1  0.61060396  0.19217037  0.47731419  1
  O2-  O410  1  0.59091386  0.16854636  0.81529208  1
  O2-  O411  1  0.58027703  0.41093928  0.14663192  1
  O2-  O412  1  0.60222929  0.42410959  0.47523411  1
  O2-  O413  1  0.59487532  0.44670092  0.80193506  1
  O2-  O414  1  0.59334519  0.66878709  0.14276496  1
  O2-  O415  1  0.57526819  0.63927137  0.46270870  1
  O2-  O416  1  0.56922320  0.65924209  0.82086643  1
  O2-  O417  1  0.58114796  0.91074525  0.13532080  1
  O2-  O418  1  0.59558124  0.88646152  0.45682863  1
  O2-  O419  1  0.57635969  0.89388550  0.79849424  1
  O2-  O420  1  0.82395902  0.16272364  0.14795841  1
  O2-  O421  1  0.86258858  0.19911530  0.46769805  1
  O2-  O422  1  0.86452691  0.17919755  0.81477069  1
  O2-  O423  1  0.83183708  0.41525745  0.14318213  1
  O2-  O424  1  0.84626645  0.42261472  0.47789342  1
  O2-  O425  1  0.79178199  0.42014311  0.80647626  1
  O2-  O426  1  0.83954128  0.65595677  0.14445082  1
  O2-  O427  1  0.82887498  0.67299944  0.47859668  1
  O2-  O428  1  0.83082933  0.66952612  0.80473053  1
  O2-  O429  1  0.83107919  0.92184563  0.15093903  1
  O2-  O430  1  0.82846589  0.91528097  0.47876133  1
  O2-  O431  1  0.82848319  0.92471941  0.78431117  1
  O2-  O432  1  0.15744763  0.06607889  0.17925071  1
  O2-  O433  1  0.15588943  0.09468462  0.52675848  1
  O2-  O434  1  0.15384891  0.10016061  0.84963251  1
  O2-  O435  1  0.19180870  0.33254171  0.20756173  1
  O2-  O436  1  0.14539570  0.32658646  0.52462886  1
  O2-  O437  1  0.16887340  0.33112707  0.86300274  1
  O2-  O438  1  0.17166875  0.57687908  0.17846457  1
  O2-  O439  1  0.16368501  0.63441251  0.56400405  1
  O2-  O440  1  0.15960866  0.57651641  0.84686712  1
  O2-  O441  1  0.15621993  0.82969906  0.16253442  1
  O2-  O442  1  0.23198871  0.78085781  0.51950181  1
  O2-  O443  1  0.15243614  0.82348508  0.84039848  1
  O2-  O444  1  0.41454134  0.08892108  0.20016735  1
  O2-  O445  1  0.45701095  0.06064130  0.52007066  1
  O2-  O446  1  0.42790956  0.11583254  0.83813033  1
  O2-  O447  1  0.41804113  0.32755132  0.19747413  1
  O2-  O448  1  0.42995304  0.34747850  0.53027291  1
  O2-  O449  1  0.42881064  0.36035902  0.85887603  1
  O2-  O450  1  0.43383289  0.58622807  0.19547536  1
  O2-  O451  1  0.42588987  0.55326703  0.53212666  1
  O2-  O452  1  0.39496270  0.57926304  0.85137858  1
  O2-  O453  1  0.41928049  0.82170827  0.18473113  1
  O2-  O454  1  0.42955198  0.79321312  0.49960920  1
  O2-  O455  1  0.41016555  0.80084766  0.84621964  1
  O2-  O456  1  0.65473230  0.07427649  0.18155466  1
  O2-  O457  1  0.67105236  0.09935554  0.54111050  1
  O2-  O458  1  0.70781748  0.10994478  0.85471350  1
  O2-  O459  1  0.66751577  0.33036696  0.18452542  1
  O2-  O460  1  0.68356677  0.35295226  0.52223114  1
  O2-  O461  1  0.66011934  0.32383566  0.86891731  1
  O2-  O462  1  0.66932608  0.57769606  0.18541518  1
  O2-  O463  1  0.66511582  0.57456809  0.51015475  1
  O2-  O464  1  0.66678870  0.59506019  0.85408680  1
  O2-  O465  1  0.66282843  0.83087760  0.18309030  1
  O2-  O466  1  0.66911692  0.80426171  0.50281872  1
  O2-  O467  1  0.67384167  0.83421998  0.83664362  1
  O2-  O468  1  0.92127804  0.09099006  0.18316445  1
  O2-  O469  1  0.89851328  0.07611564  0.52954368  1
  O2-  O470  1  0.98483869  0.12348262  0.83127992  1
  O2-  O471  1  0.91035577  0.33122794  0.18428157  1
  O2-  O472  1  0.94351438  0.37117459  0.53637043  1
  O2-  O473  1  0.92964588  0.32904367  0.86080387  1
  O2-  O474  1  0.92411823  0.57415219  0.18144349  1
  O2-  O475  1  0.91257723  0.58643552  0.51400707  1
  O2-  O476  1  0.90399305  0.57856908  0.84893632  1
  O2-  O477  1  0.86975579  0.82251145  0.20204839  1
  O2-  O478  1  0.91055558  0.83817631  0.52440651  1
  O2-  O479  1  0.91592370  0.84358337  0.83491895  1
  O2-  O480  1  0.16988632  0.09282057  0.32418681  1
  O2-  O481  1  0.16741711  0.09449052  0.64870853  1
  O2-  O482  1  0.17050625  0.03456017  0.99324794  1
  O2-  O483  1  0.18634180  0.33390220  0.33486002  1
  O2-  O484  1  0.15386474  0.33444438  0.64359364  1
  O2-  O485  1  0.17568032  0.32154820  0.98577863  1
  O2-  O486  1  0.16172460  0.57332333  0.30577883  1
  O2-  O487  1  0.21030076  0.58830546  0.57616739  1
  O2-  O488  1  0.17706451  0.57102406  0.96809663  1
  O2-  O489  1  0.16403273  0.84100891  0.31471866  1
  O2-  O490  1  0.14577610  0.83454606  0.70614929  1
  O2-  O491  1  0.16756606  0.83075835  0.96282527  1
  O2-  O492  1  0.41412291  0.08899364  0.32198569  1
  O2-  O493  1  0.41131905  0.10513653  0.67150069  1
  O2-  O494  1  0.43427654  0.08351939  0.96256700  1
  O2-  O495  1  0.42695010  0.33685531  0.32135638  1
  O2-  O496  1  0.41572633  0.34823566  0.64767407  1
  O2-  O497  1  0.43771213  0.36133060  0.97761468  1
  O2-  O498  1  0.46954724  0.59914895  0.32181014  1
  O2-  O499  1  0.46765536  0.67015711  0.63579389  1
  O2-  O500  1  0.32519587  0.55749867  0.96481017  1
  O2-  O501  1  0.41025778  0.82919298  0.30705464  1
  O2-  O502  1  0.38380284  0.84304603  0.64336915  1
  O2-  O503  1  0.42425082  0.81640077  0.97498476  1
  O2-  O504  1  0.65880625  0.07684538  0.30357322  1
  O2-  O505  1  0.67998088  0.12097940  0.66697142  1
  O2-  O506  1  0.66360929  0.08724547  0.97864467  1
  O2-  O507  1  0.66931163  0.33330434  0.31058334  1
  O2-  O508  1  0.71660490  0.36085497  0.64331997  1
  O2-  O509  1  0.66487047  0.33716662  0.98994651  1
  O2-  O510  1  0.66477482  0.57631787  0.30945820  1
  O2-  O511  1  0.66129843  0.58033874  0.63778052  1
  O2-  O512  1  0.68319873  0.58395478  0.97844010  1
  O2-  O513  1  0.65290362  0.81453147  0.30727968  1
  O2-  O514  1  0.66940151  0.78854811  0.66935229  1
  O2-  O515  1  0.68480337  0.85388466  0.96291327  1
  O2-  O516  1  0.91943382  0.08064335  0.30833910  1
  O2-  O517  1  0.91173382  0.08670349  0.65203164  1
  O2-  O518  1  0.97542024  0.10018706  0.95339866  1
  O2-  O519  1  0.92425991  0.33208952  0.30825307  1
  O2-  O520  1  0.91281476  0.35973015  0.66038120  1
  O2-  O521  1  0.91238681  0.32416712  0.97882435  1
  O2-  O522  1  0.91620854  0.58701077  0.35650854  1
  O2-  O523  1  0.90096540  0.58262922  0.63581068  1
  O2-  O524  1  0.92707750  0.58130339  0.97373580  1
  O2-  O525  1  0.91275238  0.83878647  0.31969955  1
  O2-  O526  1  0.90985864  0.84134751  0.64950557  1
  O2-  O527  1  0.94881328  0.84769694  1.02544274  1
  O2-  O528  1  0.11244700  0.15316387  0.02380366  1
  O2-  O529  1  0.08590179  0.16521576  0.36266302  1
  O2-  O530  1  0.08142663  0.17215597  0.68913176  1
  O2-  O531  1  0.08124648  0.40299749  0.01292828  1
  O2-  O532  1  0.08994813  0.41267683  0.35578911  1
  O2-  O533  1  0.07999194  0.41491875  0.70949280  1
  O2-  O534  1  0.09402668  0.66654089  0.01117443  1
  O2-  O535  1  0.09317959  0.66530287  0.35537626  1
  O2-  O536  1  0.07306323  0.67212485  0.68396446  1
  O2-  O537  1  0.13080757  0.95346348  0.00984863  1
  O2-  O538  1  0.08641430  0.93116972  0.35431610  1
  O2-  O539  1  0.07081471  0.93021582  0.69097763  1
  O2-  O540  1  0.33498566  0.16117733  0.03676883  1
  O2-  O541  1  0.32955253  0.17168623  0.35479811  1
  O2-  O542  1  0.32865703  0.18807714  0.69677298  1
  O2-  O543  1  0.33863574  0.41767611  0.02397697  1
  O2-  O544  1  0.36314330  0.43316425  0.37541775  1
  O2-  O545  1  0.32166030  0.42016112  0.68553388  1
  O2-  O546  1  0.39538370  0.68465978  0.03612985  1
  O2-  O547  1  0.32807084  0.66209848  0.34353077  1
  O2-  O548  1  0.30883730  0.66984334  0.67052316  1
  O2-  O549  1  0.33496817  0.90195122  -0.01387583  1
  O2-  O550  1  0.33185497  0.91484011  0.34423488  1
  O2-  O551  1  0.31713769  0.92844449  0.70879360  1
  O2-  O552  1  0.58346291  0.17040290  0.02085695  1
  O2-  O553  1  0.58759758  0.16766599  0.35037338  1
  O2-  O554  1  0.59306705  0.20571161  0.69490543  1
  O2-  O555  1  0.58434882  0.42114419  0.01618468  1
  O2-  O556  1  0.59131481  0.41207144  0.36066471  1
  O2-  O557  1  0.56913605  0.43191849  0.68343229  1
  O2-  O558  1  0.67047679  0.71292443  0.03288167  1
  O2-  O559  1  0.56197420  0.64301195  0.33794762  1
  O2-  O560  1  0.53185777  0.59202425  0.70897266  1
  O2-  O561  1  0.58717166  0.91755508  0.01034426  1
  O2-  O562  1  0.57919462  0.90804148  0.33673082  1
  O2-  O563  1  0.55704402  0.84857749  0.67729902  1
  O2-  O564  1  0.81690937  0.16009366  0.02302497  1
  O2-  O565  1  0.83137597  0.15848501  0.33712449  1
  O2-  O566  1  0.85400156  0.19131484  0.69316481  1
  O2-  O567  1  0.83794340  0.41438007  0.01870575  1
  O2-  O568  1  0.83612467  0.40902660  0.35339619  1
  O2-  O569  1  0.79685102  0.41090183  0.67816404  1
  O2-  O570  1  0.85112322  0.66963520  0.01868373  1
  O2-  O571  1  0.82853232  0.67202317  0.35574744  1
  O2-  O572  1  0.82165903  0.66670438  0.68273159  1
  O2-  O573  1  0.84988221  0.93140190  -0.00538336  1
  O2-  O574  1  0.82359855  0.91733750  0.35290230  1
  O2-  O575  1  0.80781900  0.93047766  0.71964386  1
