# generated using pymatgen
data_H2O
_symmetry_space_group_name_H-M   'P 1'
_cell_length_a   17.98634128
_cell_length_b   17.98321828
_cell_length_c   21.98239709
_cell_angle_alpha   89.97435636
_cell_angle_beta   89.98881902
_cell_angle_gamma   120.00990625
_symmetry_Int_Tables_number   1
_chemical_formula_structural   H2O
_chemical_formula_sum   'H384 O192'
_cell_volume   6157.04702399
_cell_formula_units_Z   192
loop_
 _symmetry_equiv_pos_site_id
 _symmetry_equiv_pos_as_xyz
  1  'x, y, z'
loop_
 _atom_type_symbol
 _atom_type_oxidation_number
  H+  1.0
  O2-  -2.0
loop_
 _atom_site_type_symbol
 _atom_site_label
 _atom_site_symmetry_multiplicity
 _atom_site_fract_x
 _atom_site_fract_y
 _atom_site_fract_z
 _atom_site_occupancy
  H+  H0  1  0.17925605  0.59400428  0.92731271  1
  H+  H1  1  0.86398645  0.63290276  0.35619272  1
  H+  H2  1  0.65251583  0.52249620  0.51053551  1
  H+  H3  1  0.88534066  0.50724264  0.64982902  1
  H+  H4  1  0.86989116  0.66007757  0.44875647  1
  H+  H5  1  0.13616990  0.35714116  0.97982320  1
  H+  H6  1  0.11867233  0.11950066  0.67659210  1
  H+  H7  1  0.64828629  0.56842241  0.93817519  1
  H+  H8  1  0.40207708  0.53032276  0.83969790  1
  H+  H9  1  0.36758300  0.37570224  0.49288521  1
  H+  H10  1  0.58055675  0.65441864  0.09075165  1
  H+  H11  1  0.62564252  0.61597774  0.99648837  1
  H+  H12  1  0.13106914  0.51414976  0.35710386  1
  H+  H13  1  0.06047518  0.87702439  0.73996399  1
  H+  H14  1  0.23208454  0.88151198  0.31553580  1
  H+  H15  1  0.13452870  0.10976034  0.32182490  1
  H+  H16  1  0.98196834  0.60020922  0.67071388  1
  H+  H17  1  0.98525548  0.36473388  0.99182507  1
  H+  H18  1  0.09436072  0.21476759  -0.00126387  1
  H+  H19  1  0.64903278  0.88952952  -0.00806287  1
  H+  H20  1  0.37968953  0.77010736  0.49577530  1
  H+  H21  1  0.11728635  0.22168044  0.15471009  1
  H+  H22  1  0.03737871  0.90359335  0.81908520  1
  H+  H23  1  0.74221700  0.88753910  0.16371052  1
  H+  H24  1  0.00218176  0.78085264  0.71018921  1
  H+  H25  1  0.63355163  0.02800644  0.17687309  1
  H+  H26  1  0.02852114  0.38946523  0.67283164  1
  H+  H27  1  0.65035249  0.87847895  0.64871000  1
  H+  H28  1  0.38292535  0.28327339  0.32627836  1
  H+  H29  1  0.53450039  0.18150253  0.09543568  1
  H+  H30  1  0.37956609  0.22611460  0.83481490  1
  H+  H31  1  0.87000003  0.36110531  0.15057547  1
  H+  H32  1  0.57708373  0.24107240  0.98972840  1
  H+  H33  1  0.10266267  0.21020117  0.82622447  1
  H+  H34  1  0.90536229  0.58625067  1.02052942  1
  H+  H35  1  0.12112060  0.89268867  0.81613274  1
  H+  H36  1  0.12518587  0.48472550  0.99339267  1
  H+  H37  1  0.04026541  0.36404318  0.33621767  1
  H+  H38  1  0.88603940  0.53568004  0.84989655  1
  H+  H39  1  0.76513889  0.63275566  0.15182912  1
  H+  H40  1  0.89550861  0.61821238  0.11609783  1
  H+  H41  1  0.89228976  0.88494175  0.31408173  1
  H+  H42  1  0.37191306  0.09130106  0.19577904  1
  H+  H43  1  0.86106790  0.97795408  0.81527160  1
  H+  H44  1  0.39165494  0.79165539  -0.01147544  1
  H+  H45  1  0.89085658  0.87699821  0.65097289  1
  H+  H46  1  0.36779151  1.00333107  0.34163538  1
  H+  H47  1  0.97293434  0.85197544  0.66000309  1
  H+  H48  1  0.35662047  0.48317484  0.15955691  1
  H+  H49  1  0.34127912  0.92196450  0.09295477  1
  H+  H50  1  0.52827272  0.14340222  0.66930886  1
  H+  H51  1  0.39556877  0.75519106  0.65429707  1
  H+  H52  1  0.72631830  0.12210140  0.34422574  1
  H+  H53  1  0.27576832  0.63620104  0.67628741  1
  H+  H54  1  -0.00484420  0.87253492  0.50513568  1
  H+  H55  1  0.48577796  0.61913506  0.85626009  1
  H+  H56  1  0.01151525  0.32337662  0.48645729  1
  H+  H57  1  0.11976651  0.39686771  0.68532998  1
  H+  H58  1  0.90614297  0.39758023  0.51047172  1
  H+  H59  1  1.02921390  0.64613978  0.83170203  1
  H+  H60  1  0.87319413  0.78789495  -0.01930444  1
  H+  H61  1  0.87543434  0.99080368  0.14930739  1
  H+  H62  1  0.26739977  0.37507434  0.67797480  1
  H+  H63  1  0.37025080  0.22619522  0.68008245  1
  H+  H64  1  0.91243211  0.62807250  0.52071464  1
  H+  H65  1  0.47272937  0.12292961  0.38425322  1
  H+  H66  1  0.13311011  0.01882644  0.32135425  1
  H+  H67  1  0.50974849  0.38712862  0.01700268  1
  H+  H68  1  0.58867708  0.33684947  -0.01113793  1
  H+  H69  1  0.94792519  0.23030535  0.29269302  1
  H+  H70  1  0.63366116  1.01601118  0.82180600  1
  H+  H71  1  0.35527090  0.47715721  0.00461502  1
  H+  H72  1  0.36317168  0.46330037  0.49599145  1
  H+  H73  1  0.10907326  0.88371549  0.33184879  1
  H+  H74  1  0.72305384  0.10506515  0.81447593  1
  H+  H75  1  0.27992717  0.89150561  0.15247240  1
  H+  H76  1  0.10861087  0.12908318  0.15318436  1
  H+  H77  1  0.13000576  0.66276824  0.13156878  1
  H+  H78  1  0.37856289  0.15822184  0.03899317  1
  H+  H79  1  0.52586979  0.87991271  0.81780616  1
  H+  H80  1  0.89000072  -0.00937449  0.49589580  1
  H+  H81  1  0.61021765  0.21703570  0.37621959  1
  H+  H82  1  0.38583450  0.34159645  0.84542922  1
  H+  H83  1  0.15353233  0.10608863  0.50271883  1
  H+  H84  1  0.53796852  0.89568966  0.66506800  1
  H+  H85  1  0.84915653  0.21735257  0.82220786  1
  H+  H86  1  0.51589062  0.38399859  0.34799972  1
  H+  H87  1  0.69512205  0.13625415  0.89917882  1
  H+  H88  1  0.85150811  0.72820336  0.14875340  1
  H+  H89  1  0.26944783  0.12973570  0.17372132  1
  H+  H90  1  0.37820238  0.87938168  0.31392535  1
  H+  H91  1  0.59453852  0.46284081  0.84154436  1
  H+  H92  1  0.16231233  0.68044882  0.23581422  1
  H+  H93  1  0.09743511  0.41667733  0.04813819  1
  H+  H94  1  0.13982414  0.87156619  0.50102506  1
  H+  H95  1  0.39008227  0.13003898  0.36105927  1
  H+  H96  1  0.50834044  0.10565152  0.52732068  1
  H+  H97  1  0.36034088  0.88868165  0.48891157  1
  H+  H98  1  0.90803054  0.29063350  0.29520065  1
  H+  H99  1  0.46822304  0.59692802  0.50979476  1
  H+  H100  1  0.38299029  0.62569559  0.33055224  1
  H+  H101  1  0.08480951  0.28938893  0.63688893  1
  H+  H102  1  0.62762417  0.62629983  0.51524442  1
  H+  H103  1  0.10822240  -0.01863953  0.99243558  1
  H+  H104  1  0.36713648  0.48984065  0.34374426  1
  H+  H105  1  0.37987933  0.51322928  0.65936151  1
  H+  H106  1  0.10406275  0.43911743  0.14951393  1
  H+  H107  1  0.90903704  0.79916458  0.83178045  1
  H+  H108  1  0.13113304  0.01912164  0.16673528  1
  H+  H109  1  0.03699080  0.13035508  0.49202423  1
  H+  H110  1  0.47278188  0.63027460  0.33961635  1
  H+  H111  1  0.14059264  0.52705766  0.65791202  1
  H+  H112  1  0.10787354  0.10567308  0.97623245  1
  H+  H113  1  0.62949317  0.37045087  0.65328510  1
  H+  H114  1  0.50944276  0.89898242  0.49029839  1
  H+  H115  1  0.89111182  0.06473585  0.32140533  1
  H+  H116  1  0.53213383  0.89650653  0.15838059  1
  H+  H117  1  0.15158432  0.63115197  0.98248414  1
  H+  H118  1  -0.10948998  0.88406687  -0.02200004  1
  H+  H119  1  0.66946698  0.77698330  0.50225908  1
  H+  H120  1  0.12673659  0.24126680  0.66709633  1
  H+  H121  1  0.14044316  0.61685288  0.83582240  1
  H+  H122  1  0.91850541  0.49419216  0.51891302  1
  H+  H123  1  0.23451165  0.86717808  0.82855904  1
  H+  H124  1  0.11636381  0.73840241  0.34497452  1
  H+  H125  1  0.60843774  0.65048645  0.35907809  1
  H+  H126  1  0.90813024  0.87861165  0.50433692  1
  H+  H127  1  0.83998541  0.91773184  0.72397237  1
  H+  H128  1  0.02402897  0.35129224  0.13182486  1
  H+  H129  1  0.56699988  0.55066364  0.29031111  1
  H+  H130  1  0.87016199  0.22082711  1.00597800  1
  H+  H131  1  0.35859776  0.62706815  0.48945150  1
  H+  H132  1  0.17545559  0.33163223  0.26174980  1
  H+  H133  1  0.99059181  0.63518480  0.10971215  1
  H+  H134  1  0.84089599  0.16968424  0.75775689  1
  H+  H135  1  0.36497362  0.21430984  0.18065062  1
  H+  H136  1  0.64338568  0.78678858  0.64525601  1
  H+  H137  1  0.61603975  0.62546052  0.86628674  1
  H+  H138  1  0.22037881  0.35169371  0.98727252  1
  H+  H139  1  0.93172654  0.85971850  0.88922474  1
  H+  H140  1  0.62445257  0.90307422  0.15663453  1
  H+  H141  1  0.88610850  0.25856708  0.50535725  1
  H+  H142  1  0.10892258  0.32590482  0.48731270  1
  H+  H143  1  0.63096655  0.59548182  0.15927396  1
  H+  H144  1  0.87187731  0.89539285  0.81500500  1
  H+  H145  1  0.69959438  0.57083281  0.86433350  1
  H+  H146  1  0.13028209  0.74976287  0.49779858  1
  H+  H147  1  0.47534824  0.34626800  0.84881274  1
  H+  H148  1  0.80484504  0.89800614  0.48883215  1
  H+  H149  1  0.60091328  0.47543800  0.01537794  1
  H+  H150  1  0.13214421  0.47902940  0.51532897  1
  H+  H151  1  0.23247493  0.10778389  0.66286571  1
  H+  H152  1  0.26352662  0.13714883  0.32653363  1
  H+  H153  1  0.80637833  0.49843559  0.41674198  1
  H+  H154  1  0.45860326  0.86681487  0.32766829  1
  H+  H155  1  0.89628734  0.27182149  0.65625796  1
  H+  H156  1  0.38131967  0.27509269  1.01624328  1
  H+  H157  1  0.73468443  0.86718907  0.83165733  1
  H+  H158  1  0.41818332  0.84322901  0.23110632  1
  H+  H159  1  0.08889721  0.08613087  0.87244986  1
  H+  H160  1  0.82755527  0.44791768  1.00718463  1
  H+  H161  1  0.39180166  0.37667005  0.32821570  1
  H+  H162  1  0.61265317  0.23607387  0.65951002  1
  H+  H163  1  0.24752541  0.89657328  0.98451017  1
  H+  H164  1  -0.01330261  0.11140192  0.66244868  1
  H+  H165  1  0.84844041  0.94056678  0.08622627  1
  H+  H166  1  0.92993622  0.84738670  0.58436210  1
  H+  H167  1  0.88154665  0.73314777  0.49775832  1
  H+  H168  1  0.95098642  0.63424142  0.37435224  1
  H+  H169  1  0.08316173  0.66535367  0.73775116  1
  H+  H170  1  0.81242185  0.67116383  0.06664750  1
  H+  H171  1  0.60973755  0.01592147  0.32514175  1
  H+  H172  1  0.29865233  0.66478529  0.15691957  1
  H+  H173  1  0.61525992  0.13329448  0.80935742  1
  H+  H174  1  0.51427182  0.63350541  0.66317708  1
  H+  H175  1  0.59704347  0.89299441  0.35199452  1
  H+  H176  1  0.39412432  0.87234858  0.16786135  1
  H+  H177  1  0.68017776  0.86843962  0.42071020  1
  H+  H178  1  0.38609532  0.75290274  0.15891865  1
  H+  H179  1  0.80014855  0.21714233  0.35773295  1
  H+  H180  1  0.65788761  0.09809069  0.56702391  1
  H+  H181  1  1.00765988  0.63846597  0.51928590  1
  H+  H182  1  0.89243448  0.11569896  0.50601860  1
  H+  H183  1  0.37354216  0.13772948  0.68021964  1
  H+  H184  1  0.58625100  0.66898132  0.55470264  1
  H+  H185  1  0.88546618  0.86872410  0.15477183  1
  H+  H186  1  0.17033588  0.55546254  0.20107960  1
  H+  H187  1  0.79243741  0.91886367  0.35221845  1
  H+  H188  1  0.12912213  0.21307991  0.49467363  1
  H+  H189  1  0.34721355  0.73412880  0.33990648  1
  H+  H190  1  0.92949160  0.09402631  0.56565634  1
  H+  H191  1  0.36392382  0.99178026  0.27132113  1
  H+  H192  1  0.82779297  0.34392091  0.29059618  1
  H+  H193  1  0.12694596  0.22494501  0.33659516  1
  H+  H194  1  0.85567305  0.37784226  1.01223840  1
  H+  H195  1  0.01920977  0.88311605  0.14920824  1
  H+  H196  1  0.89509188  0.02749595  0.65611190  1
  H+  H197  1  0.41194638  0.02595401  0.51799244  1
  H+  H198  1  0.35630641  0.37576253  0.66965370  1
  H+  H199  1  0.43590130  0.07601057  0.88378398  1
  H+  H200  1  0.23986794  0.36727946  0.32019993  1
  H+  H201  1  0.85128863  0.72965997  0.67118023  1
  H+  H202  1  0.13405912  0.52453325  0.83912616  1
  H+  H203  1  0.52539361  0.62472993  0.15182632  1
  H+  H204  1  0.48049526  0.35720595  0.51042494  1
  H+  H205  1  0.87137991  0.13953639  0.66408391  1
  H+  H206  1  0.12275251  -0.02292252  0.48567980  1
  H+  H207  1  0.78182685  0.89145216  0.66249912  1
  H+  H208  1  0.74486378  0.61128527  0.51238404  1
  H+  H209  1  0.84975517  0.34440910  0.85372801  1
  H+  H210  1  0.23277322  0.87838134  0.50614766  1
  H+  H211  1  0.11929929  0.73534225  0.82647469  1
  H+  H212  1  0.83303611  0.63320873  0.00184419  1
  H+  H213  1  0.59412291  0.67675686  0.91420169  1
  H+  H214  1  0.75849545  0.39157992  0.84315706  1
  H+  H215  1  0.53509205  0.90342219  1.00058989  1
  H+  H216  1  0.37954946  0.60285859  0.66098414  1
  H+  H217  1  0.63353758  0.27126346  0.83729924  1
  H+  H218  1  0.89611020  0.62863286  0.84514599  1
  H+  H219  1  0.10239533  0.64354763  0.35222963  1
  H+  H220  1  0.89349710  0.35901794  0.64635832  1
  H+  H221  1  0.12554724  0.34523808  0.83476996  1
  H+  H222  1  0.23075875  0.35965671  0.17087175  1
  H+  H223  1  0.85007461  0.12310198  -0.00192971  1
  H+  H224  1  0.84535763  0.11975718  0.31786503  1
  H+  H225  1  0.84044851  0.41389488  0.58862599  1
  H+  H226  1  0.79336516  0.30497484  0.27425267  1
  H+  H227  1  0.01924714  0.88417944  0.33032756  1
  H+  H228  1  0.85273794  0.12089461  0.14674256  1
  H+  H229  1  0.60668809  0.46759754  0.34171119  1
  H+  H230  1  0.73279331  0.64376474  0.32513952  1
  H+  H231  1  0.23862737  0.35185852  0.50963180  1
  H+  H232  1  0.58299993  0.40612128  0.10005885  1
  H+  H233  1  0.35402764  0.88126356  0.65956095  1
  H+  H234  1  0.10831929  0.71596845  0.67285012  1
  H+  H235  1  0.05380597  0.67875513  -0.01548257  1
  H+  H236  1  0.13686379  0.34484212  0.16451312  1
  H+  H237  1  0.78233242  0.14271592  0.66320487  1
  H+  H238  1  0.68023719  0.86005072  0.93188693  1
  H+  H239  1  0.39236016  0.77044312  0.83625616  1
  H+  H240  1  0.42258372  0.84590157  0.92726962  1
  H+  H241  1  0.38517073  1.00055790  0.00811796  1
  H+  H242  1  0.38852617  1.02236547  0.66728179  1
  H+  H243  1  0.26199218  0.63973619  0.34590885  1
  H+  H244  1  0.14372858  0.87610112  0.16693448  1
  H+  H245  1  0.26413235  0.87749689  0.66580784  1
  H+  H246  1  0.87485843  0.10552562  0.83684151  1
  H+  H247  1  0.20284364  0.69073351  0.21891240  1
  H+  H248  1  0.39762261  0.26405156  0.50712544  1
  H+  H249  1  0.73795201  0.63228141  0.00467647  1
  H+  H250  1  0.87046423  0.78821850  0.31222371  1
  H+  H251  1  0.64737999  0.79860299  0.37052905  1
  H+  H252  1  0.70599341  0.35239150  0.37839113  1
  H+  H253  1  0.63357627  0.61007847  0.65858288  1
  H+  H254  1  0.39277255  0.85922982  0.83067476  1
  H+  H255  1  0.16374975  0.66216502  0.51571534  1
  H+  H256  1  0.62245714  0.33992962  0.34956180  1
  H+  H257  1  0.11427190  0.49759926  0.49286114  1
  H+  H258  1  0.01402678  0.38345397  0.83441215  1
  H+  H259  1  0.24191854  0.10277149  0.50515478  1
  H+  H260  1  0.15302122  0.88888241  -0.01690272  1
  H+  H261  1  0.64385193  0.03629807  0.65750523  1
  H+  H262  1  0.38525656  0.62447659  0.99405142  1
  H+  H263  1  0.12099975  0.83768910  0.66045220  1
  H+  H264  1  0.28087067  0.65353839  0.00337533  1
  H+  H265  1  0.74953163  0.16545702  -0.03995149  1
  H+  H266  1  0.79875007  0.67974313  0.83073911  1
  H+  H267  1  0.25444430  0.64882285  0.51382745  1
  H+  H268  1  -0.04861434  0.07607597  -0.00523784  1
  H+  H269  1  0.37733902  0.90855977  0.99759871  1
  H+  H270  1  0.60694888  0.47479191  0.68117664  1
  H+  H271  1  0.64466581  0.12660138  0.65865874  1
  H+  H272  1  0.58317869  0.41877185  0.43904779  1
  H+  H273  1  0.38920799  1.01606091  0.17775686  1
  H+  H274  1  0.98187274  0.12033831  0.16696037  1
  H+  H275  1  0.88757142  0.24422284  0.14806415  1
  H+  H276  1  0.09828219  0.68345652  0.44078956  1
  H+  H277  1  0.38972516  0.13514355  0.51514079  1
  H+  H278  1  0.59671832  0.12475228  0.35948580  1
  H+  H279  1  0.08392579  0.14478357  0.73846925  1
  H+  H280  1  0.82169143  0.39194311  0.10795595  1
  H+  H281  1  0.36817267  0.63543480  0.82687972  1
  H+  H282  1  0.52063288  0.65822980  0.99736041  1
  H+  H283  1  0.35667815  0.38869178  0.00918264  1
  H+  H284  1  0.47297981  0.36089065  0.66407126  1
  H+  H285  1  0.80425603  0.25597944  0.89213125  1
  H+  H286  1  0.76380483  0.13723397  0.50111153  1
  H+  H287  1  0.14899315  0.79135945  0.16304154  1
  H+  H288  1  0.58147534  0.67789627  0.71621703  1
  H+  H289  1  0.40443699  0.57007926  0.56553093  1
  H+  H290  1  0.70042739  0.88110214  0.22740688  1
  H+  H291  1  0.78839914  0.92658551  -0.01004128  1
  H+  H292  1  0.13316776  0.37840276  0.33968703  1
  H+  H293  1  0.72048717  0.11483758  0.17940205  1
  H+  H294  1  0.94356132  0.30210421  0.20403343  1
  H+  H295  1  0.89669511  0.58648579  0.94462440  1
  H+  H296  1  0.17795734  0.07834554  0.60200803  1
  H+  H297  1  0.57567016  0.41140418  0.73911474  1
  H+  H298  1  0.58879260  0.17553136  0.75494345  1
  H+  H299  1  0.77736915  0.69037347  0.38588535  1
  H+  H300  1  0.02687905  0.88980399  -0.00471252  1
  H+  H301  1  0.27748539  0.63395595  0.82508877  1
  H+  H302  1  0.07535645  0.35540868  0.42002825  1
  H+  H303  1  0.47253098  0.78799923  0.60937355  1
  H+  H304  1  0.56045165  0.92776596  0.40165305  1
  H+  H305  1  0.60158966  0.37734435  0.83179839  1
  H+  H306  1  0.64601360  0.57053335  0.24928244  1
  H+  H307  1  0.15527808  0.07540381  0.22809118  1
  H+  H308  1  0.87084445  0.95083168  0.39506539  1
  H+  H309  1  0.13826284  0.55605734  0.29513179  1
  H+  H310  1  0.63947552  0.50998352  0.16714536  1
  H+  H311  1  0.47902929  0.34292410  0.17736809  1
  H+  H312  1  0.37229555  0.97162525  0.81341327  1
  H+  H313  1  0.38546709  0.13304529  0.82563437  1
  H+  H314  1  0.59409743  0.99155750  0.49135558  1
  H+  H315  1  0.09811767  0.16418224  0.39522616  1
  H+  H316  1  0.91076958  0.32425062  0.94205850  1
  H+  H317  1  0.33547432  0.90665789  0.75738989  1
  H+  H318  1  0.32775649  0.66233647  0.43096690  1
  H+  H319  1  0.64337537  0.35042499  0.58534022  1
  H+  H320  1  0.59345972  0.92144491  0.72576814  1
  H+  H321  1  0.90907119  0.83823776  0.21631977  1
  H+  H322  1  0.40374243  0.82431716  0.55672681  1
  H+  H323  1  0.40322042  0.63111703  0.17309849  1
  H+  H324  1  0.84273713  0.68578493  0.76683068  1
  H+  H325  1  0.13767306  0.61404138  0.66640125  1
  H+  H326  1  0.49417812  0.11412963  0.82343923  1
  H+  H327  1  0.76601083  0.38734162  0.63749259  1
  H+  H328  1  0.18137145  0.85240764  0.88971096  1
  H+  H329  1  0.07160797  0.15795440  0.05931090  1
  H+  H330  1  0.59836664  0.30529897  0.15357821  1
  H+  H331  1  0.34402872  0.94302175  0.43834419  1
  H+  H332  1  0.82008238  0.42162616  0.78584379  1
  H+  H333  1  0.68367308  0.40221988  0.47817903  1
  H+  H334  1  0.81475775  0.14611695  0.08875209  1
  H+  H335  1  0.33712209  0.42157069  0.39933439  1
  H+  H336  1  0.08232182  0.91717931  0.09166262  1
  H+  H337  1  0.40673783  0.31991353  0.95021236  1
  H+  H338  1  0.81118479  0.15559074  0.43834073  1
  H+  H339  1  0.35930114  0.42269514  0.76344032  1
  H+  H340  1  0.07278096  0.52561613  0.20371885  1
  H+  H341  1  0.01074711  0.12437366  0.82528174  1
  H+  H342  1  0.45803366  0.16620414  0.96916819  1
  H+  H343  1  0.45140612  0.46007986  0.78978111  1
  H+  H344  1  0.76889355  0.63910130  0.68148910  1
  H+  H345  1  0.64905002  0.08197617  0.26682284  1
  H+  H346  1  0.93528752  0.59169247  0.60359409  1
  H+  H347  1  0.33819634  0.66426434  0.73502529  1
  H+  H348  1  0.61713842  0.88287828  0.81850731  1
  H+  H349  1  0.59102297  0.93020091  0.06103328  1
  H+  H350  1  0.83315383  0.47480330  0.21598996  1
  H+  H351  1  0.06871401  0.41479579  0.77344062  1
  H+  H352  1  0.16113039  0.82756212  0.59774252  1
  H+  H353  1  0.42493538  0.33119712  0.23691933  1
  H+  H354  1  0.84865987  0.50635629  0.24208461  1
  H+  H355  1  0.14382235  0.76696789  -0.01523040  1
  H+  H356  1  0.41536832  0.32470340  0.60348110  1
  H+  H357  1  0.08254540  0.91437137  0.42630621  1
  H+  H358  1  0.30281822  0.18347486  0.38784284  1
  H+  H359  1  0.42552711  0.59706521  0.23336230  1
  H+  H360  1  0.91334535  0.09635788  0.22273305  1
  H+  H361  1  0.67294770  0.57724596  0.60723133  1
  H+  H362  1  0.34467946  0.68813468  0.06165460  1
  H+  H363  1  0.17400930  0.31482783  0.56916774  1
  H+  H364  1  0.37202257  0.13655270  0.44798669  1
  H+  H365  1  0.35073154  0.16817338  0.76622711  1
  H+  H366  1  0.89635639  0.06436007  0.89508618  1
  H+  H367  1  0.32446703  0.42418645  0.10002236  1
  H+  H368  1  0.33556149  0.17837730  0.09242782  1
  H+  H369  1  0.16792628  0.83883585  0.26180647  1
  H+  H370  1  0.93521716  0.31926815  0.56344421  1
  H+  H371  1  0.19034407  0.62109248  0.58033257  1
  H+  H372  1  0.68881645  0.85117334  0.54785868  1
  H+  H373  1  0.63376697  0.31487510  0.90081873  1
  H+  H374  1  0.50221830  0.16065422  0.16463977  1
  H+  H375  1  0.41087804  0.58791626  0.93621386  1
  H+  H376  1  0.61064934  0.14982685  0.46171346  1
  H+  H377  1  0.57738347  0.66538332  0.42237806  1
  H+  H378  1  0.65047386  0.77858290  0.85060852  1
  H+  H379  1  0.61473209  0.74870381  -0.00076516  1
  H+  H380  1  0.42781329  0.08306885  0.60996419  1
  H+  H381  1  0.16059013  0.31627904  0.88981615  1
  H+  H382  1  0.81322585  0.43279138  0.46134339  1
  H+  H383  1  0.11481743  0.70529093  0.07350373  1
  O2-  O384  1  0.08078274  0.16216219  0.13797330  1
  O2-  O385  1  0.09710618  0.15403198  0.47760685  1
  O2-  O386  1  0.07220889  0.14719109  0.81460123  1
  O2-  O387  1  0.08798286  0.39009713  0.12248783  1
  O2-  O388  1  0.05852372  0.32004371  0.46141768  1
  O2-  O389  1  0.07265043  0.41518387  0.81855996  1
  O2-  O390  1  0.10625979  0.69848280  0.11899285  1
  O2-  O391  1  0.10386148  0.68614877  0.48682610  1
  O2-  O392  1  0.08746291  0.67351594  0.81268581  1
  O2-  O393  1  0.08103301  0.91409820  0.13698264  1
  O2-  O394  1  0.08654514  0.91531699  0.47204781  1
  O2-  O395  1  0.08958391  0.91726667  0.79439792  1
  O2-  O396  1  0.33165028  0.15217885  0.16657408  1
  O2-  O397  1  0.35878579  0.15456166  0.48753646  1
  O2-  O398  1  0.35387265  0.16506686  0.81360573  1
  O2-  O399  1  0.32179608  0.42349773  0.14515523  1
  O2-  O400  1  0.33447443  0.40391515  0.47900259  1
  O2-  O401  1  0.39178921  0.43625864  0.80259638  1
  O2-  O402  1  0.35698413  0.69153621  0.14128926  1
  O2-  O403  1  0.33060778  0.66073356  0.47691455  1
  O2-  O404  1  0.33785863  0.66477055  0.80952392  1
  O2-  O405  1  0.34026695  0.91530155  0.13812037  1
  O2-  O406  1  0.33794039  0.92939362  0.48170936  1
  O2-  O407  1  0.33890046  0.90963193  0.80266259  1
  O2-  O408  1  0.53690847  0.20763186  0.13640792  1
  O2-  O409  1  0.61657663  0.15127027  0.50789527  1
  O2-  O410  1  0.58544476  0.16718403  0.80025696  1
  O2-  O411  1  0.58577028  0.40727210  0.14670049  1
  O2-  O412  1  0.58694291  0.42297262  0.48577047  1
  O2-  O413  1  0.56754458  0.40529231  0.81891190  1
  O2-  O414  1  0.58215737  0.64084567  0.13378562  1
  O2-  O415  1  0.59170858  0.65568071  0.51230468  1
  O2-  O416  1  0.59384444  0.66846621  0.86976708  1
  O2-  O417  1  0.59083925  0.92984780  0.14111724  1
  O2-  O418  1  0.56818687  0.93320694  0.47373411  1
  O2-  O419  1  0.58559241  0.91043466  0.80056718  1
  O2-  O420  1  0.81903121  0.14876658  0.13435194  1
  O2-  O421  1  0.82213255  0.15932691  0.48324159  1
  O2-  O422  1  0.83153761  0.16065639  0.80243586  1
  O2-  O423  1  0.83780907  0.39188034  0.15103626  1
  O2-  O424  1  0.87693207  0.43165198  0.51741997  1
  O2-  O425  1  0.82121706  0.42524481  0.83008209  1
  O2-  O426  1  0.82214923  0.66887218  0.13078931  1
  O2-  O427  1  0.85373499  0.67019355  0.49028449  1
  O2-  O428  1  0.85336603  0.69216598  0.81269308  1
  O2-  O429  1  0.84523421  0.93162128  0.13076413  1
  O2-  O430  1  0.86721918  0.93170657  0.47787097  1
  O2-  O431  1  0.83562945  0.91843423  0.79751332  1
  O2-  O432  1  0.15800444  0.07894167  0.18255126  1
  O2-  O433  1  0.18067169  0.07250342  0.51773293  1
  O2-  O434  1  0.07349915  0.03752458  0.90139976  1
  O2-  O435  1  0.16929791  0.32161451  0.18662437  1
  O2-  O436  1  0.17695364  0.31707637  0.52389699  1
  O2-  O437  1  0.15492854  0.31306755  0.84458149  1
  O2-  O438  1  0.11592487  0.51206813  0.21854158  1
  O2-  O439  1  0.20964899  0.65483253  0.53997217  1
  O2-  O440  1  0.17103755  0.58642857  0.84974143  1
  O2-  O441  1  0.17623482  0.84844280  0.18322598  1
  O2-  O442  1  0.17180004  0.84456474  0.52025591  1
  O2-  O443  1  0.17466849  0.84117843  0.84485471  1
  O2-  O444  1  0.40368632  0.06120218  0.20891127  1
  O2-  O445  1  0.44656275  0.08281891  0.53801034  1
  O2-  O446  1  0.43136266  0.07986793  0.83970400  1
  O2-  O447  1  0.42002564  0.31474778  0.19367167  1
  O2-  O448  1  0.41890922  0.32350536  0.52265079  1
  O2-  O449  1  0.41270997  0.30972375  0.86254771  1
  O2-  O450  1  0.42606519  0.59456851  0.18844246  1
  O2-  O451  1  0.40657543  0.57008550  0.51977654  1
  O2-  O452  1  0.42118804  0.58816823  0.85700611  1
  O2-  O453  1  0.42553288  0.84414393  0.18591880  1
  O2-  O454  1  0.40061414  0.82903994  0.51189069  1
  O2-  O455  1  0.42489094  0.83227387  0.84823345  1
  O2-  O456  1  0.66237369  0.08522980  0.19741655  1
  O2-  O457  1  0.65500957  0.09701794  0.52066070  1
  O2-  O458  1  0.66234144  0.07933811  0.82880268  1
  O2-  O459  1  0.63864366  0.36938953  0.16257930  1
  O2-  O460  1  0.62887987  0.37312083  0.50272982  1
  O2-  O461  1  0.65560075  0.32834835  0.85686775  1
  O2-  O462  1  0.66601805  0.57209185  0.17993422  1
  O2-  O463  1  0.68476152  0.58203198  0.52808825  1
  O2-  O464  1  0.64142257  0.55467139  0.87635211  1
  O2-  O465  1  0.68612647  0.86419130  0.18511069  1
  O2-  O466  1  0.69779355  0.84002920  0.50493293  1
  O2-  O467  1  0.67657699  0.84222140  0.85081018  1
  O2-  O468  1  0.91910055  0.08878389  0.17858314  1
  O2-  O469  1  0.92963224  0.09284134  0.52003024  1
  O2-  O470  1  0.90253160  0.07197711  0.85045875  1
  O2-  O471  1  0.93321214  0.30507661  0.16039003  1
  O2-  O472  1  0.93364944  0.31792693  0.51777352  1
  O2-  O473  1  0.86005253  0.29851237  0.86905794  1
  O2-  O474  1  0.93233950  0.60295046  0.09247515  1
  O2-  O475  1  0.94804790  0.60362059  0.53676933  1
  O2-  O476  1  0.92245049  0.59659575  0.86326311  1
  O2-  O477  1  0.90945882  0.83285831  0.17121264  1
  O2-  O478  1  0.93437769  0.84437972  0.52255911  1
  O2-  O479  1  0.93480845  0.86050888  0.84382870  1
  O2-  O480  1  0.16390961  0.07819401  0.30447504  1
  O2-  O481  1  0.17333584  0.07837550  0.64689231  1
  O2-  O482  1  0.13364745  0.07586670  0.95238894  1
  O2-  O483  1  0.17826707  0.33439465  0.30780336  1
  O2-  O484  1  0.14197736  0.29959334  0.64716480  1
  O2-  O485  1  0.16078551  0.31957257  0.97028947  1
  O2-  O486  1  0.15043285  0.57138507  0.33864950  1
  O2-  O487  1  0.17120241  0.58939892  0.64674771  1
  O2-  O488  1  0.17922780  0.59668955  0.97289548  1
  O2-  O489  1  0.17014199  0.84022500  0.30746137  1
  O2-  O490  1  0.16015129  0.81868290  0.64283028  1
  O2-  O491  1  0.18791477  0.86348964  0.96707839  1
  O2-  O492  1  0.40830016  0.09590355  0.38587792  1
  O2-  O493  1  0.42133687  0.08396391  0.65559541  1
  O2-  O494  1  0.44515851  0.12027957  0.99880532  1
  O2-  O495  1  0.42232306  0.34507547  0.31662638  1
  O2-  O496  1  0.41229200  0.32753906  0.64878399  1
  O2-  O497  1  0.40858189  0.33303286  0.99387004  1
  O2-  O498  1  0.41654628  0.59724501  0.31918710  1
  O2-  O499  1  0.40985915  0.57360601  0.64333173  1
  O2-  O500  1  0.41499509  0.59235103  0.98145667  1
  O2-  O501  1  0.39927985  0.83761199  0.30964951  1
  O2-  O502  1  0.43592364  0.80694244  0.62876492  1
  O2-  O503  1  0.42112211  0.85152830  0.97232734  1
  O2-  O504  1  0.64093954  0.07822044  0.31352709  1
  O2-  O505  1  0.67442783  0.09647492  0.64170502  1
  O2-  O506  1  0.72587457  0.18528574  0.92731391  1
  O2-  O507  1  0.65851934  0.31296026  0.35175082  1
  O2-  O508  1  0.65702562  0.34441425  0.62811322  1
  O2-  O509  1  0.58319812  0.28978971  0.96241521  1
  O2-  O510  1  0.62790146  0.56885722  0.29432313  1
  O2-  O511  1  0.66523553  0.57872579  0.65212374  1
  O2-  O512  1  0.65503277  0.58253414  0.98793318  1
  O2-  O513  1  0.67769898  0.86163025  0.37613444  1
  O2-  O514  1  0.67845062  0.84690846  0.63139972  1
  O2-  O515  1  0.68424009  0.86205565  0.97707250  1
  O2-  O516  1  0.89271840  0.11380500  0.29968153  1
  O2-  O517  1  0.92820571  0.08911184  0.64378556  1
  O2-  O518  1  0.89061933  0.04533136  0.97877371  1
  O2-  O519  1  0.96144914  0.29077349  0.28677249  1
  O2-  O520  1  0.93052180  0.33315160  0.64048745  1
  O2-  O521  1  0.92194967  0.32745828  0.98648297  1
  O2-  O522  1  0.89122697  0.61457052  0.38715282  1
  O2-  O523  1  0.92332433  0.57423148  0.64941367  1
  O2-  O524  1  0.86656741  0.57458212  0.98431244  1
  O2-  O525  1  0.91284849  0.84638745  0.29787757  1
  O2-  O526  1  0.92040748  0.84415519  0.63404097  1
  O2-  O527  1  0.91371599  0.84620969  0.96617280  1
  O2-  O528  1  0.06209132  0.15416103  0.01419095  1
  O2-  O529  1  0.09583224  0.16426853  0.35023618  1
  O2-  O530  1  0.08654103  0.14863396  0.69256215  1
  O2-  O531  1  0.09491578  0.42234213  0.00295702  1
  O2-  O532  1  0.09365419  0.39665145  0.36106456  1
  O2-  O533  1  0.08659501  0.42593910  0.69233339  1
  O2-  O534  1  0.11297817  0.70372442  -0.00152750  1
  O2-  O535  1  0.08220415  0.68245721  0.36703061  1
  O2-  O536  1  0.07915815  0.65710249  0.69183182  1
  O2-  O537  1  0.08663364  0.92272411  0.01048633  1
  O2-  O538  1  0.07747597  0.91181163  0.34904861  1
  O2-  O539  1  0.03622797  0.84051510  0.69669658  1
  O2-  O540  1  0.34284547  0.18440509  0.04712843  1
  O2-  O541  1  0.32060112  0.17642601  0.34736563  1
  O2-  O542  1  0.34373660  0.16729848  0.69837581  1
  O2-  O543  1  0.32227415  0.41696597  0.01916895  1
  O2-  O544  1  0.33924913  0.42751859  0.35420630  1
  O2-  O545  1  0.32918939  0.40895202  0.68641495  1
  O2-  O546  1  0.34242665  0.68645944  0.01640239  1
  O2-  O547  1  0.32432949  0.67435909  0.35623563  1
  O2-  O548  1  0.33708218  0.66251830  0.68878896  1
  O2-  O549  1  0.34705227  0.93833171  0.01486991  1
  O2-  O550  1  0.34548274  0.95713245  0.31012229  1
  O2-  O551  1  0.32593807  0.90916375  0.67941629  1
  O2-  O552  1  0.53179114  0.14831028  0.02375667  1
  O2-  O553  1  0.57924044  0.15433763  0.39001493  1
  O2-  O554  1  0.59104474  0.17892741  0.67896853  1
  O2-  O555  1  0.57205620  0.41475020  0.02941467  1
  O2-  O556  1  0.57641362  0.41365421  0.36508599  1
  O2-  O557  1  0.57546279  0.41304493  0.69352820  1
  O2-  O558  1  0.58450754  0.68483153  0.00307169  1
  O2-  O559  1  0.58041181  0.67899117  0.37876244  1
  O2-  O560  1  0.57770618  0.67035207  0.67209300  1
  O2-  O561  1  0.59462147  0.92948042  0.01581315  1
  O2-  O562  1  0.55919343  0.91798764  0.35585266  1
  O2-  O563  1  0.59768550  0.92840027  0.67991284  1
  O2-  O564  1  0.82647307  0.15868619  0.01305203  1
  O2-  O565  1  0.78801115  0.15824792  0.36276124  1
  O2-  O566  1  0.84319571  0.17258794  0.67794490  1
  O2-  O567  1  0.81130337  0.39178855  0.02461246  1
  O2-  O568  1  0.77267767  0.44101111  0.43497667  1
  O2-  O569  1  0.83009909  0.41259418  0.63390555  1
  O2-  O570  1  0.80676703  0.66979246  0.01785751  1
  O2-  O571  1  0.78954049  0.68118252  0.34415280  1
  O2-  O572  1  0.82966236  0.67659691  0.69480303  1
  O2-  O573  1  0.85244944  0.95591344  0.00191823  1
  O2-  O574  1  0.85624530  0.94996557  0.35134018  1
  O2-  O575  1  0.84241996  0.91857892  0.67750645  1
