# generated using pymatgen
data_H2O
_symmetry_space_group_name_H-M   'P 1'
_cell_length_a   17.99316397
_cell_length_b   17.99047750
_cell_length_c   22.00150809
_cell_angle_alpha   90.02361943
_cell_angle_beta   89.98606177
_cell_angle_gamma   120.00349834
_symmetry_Int_Tables_number   1
_chemical_formula_structural   H2O
_chemical_formula_sum   'H384 O192'
_cell_volume   6167.62502960
_cell_formula_units_Z   192
loop_
 _symmetry_equiv_pos_site_id
 _symmetry_equiv_pos_as_xyz
  1  'x, y, z'
loop_
 _atom_type_symbol
 _atom_type_oxidation_number
  H+  1.0
  O2-  -2.0
loop_
 _atom_site_type_symbol
 _atom_site_label
 _atom_site_symmetry_multiplicity
 _atom_site_fract_x
 _atom_site_fract_y
 _atom_site_fract_z
 _atom_site_occupancy
  H+  H0  1  0.27752543  0.13976574  0.82937696  1
  H+  H1  1  0.72368132  0.62007615  0.65179023  1
  H+  H2  1  0.10225669  0.14076523  0.50315887  1
  H+  H3  1  0.14585582  0.25502056  0.67610487  1
  H+  H4  1  0.17486789  0.66361145  0.63886313  1
  H+  H5  1  0.62992752  0.71795738  0.45239143  1
  H+  H6  1  0.60469626  0.38256548  0.66656314  1
  H+  H7  1  0.03149663  0.38667916  0.15647771  1
  H+  H8  1  0.61734135  0.37847996  0.17069774  1
  H+  H9  1  0.15526535  0.04335468  0.67795773  1
  H+  H10  1  0.87413656  0.11965701  0.30423664  1
  H+  H11  1  0.60415211  0.97275822  0.34576419  1
  H+  H12  1  0.88988740  0.34229652  0.84782566  1
  H+  H13  1  0.11322839  0.72919843  0.34096894  1
  H+  H14  1  0.61002130  0.13880560  0.82871364  1
  H+  H15  1  0.64376123  0.02558586  0.99127991  1
  H+  H16  1  0.85114801  0.86819934  0.88031417  1
  H+  H17  1  0.99468433  0.85699196  0.16838539  1
  H+  H18  1  0.85751586  0.23220228  0.31382987  1
  H+  H19  1  0.27919051  0.15264308  0.67579032  1
  H+  H20  1  0.17030512  0.50747055  0.64289305  1
  H+  H21  1  0.63813360  0.01596271  0.17974767  1
  H+  H22  1  0.12065894  0.19461757  0.02054984  1
  H+  H23  1  0.33286870  0.65868031  0.72089405  1
  H+  H24  1  0.51602024  0.63026775  0.16137173  1
  H+  H25  1  0.70614854  0.35693062  0.64555425  1
  H+  H26  1  0.86468638  0.88208385  0.01029418  1
  H+  H27  1  0.27391399  0.62366377  0.48885818  1
  H+  H28  1  0.51377400  0.87808173  0.49486891  1
  H+  H29  1  0.86243142  0.47635453  0.34677457  1
  H+  H30  1  0.97873508  0.85773059  1.00798095  1
  H+  H31  1  0.47204402  0.11322502  0.33814655  1
  H+  H32  1  0.64108350  0.88972907  1.01133275  1
  H+  H33  1  0.61290995  0.63757054  0.66425480  1
  H+  H34  1  0.62557554  0.60020370  0.33811092  1
  H+  H35  1  0.72447834  0.85722584  0.64232917  1
  H+  H36  1  0.09919502  0.94347154  0.64218544  1
  H+  H37  1  0.61921805  0.86085311  0.34048868  1
  H+  H38  1  0.37529182  0.14013348  0.16465404  1
  H+  H39  1  0.47006702  0.85635066  0.18039145  1
  H+  H40  1  0.85454008  0.72999849  0.66635315  1
  H+  H41  1  0.87746771  0.84701058  0.18094161  1
  H+  H42  1  0.09670015  0.66153769  0.71423108  1
  H+  H43  1  0.52128780  0.13961669  0.82846998  1
  H+  H44  1  0.86605116  0.21962130  1.01171026  1
  H+  H45  1  0.46843742  0.86428222  0.96511944  1
  H+  H46  1  0.32461018  0.14966383  0.06610514  1
  H+  H47  1  0.27203848  0.39629958  0.34670491  1
  H+  H48  1  0.17813112  0.05664747  0.19062667  1
  H+  H49  1  0.13696457  0.12459001  0.67292798  1
  H+  H50  1  0.14021896  0.61922358  0.98537475  1
  H+  H51  1  -0.01644309  0.60854486  0.18842644  1
  H+  H52  1  0.07332365  0.42353125  0.44659846  1
  H+  H53  1  0.64007600  0.26069599  0.17575555  1
  H+  H54  1  0.72773304  0.11561587  0.99143706  1
  H+  H55  1  0.72062953  0.33414130  0.99452843  1
  H+  H56  1  0.35462292  0.12378150  1.00518340  1
  H+  H57  1  0.97102916  0.61352280  0.99783668  1
  H+  H58  1  0.61094658  0.21320906  0.67007166  1
  H+  H59  1  0.26926013  0.12941100  0.35506222  1
  H+  H60  1  0.46860433  0.37279384  0.50615672  1
  H+  H61  1  0.85592168  0.25852398  0.67950355  1
  H+  H62  1  0.36789931  0.63137619  0.66125145  1
  H+  H63  1  0.26717944  0.88343381  0.67171156  1
  H+  H64  1  0.86643712  0.75200191  0.17954291  1
  H+  H65  1  0.88983888  0.51586755  0.49842613  1
  H+  H66  1  0.83022506  0.87231214  0.79065010  1
  H+  H67  1  0.27599292  0.38287919  0.67832138  1
  H+  H68  1  0.13975751  0.02782911  0.33893575  1
  H+  H69  1  0.50224577  0.12204036  0.49524812  1
  H+  H70  1  0.89298748  0.03954137  0.65305732  1
  H+  H71  1  0.62864836  0.85956560  0.83641650  1
  H+  H72  1  0.13506610  0.33768012  0.67344351  1
  H+  H73  1  0.51556849  0.63583227  1.00242660  1
  H+  H74  1  0.13964636  0.60854004  0.83393618  1
  H+  H75  1  0.89249577  0.26631540  0.17372743  1
  H+  H76  1  0.38513383  0.51658952  0.65782192  1
  H+  H77  1  0.62237130  0.59988046  0.17533395  1
  H+  H78  1  0.63115892  0.79299232  0.55874184  1
  H+  H79  1  0.60875054  0.72105802  0.35585622  1
  H+  H80  1  0.60735786  0.72169185  0.00515497  1
  H+  H81  1  0.16527430  0.82758499  0.59840542  1
  H+  H82  1  0.86497930  0.88842772  0.65530734  1
  H+  H83  1  0.26897230  0.14793347  0.50091673  1
  H+  H84  1  0.52528327  0.12968724  0.16772616  1
  H+  H85  1  0.14008379  0.28178705  0.34023817  1
  H+  H86  1  0.70776816  0.35077560  0.50277366  1
  H+  H87  1  0.39172658  0.28138504  0.66169431  1
  H+  H88  1  0.86895726  0.39072619  0.34302851  1
  H+  H89  1  0.76703489  0.14291875  0.31521247  1
  H+  H90  1  0.77635644  0.13176302  0.16452524  1
  H+  H91  1  0.59828722  0.12921964  0.49474407  1
  H+  H92  1  0.38184334  0.86663317  0.65215507  1
  H+  H93  1  0.35766768  0.63562808  0.81877067  1
  H+  H94  1  0.04633237  0.71587646  0.77774760  1
  H+  H95  1  0.08777807  0.42580951  0.06658561  1
  H+  H96  1  0.36335037  0.89234176  0.49160668  1
  H+  H97  1  0.88743619  0.61272654  0.34553399  1
  H+  H98  1  0.83863731  0.94164290  0.29211007  1
  H+  H99  1  0.22574052  0.86664686  0.33393007  1
  H+  H100  1  0.80432139  0.42594438  0.71077978  1
  H+  H101  1  0.75560987  0.38748990  0.15683378  1
  H+  H102  1  0.70867433  0.60888366  -0.01290566  1
  H+  H103  1  0.90023958  0.05353845  0.33411875  1
  H+  H104  1  0.64609880  0.35366820  1.00416340  1
  H+  H105  1  1.01507729  0.63104559  0.81378458  1
  H+  H106  1  0.11167819  0.37615169  0.82957261  1
  H+  H107  1  0.72418574  0.35538006  0.81922339  1
  H+  H108  1  0.46836002  0.86118819  0.33304604  1
  H+  H109  1  0.62497354  0.38790039  0.81348037  1
  H+  H110  1  0.86387891  0.21493866  0.83162139  1
  H+  H111  1  0.26951022  0.66129394  0.63877575  1
  H+  H112  1  0.11306646  0.88958104  0.34242059  1
  H+  H113  1  0.13712554  0.11124346  0.83673347  1
  H+  H114  1  0.83190094  0.15850115  0.06950436  1
  H+  H115  1  0.89528725  0.52588489  0.64451598  1
  H+  H116  1  0.47153431  0.10736248  0.99516438  1
  H+  H117  1  0.15142010  0.12874349  0.18706517  1
  H+  H118  1  0.35469201  0.72316746  0.80993019  1
  H+  H119  1  0.42945238  0.34037539  1.04388738  1
  H+  H120  1  0.07847523  0.67898878  -0.06048197  1
  H+  H121  1  0.08486213  0.14784590  0.11063509  1
  H+  H122  1  0.36460390  0.39093526  -0.00046757  1
  H+  H123  1  0.19090217  0.32594076  0.57824651  1
  H+  H124  1  0.68759004  0.96940908  0.05493860  1
  H+  H125  1  0.39022159  0.52669263  0.33107774  1
  H+  H126  1  0.22477118  0.61202488  0.32741654  1
  H+  H127  1  0.13088748  0.86185846  0.17879161  1
  H+  H128  1  0.38797996  0.61201814  0.18061040  1
  H+  H129  1  0.97631569  0.85630751  0.65293164  1
  H+  H130  1  0.65223405  0.07344687  0.27195437  1
  H+  H131  1  0.86069766  0.35577627  0.75450817  1
  H+  H132  1  0.60997902  0.47529188  0.81858097  1
  H+  H133  1  0.38828036  0.11710066  0.84095324  1
  H+  H134  1  0.62273685  0.10423588  0.33184445  1
  H+  H135  1  0.36991813  0.98916287  0.49499249  1
  H+  H136  1  0.38821749  1.02466633  0.18399227  1
  H+  H137  1  0.49224178  0.87283646  0.03270589  1
  H+  H138  1  0.86528554  0.46645938  0.00841810  1
  H+  H139  1  0.70118382  0.60900299  0.83803470  1
  H+  H140  1  1.02311734  0.88767115  0.34557519  1
  H+  H141  1  0.15952741  0.88000849  0.82277932  1
  H+  H142  1  0.38137215  0.36247032  0.85019075  1
  H+  H143  1  0.38979922  0.52675380  0.98295819  1
  H+  H144  1  0.86070961  0.12603498  0.82763775  1
  H+  H145  1  0.16539566  0.57918599  0.23508831  1
  H+  H146  1  0.13190756  0.29540497  0.98743646  1
  H+  H147  1  0.94742267  0.34235066  0.68600871  1
  H+  H148  1  0.88336182  0.01911489  0.83402626  1
  H+  H149  1  0.93171272  0.34797614  0.27036519  1
  H+  H150  1  0.99146086  0.37522327  1.00019319  1
  H+  H151  1  0.22830011  0.61026398  0.83177352  1
  H+  H152  1  0.36337361  0.12863008  0.35608742  1
  H+  H153  1  0.06732945  0.95160263  0.17230046  1
  H+  H154  1  0.63440673  0.76961967  0.65422578  1
  H+  H155  1  0.03752063  0.14050568  0.67919360  1
  H+  H156  1  0.94087755  0.89158779  0.85592736  1
  H+  H157  1  0.29629099  0.15708743  0.16920462  1
  H+  H158  1  0.11391153  0.48804303  0.00620765  1
  H+  H159  1  0.14128494  1.02867462  0.51491167  1
  H+  H160  1  0.72305551  0.10841322  0.83659702  1
  H+  H161  1  0.86679561  0.54162799  0.84343177  1
  H+  H162  1  0.38570989  0.76832410  0.50365821  1
  H+  H163  1  0.57805676  0.15397503  0.10485504  1
  H+  H164  1  0.59584832  0.86702158  0.49124503  1
  H+  H165  1  0.75235919  0.88283491  0.81336406  1
  H+  H166  1  0.88796310  0.01718653  0.16803522  1
  H+  H167  1  0.11136469  0.46688115  0.83029286  1
  H+  H168  1  0.61879941  0.25861318  0.50092010  1
  H+  H169  1  0.63509470  0.10520749  0.66826491  1
  H+  H170  1  0.89157150  0.52500203  0.18579984  1
  H+  H171  1  0.78474888  0.63641471  0.46412141  1
  H+  H172  1  0.36244410  0.97898927  0.00925778  1
  H+  H173  1  0.04745009  0.88519784  0.80023728  1
  H+  H174  1  0.75555123  0.63014773  0.16960952  1
  H+  H175  1  0.10972192  0.96789583  0.01195245  1
  H+  H176  1  0.28121808  0.39923358  0.98960922  1
  H+  H177  1  0.85160499  0.72265903  0.01491698  1
  H+  H178  1  1.12500569  0.15651712  0.35707258  1
  H+  H179  1  0.36929689  0.72937255  0.01487410  1
  H+  H180  1  0.41178212  0.83123195  0.56205854  1
  H+  H181  1  0.89203047  0.35381352  0.17211176  1
  H+  H182  1  0.60439476  0.21579042  1.01354779  1
  H+  H183  1  0.39088970  0.37055633  0.66294583  1
  H+  H184  1  0.11686685  0.72977691  0.49264180  1
  H+  H185  1  0.35788218  0.88867307  0.34579653  1
  H+  H186  1  0.39366908  0.78459587  0.65424594  1
  H+  H187  1  0.36936176  0.89448362  0.01801045  1
  H+  H188  1  0.39150656  0.61606774  0.33004674  1
  H+  H189  1  0.77578611  0.14665713  0.52198656  1
  H+  H190  1  0.60890818  0.21764921  0.34518983  1
  H+  H191  1  0.46576961  0.57069407  0.48834408  1
  H+  H192  1  0.38744006  0.61497855  0.99023456  1
  H+  H193  1  0.46841057  0.61781648  0.83199184  1
  H+  H194  1  -0.01160962  0.61103698  0.49677292  1
  H+  H195  1  0.11415035  0.73331798  1.00117375  1
  H+  H196  1  0.13654047  0.61404896  0.32764781  1
  H+  H197  1  0.53419370  0.38433056  0.14794397  1
  H+  H198  1  0.15666512  0.79250985  0.83635199  1
  H+  H199  1  0.63153226  0.75010684  0.16921301  1
  H+  H200  1  0.40401988  0.27917314  0.13581870  1
  H+  H201  1  0.77169618  0.87740297  0.15622460  1
  H+  H202  1  0.61080491  0.87071666  0.17638212  1
  H+  H203  1  0.62701781  0.88895647  0.66738913  1
  H+  H204  1  0.13171352  0.51373894  0.64149334  1
  H+  H205  1  0.37332494  0.26281328  1.00234897  1
  H+  H206  1  0.86321050  0.72486252  0.36671214  1
  H+  H207  1  0.78995699  0.89550062  0.51795182  1
  H+  H208  1  0.83527352  0.74246899  0.83418917  1
  H+  H209  1  0.14441749  0.86387885  0.50657791  1
  H+  H210  1  0.14250333  1.02530919  0.82868073  1
  H+  H211  1  0.35867176  0.88710399  0.16758051  1
  H+  H212  1  0.38707903  0.10448634  0.50305295  1
  H+  H213  1  0.61903920  0.60515184  0.98941166  1
  H+  H214  1  0.13912170  0.38467650  0.98541682  1
  H+  H215  1  0.85499654  0.38898761  0.50055505  1
  H+  H216  1  0.69203155  0.45995482  0.38592832  1
  H+  H217  1  0.14188130  0.61961562  0.49758819  1
  H+  H218  1  0.52295793  0.63529441  0.66484405  1
  H+  H219  1  0.65013858  0.52408987  0.49568310  1
  H+  H220  1  0.35277715  0.97654883  0.66360308  1
  H+  H221  1  0.89314190  0.77407258  0.48627808  1
  H+  H222  1  0.88850286  0.10700810  0.99453410  1
  H+  H223  1  0.63344332  -0.00249179  0.66958192  1
  H+  H224  1  0.87155537  0.15585763  0.53202377  1
  H+  H225  1  0.38114462  0.36339871  0.31536575  1
  H+  H226  1  1.01797524  0.15249091  0.50661388  1
  H+  H227  1  0.63117856  0.51505141  0.18081912  1
  H+  H228  1  0.62931803  0.01545835  0.50749542  1
  H+  H229  1  0.13988607  0.61259997  0.17571273  1
  H+  H230  1  0.60343982  0.12701220  0.00963577  1
  H+  H231  1  0.63234633  0.27559696  0.82975925  1
  H+  H232  1  0.84071092  0.38334459  0.66683825  1
  H+  H233  1  0.10773275  0.10398739  1.00768544  1
  H+  H234  1  0.08178494  0.42032273  0.67846617  1
  H+  H235  1  0.40202429  0.36682988  0.14234336  1
  H+  H236  1  0.08751437  0.18417885  0.41230845  1
  H+  H237  1  0.35886187  0.72403870  0.34079085  1
  H+  H238  1  0.02432265  0.12681075  0.16797103  1
  H+  H239  1  0.09357524  0.92337551  0.43822316  1
  H+  H240  1  0.62773256  0.76942611  0.83366311  1
  H+  H241  1  0.98354327  0.37109445  0.33331228  1
  H+  H242  1  0.35600035  0.24137643  0.49645388  1
  H+  H243  1  0.84611220  0.66343217  0.81998253  1
  H+  H244  1  0.89185891  0.86117124  0.49784369  1
  H+  H245  1  -0.00661908  0.60708479  0.64360177  1
  H+  H246  1  0.57649357  0.66612099  0.75938083  1
  H+  H247  1  0.36421268  0.22970249  0.83530077  1
  H+  H248  1  0.22107672  0.09644402  0.99170493  1
  H+  H249  1  0.38008647  0.76960107  0.17767213  1
  H+  H250  1  0.61130073  -0.02403755  0.82400296  1
  H+  H251  1  0.98519630  0.35528002  0.85346650  1
  H+  H252  1  0.86482732  0.13048374  0.16028955  1
  H+  H253  1  0.14352491  0.36169253  0.17325649  1
  H+  H254  1  0.52132933  0.88714459  0.81637696  1
  H+  H255  1  0.11976589  0.73148591  0.65998201  1
  H+  H256  1  0.86325606  0.13468261  0.66936097  1
  H+  H257  1  0.27291912  0.38831613  0.82340858  1
  H+  H258  1  0.86227653  0.97050233  0.00420696  1
  H+  H259  1  0.11290704  0.38974490  0.35016763  1
  H+  H260  1  0.13939330  0.27150990  0.17857369  1
  H+  H261  1  0.13407970  0.85438289  0.02364247  1
  H+  H262  1  0.89667890  0.05832450  0.51825854  1
  H+  H263  1  0.11219914  0.47805504  0.34682953  1
  H+  H264  1  0.88081809  0.43587324  0.79890718  1
  H+  H265  1  0.52348489  0.63379830  0.36099661  1
  H+  H266  1  0.59796058  0.91745902  0.73172687  1
  H+  H267  1  0.72932981  0.85530468  -0.01234164  1
  H+  H268  1  0.63530187  0.48267893  0.34455423  1
  H+  H269  1  0.11865511  0.73304340  0.16757855  1
  H+  H270  1  1.01313434  0.40100704  0.50552194  1
  H+  H271  1  0.39909070  0.82507753  0.87470983  1
  H+  H272  1  0.37364007  0.42374533  0.50600176  1
  H+  H273  1  0.27799522  0.64341337  1.00778878  1
  H+  H274  1  0.38477175  0.86938364  0.81713504  1
  H+  H275  1  0.27283755  0.63297188  0.16564659  1
  H+  H276  1  0.03120120  0.88739195  0.49444733  1
  H+  H277  1  0.59637535  0.63103560  0.82082268  1
  H+  H278  1  0.58936188  0.90124824  0.11545430  1
  H+  H279  1  0.87786500  0.85003708  0.33120398  1
  H+  H280  1  0.38199239  0.02345361  0.33730441  1
  H+  H281  1  0.59665349  0.37719427  0.49563460  1
  H+  H282  1  0.23421776  0.86541835  0.50567623  1
  H+  H283  1  0.63643060  0.10415233  0.17452490  1
  H+  H284  1  0.84307320  0.63095152  0.02431224  1
  H+  H285  1  0.03143234  0.13688586  0.82304168  1
  H+  H286  1  0.87575225  0.27917396  0.53206956  1
  H+  H287  1  0.39169519  1.02952071  0.83512784  1
  H+  H288  1  0.90852761  0.35571617  0.58009031  1
  H+  H289  1  0.28567759  0.38180196  0.18049975  1
  H+  H290  1  0.58827748  0.41984146  0.74923631  1
  H+  H291  1  0.64042521  0.56967773  0.89584922  1
  H+  H292  1  0.33769250  0.43248952  0.40268025  1
  H+  H293  1  0.41800279  0.08551826  0.24293995  1
  H+  H294  1  0.66428401  0.08079537  0.89579657  1
  H+  H295  1  0.91631377  0.58407804  0.28337525  1
  H+  H296  1  0.35805228  0.61492271  0.48719669  1
  H+  H297  1  0.80768762  0.66424627  0.10741865  1
  H+  H298  1  0.97497291  0.10132000  0.99469318  1
  H+  H299  1  0.13020368  0.52424337  0.50880877  1
  H+  H300  1  0.93092715  0.57931364  0.56349129  1
  H+  H301  1  0.16879659  0.08872849  0.57429535  1
  H+  H302  1  0.57349616  0.15892749  0.40624392  1
  H+  H303  1  0.92722492  0.10933112  0.59732167  1
  H+  H304  1  0.41183078  0.33541570  0.90962601  1
  H+  H305  1  0.09100420  0.16389374  0.75983569  1
  H+  H306  1  0.34106987  0.92675918  0.75560725  1
  H+  H307  1  0.16436263  0.33010249  0.88863207  1
  H+  H308  1  0.72731599  0.10492734  0.66302338  1
  H+  H309  1  0.15603087  0.27874985  0.51660686  1
  H+  H310  1  0.64766035  0.57261035  0.27371609  1
  H+  H311  1  0.22451580  0.85567895  1.02204444  1
  H+  H312  1  0.33102103  0.16722718  0.42097114  1
  H+  H313  1  0.63676839  0.53001687  0.64797614  1
  H+  H314  1  0.82514751  0.15190766  0.73208896  1
  H+  H315  1  0.28757399  0.89855951  0.81862862  1
  H+  H316  1  0.08629613  0.67519204  0.10876520  1
  H+  H317  1  0.82994873  0.41517922  0.43615326  1
  H+  H318  1  0.20070622  0.62940865  0.57305418  1
  H+  H319  1  0.06022051  0.38225833  0.74480806  1
  H+  H320  1  0.07402819  0.91367824  0.07532886  1
  H+  H321  1  0.73147101  0.35047013  0.32786247  1
  H+  H322  1  0.63133752  0.47571240  0.01242807  1
  H+  H323  1  0.90833484  0.81199342  0.27933840  1
  H+  H324  1  0.81638677  0.92164415  0.45105464  1
  H+  H325  1  0.88944672  0.58951665  0.95780952  1
  H+  H326  1  0.58946363  0.16369265  0.73386754  1
  H+  H327  1  0.16741962  0.83732715  0.27350663  1
  H+  H328  1  0.75580391  0.87570066  0.32722482  1
  H+  H329  1  0.11856877  0.47764359  0.15914409  1
  H+  H330  1  0.64793046  0.35684890  0.32739307  1
  H+  H331  1  0.41313397  0.59165637  0.89367814  1
  H+  H332  1  0.92481082  0.52338604  0.88591049  1
  H+  H333  1  0.33339519  0.66330355  0.10686517  1
  H+  H334  1  0.57242666  0.65682763  0.09857472  1
  H+  H335  1  0.51913934  0.38998060  0.67135129  1
  H+  H336  1  0.40048288  0.06982694  0.58916438  1
  H+  H337  1  0.82922815  0.40724341  0.06621925  1
  H+  H338  1  0.33379654  0.92287381  0.10906057  1
  H+  H339  1  0.78423911  0.47252368  0.12080868  1
  H+  H340  1  0.87167854  0.16875666  0.41640281  1
  H+  H341  1  0.89202700  0.36837670  1.00188899  1
  H+  H342  1  0.41448514  0.07929516  0.93365271  1
  H+  H343  1  0.67224535  0.31933968  0.23668685  1
  H+  H344  1  0.63931229  0.31774458  0.59223350  1
  H+  H345  1  0.42461838  0.58860937  0.24019390  1
  H+  H346  1  0.69318181  0.79922496  0.22470264  1
  H+  H347  1  0.91468883  0.07718222  0.22767245  1
  H+  H348  1  0.62091091  0.81344157  0.28101469  1
  H+  H349  1  0.65202120  0.07155578  0.56707044  1
  H+  H350  1  0.82776859  0.92228836  0.70808054  1
  H+  H351  1  0.34201943  0.17788598  0.73285812  1
  H+  H352  1  0.33057906  0.92042801  0.40653487  1
  H+  H353  1  0.81032722  0.68189858  0.72724245  1
  H+  H354  1  0.37424908  0.10561542  0.64892880  1
  H+  H355  1  0.62384994  0.43080231  0.07677949  1
  H+  H356  1  0.17980541  0.09886149  0.28573923  1
  H+  H357  1  0.02380769  0.63882518  0.34505810  1
  H+  H358  1  0.37290207  0.47206643  0.18039790  1
  H+  H359  1  0.91508639  0.07341246  0.89635519  1
  H+  H360  1  0.33149003  0.65976584  0.39758867  1
  H+  H361  1  0.17412825  0.58537285  0.93177864  1
  H+  H362  1  0.86900322  0.20874272  0.42041931  1
  H+  H363  1  0.13537909  0.26637120  0.83001303  1
  H+  H364  1  0.09685149  0.91920245  0.73671885  1
  H+  H365  1  0.66544076  0.83031004  0.92964183  1
  H+  H366  1  0.41314761  0.56521838  0.59419242  1
  H+  H367  1  0.08796032  0.67188015  0.43112703  1
  H+  H368  1  0.91717003  0.82746037  0.59294084  1
  H+  H369  1  0.35968102  0.47959917  0.82753430  1
  H+  H370  1  0.83320667  0.90941144  0.09869365  1
  H+  H371  1  0.41291390  0.34491661  0.56689631  1
  H+  H372  1  0.58027741  0.41439736  0.43602644  1
  H+  H373  1  0.34086967  0.42221574  0.73451643  1
  H+  H374  1  0.68895345  0.59353288  0.54727882  1
  H+  H375  1  0.12305190  0.85219597  0.65621439  1
  H+  H376  1  0.92532702  0.33445117  0.93654893  1
  H+  H377  1  0.57339575  0.91269089  0.40637052  1
  H+  H378  1  0.40921865  0.83195579  0.27329279  1
  H+  H379  1  0.16095665  0.06753034  0.93099097  1
  H+  H380  1  0.16658401  0.33787504  0.27838408  1
  H+  H381  1  0.91604866  0.82810546  0.94989067  1
  H+  H382  1  0.22413746  0.86884521  0.17736842  1
  H+  H383  1  0.38909621  0.36594745  0.24641750  1
  O2-  O384  1  0.08664338  0.15711520  0.15505319  1
  O2-  O385  1  0.07807015  0.17528710  0.48709793  1
  O2-  O386  1  0.09193912  0.16741275  0.80989402  1
  O2-  O387  1  0.09089632  0.41921904  0.13960225  1
  O2-  O388  1  0.07337794  0.43381295  0.49095770  1
  O2-  O389  1  0.07587929  0.40482577  0.82033374  1
  O2-  O390  1  0.09052484  0.67187232  0.15268035  1
  O2-  O391  1  0.08589218  0.66866378  0.47708676  1
  O2-  O392  1  0.06706802  0.67993976  0.79589791  1
  O2-  O393  1  0.05666869  0.89805784  0.15362132  1
  O2-  O394  1  0.09344215  0.92040522  0.48347937  1
  O2-  O395  1  0.10473522  0.92522165  0.78537401  1
  O2-  O396  1  0.34647516  0.16867768  0.14396975  1
  O2-  O397  1  0.32859860  0.17981656  0.48312068  1
  O2-  O398  1  0.33854824  0.17088434  0.81623139  1
  O2-  O399  1  0.34896267  0.40905137  0.17768300  1
  O2-  O400  1  0.35699736  0.46276972  0.48431299  1
  O2-  O401  1  0.33507971  0.41942909  0.81281367  1
  O2-  O402  1  0.33431580  0.66540828  0.15208241  1
  O2-  O403  1  0.33498704  0.65239943  0.47518395  1
  O2-  O404  1  0.32342530  0.66057056  0.80003765  1
  O2-  O405  1  0.33038305  0.92023270  0.15443324  1
  O2-  O406  1  0.33278583  0.92256130  0.47827534  1
  O2-  O407  1  0.34770998  0.92727620  0.80188619  1
  O2-  O408  1  0.58446856  0.15588417  0.15033994  1
  O2-  O409  1  0.56823455  0.15903542  0.47906852  1
  O2-  O410  1  0.58200651  0.17051780  0.81292566  1
  O2-  O411  1  0.59850128  0.41721280  0.15307758  1
  O2-  O412  1  0.57130847  0.41229411  0.48090074  1
  O2-  O413  1  0.59187255  0.41824099  0.79794962  1
  O2-  O414  1  0.57624986  0.65840668  0.14407012  1
  O2-  O415  1  0.66591219  0.75650969  0.48604654  1
  O2-  O416  1  0.57391386  0.66803556  0.80505769  1
  O2-  O417  1  0.58197129  0.90106582  0.15999135  1
  O2-  O418  1  0.57566773  0.90746331  0.48032878  1
  O2-  O419  1  0.58408375  0.91566600  0.80754106  1
  O2-  O420  1  0.83501989  0.16186076  0.14580670  1
  O2-  O421  1  0.83496315  0.18585875  0.53538272  1
  O2-  O422  1  0.83027311  0.15709814  0.81392083  1
  O2-  O423  1  0.80611256  0.43470578  0.13300204  1
  O2-  O424  1  0.82801691  0.42106018  0.48155161  1
  O2-  O425  1  0.84335283  0.37369317  0.79271115  1
  O2-  O426  1  0.81477204  0.66359005  0.15194278  1
  O2-  O427  1  0.84576929  0.67303891  0.44840143  1
  O2-  O428  1  0.80667395  0.68515685  0.81467310  1
  O2-  O429  1  0.83312516  0.90948396  0.14410624  1
  O2-  O430  1  0.83985197  0.92286422  0.49121793  1
  O2-  O431  1  0.81268188  0.91519946  0.79580901  1
  O2-  O432  1  0.19286292  0.11289693  0.20637926  1
  O2-  O433  1  0.16874737  0.08924883  0.52889283  1
  O2-  O434  1  0.16507583  0.07862153  0.85321399  1
  O2-  O435  1  0.17065040  0.33171015  0.19300458  1
  O2-  O436  1  0.20357745  0.33191535  0.53440540  1
  O2-  O437  1  0.16333691  0.32929530  0.84363079  1
  O2-  O438  1  0.16749058  0.57927866  0.18924621  1
  O2-  O439  1  0.17171120  0.59025969  0.51567731  1
  O2-  O440  1  0.16881163  0.57987738  0.85108465  1
  O2-  O441  1  0.16395440  0.83477354  0.19329317  1
  O2-  O442  1  0.17242434  0.83072908  0.52026768  1
  O2-  O443  1  0.18806942  0.85369060  0.84625310  1
  O2-  O444  1  0.42144418  0.08584487  0.19754018  1
  O2-  O445  1  0.41623170  0.07350400  0.51569313  1
  O2-  O446  1  0.41921811  0.08676086  0.85562892  1
  O2-  O447  1  0.43506808  0.34095857  0.12407651  1
  O2-  O448  1  0.40842965  0.34801820  0.52178076  1
  O2-  O449  1  0.40672519  0.32812759  0.86540753  1
  O2-  O450  1  0.42161342  0.58487310  0.19442327  1
  O2-  O451  1  0.41095064  0.54899060  0.50991750  1
  O2-  O452  1  0.40838312  0.58900948  0.84802213  1
  O2-  O453  1  0.40896411  0.83056906  0.19246497  1
  O2-  O454  1  0.41372069  0.82932161  0.51576282  1
  O2-  O455  1  0.41028544  0.83142157  0.83117421  1
  O2-  O456  1  0.66934115  0.07729866  0.19150572  1
  O2-  O457  1  0.65422292  0.07551994  0.52228406  1
  O2-  O458  1  0.66195574  0.07874243  0.85049037  1
  O2-  O459  1  0.67016742  0.32130439  0.19095547  1
  O2-  O460  1  0.64734407  0.32029507  0.51649043  1
  O2-  O461  1  0.66757743  0.33965779  0.83545246  1
  O2-  O462  1  0.65496040  0.57565793  0.19552695  1
  O2-  O463  1  0.69400929  0.58481898  0.50351649  1
  O2-  O464  1  0.64059849  0.56959437  0.84964684  1
  O2-  O465  1  0.66833620  0.81019147  0.18873146  1
  O2-  O466  1  0.60511201  0.77587504  0.51711621  1
  O2-  O467  1  0.66070152  0.82991560  0.84993174  1
  O2-  O468  1  0.91920734  0.07826993  0.18160438  1
  O2-  O469  1  0.92839376  0.11644234  0.53457215  1
  O2-  O470  1  0.91604706  0.07765902  0.85119996  1
  O2-  O471  1  0.92642675  0.32875809  0.18529062  1
  O2-  O472  1  0.90571839  0.34669278  0.53615693  1
  O2-  O473  1  0.92502926  0.32392334  0.87218589  1
  O2-  O474  1  0.92766067  0.57727099  0.20928287  1
  O2-  O475  1  0.92764310  0.57797112  0.51448227  1
  O2-  O476  1  0.91951823  0.53852462  0.84409469  1
  O2-  O477  1  0.90346312  0.81366280  0.19698969  1
  O2-  O478  1  0.92120526  0.82890377  0.50949520  1
  O2-  O479  1  0.88814919  0.84371240  0.87233841  1
  O2-  O480  1  0.17684421  0.09084762  0.33051574  1
  O2-  O481  1  0.17430501  0.09588827  0.65459605  1
  O2-  O482  1  0.15957731  0.06454793  0.97674133  1
  O2-  O483  1  0.16789477  0.34311093  0.32318938  1
  O2-  O484  1  0.17610877  0.31923842  0.66248404  1
  O2-  O485  1  0.16417336  0.35080330  0.96758138  1
  O2-  O486  1  0.16412771  0.58144788  0.31202214  1
  O2-  O487  1  0.22446648  0.66806744  0.61309658  1
  O2-  O488  1  0.17163678  0.58762085  0.97707931  1
  O2-  O489  1  0.16467296  0.83602348  0.31875695  1
  O2-  O490  1  0.15852434  0.82231423  0.64374665  1
  O2-  O491  1  0.16129891  0.81806100  1.02751032  1
  O2-  O492  1  0.41047186  0.08522173  0.32354668  1
  O2-  O493  1  0.39144822  0.06444199  0.63490279  1
  O2-  O494  1  0.41107381  0.07677001  0.97923899  1
  O2-  O495  1  0.39963055  0.33977899  0.28212372  1
  O2-  O496  1  0.42301314  0.34259324  0.64637273  1
  O2-  O497  1  0.40871414  0.32626380  1.00097147  1
  O2-  O498  1  0.42558101  0.58859252  0.31758002  1
  O2-  O499  1  0.41535354  0.57569834  0.63842656  1
  O2-  O500  1  0.41947132  0.58998477  0.97020285  1
  O2-  O501  1  0.40742386  0.83083416  0.31857611  1
  O2-  O502  1  0.41429980  0.84029677  0.63434934  1
  O2-  O503  1  0.44259586  0.84840386  1.00541039  1
  O2-  O504  1  0.65228988  0.07269862  0.31722206  1
  O2-  O505  1  0.66367541  0.07102680  0.65120731  1
  O2-  O506  1  0.66787103  0.08444534  0.97531488  1
  O2-  O507  1  0.67106633  0.31972762  0.31220402  1
  O2-  O508  1  0.64360426  0.32211106  0.63796246  1
  O2-  O509  1  0.65890608  0.30900206  0.98787696  1
  O2-  O510  1  0.64902422  0.56691447  0.31855276  1
  O2-  O511  1  0.66405808  0.58991729  0.63340406  1
  O2-  O512  1  0.64940371  0.57697151  0.97056979  1
  O2-  O513  1  0.64468841  0.82596563  0.32205316  1
  O2-  O514  1  0.66110029  0.82759326  0.63410947  1
  O2-  O515  1  0.66765386  0.82938707  0.97509212  1
  O2-  O516  1  0.90589747  0.08658915  0.29772750  1
  O2-  O517  1  0.92218154  0.10207869  0.64710460  1
  O2-  O518  1  0.91586432  0.07491125  0.97768405  1
  O2-  O519  1  0.92425770  0.34572802  0.31488912  1
  O2-  O520  1  0.88470924  0.32358022  0.68217625  1
  O2-  O521  1  0.92755002  0.33937239  0.98519642  1
  O2-  O522  1  0.91729327  0.58304806  0.32915762  1
  O2-  O523  1  0.93447017  0.58286022  0.62644794  1
  O2-  O524  1  0.90643453  0.57657152  0.99669205  1
  O2-  O525  1  0.91133125  0.82028638  0.32428811  1
  O2-  O526  1  0.91470484  0.83188471  0.63784705  1
  O2-  O527  1  0.91626966  0.82722393  0.99462023  1
  O2-  O528  1  0.07851517  0.13453469  0.02735505  1
  O2-  O529  1  0.09561083  0.18855660  0.36686990  1
  O2-  O530  1  0.09509274  0.16345720  0.69718543  1
  O2-  O531  1  0.08258324  0.42634896  0.02019425  1
  O2-  O532  1  0.08055846  0.41898934  0.36416179  1
  O2-  O533  1  0.04825491  0.36638746  0.70076941  1
  O2-  O534  1  0.07776150  0.66987354  -0.01668707  1
  O2-  O535  1  0.08632590  0.66884176  0.35643081  1
  O2-  O536  1  0.09854473  0.66632014  0.66966063  1
  O2-  O537  1  0.07735195  0.90891794  0.03032840  1
  O2-  O538  1  0.08459112  0.92171422  0.35782285  1
  O2-  O539  1  0.07680231  0.89852942  0.67301941  1
  O2-  O540  1  0.31871824  0.14794573  0.02092957  1
  O2-  O541  1  0.33061044  0.15771233  0.37232139  1
  O2-  O542  1  0.34138296  0.18104859  0.68772734  1
  O2-  O543  1  0.34087995  0.43048009  0.00382272  1
  O2-  O544  1  0.33448342  0.42801466  0.35799348  1
  O2-  O545  1  0.33908345  0.42088242  0.68904882  1
  O2-  O546  1  0.33648645  0.66790351  0.02563282  1
  O2-  O547  1  0.32963062  0.66185444  0.35212379  1
  O2-  O548  1  0.34056643  0.66522969  0.67589480  1
  O2-  O549  1  0.33483718  0.92078862  0.02964203  1
  O2-  O550  1  0.32847458  0.92014541  0.35978543  1
  O2-  O551  1  0.32849108  0.91668108  0.68396292  1
  O2-  O552  1  0.57124503  0.15297749  0.02764279  1
  O2-  O553  1  0.57361448  0.15730183  0.35975184  1
  O2-  O554  1  0.59894034  0.15893513  0.68980991  1
  O2-  O555  1  0.64593253  0.43713631  0.03446060  1
  O2-  O556  1  0.63573892  0.43193567  0.36652514  1
  O2-  O557  1  0.58189391  0.41864196  0.68497752  1
  O2-  O558  1  0.57483112  0.66211172  0.02093527  1
  O2-  O559  1  0.58365342  0.66489266  0.37679048  1
  O2-  O560  1  0.58240687  0.66717184  0.68177431  1
  O2-  O561  1  0.63107622  0.93115786  0.03736199  1
  O2-  O562  1  0.57283658  0.91145211  0.36035141  1
  O2-  O563  1  0.60365048  0.92433815  0.68633384  1
  O2-  O564  1  0.83288153  0.15876087  0.02341206  1
  O2-  O565  1  0.82644220  0.17200342  0.29939672  1
  O2-  O566  1  0.82301015  0.15599449  0.68718592  1
  O2-  O567  1  0.84263337  0.40584345  0.02162676  1
  O2-  O568  1  0.83263747  0.41432766  0.35923138  1
  O2-  O569  1  0.81528793  0.42206742  0.66775223  1
  O2-  O570  1  0.81067080  0.66159886  0.02612920  1
  O2-  O571  1  0.83585191  0.66427877  0.38203339  1
  O2-  O572  1  0.81800335  0.67177227  0.68460313  1
  O2-  O573  1  0.82952463  0.90987159  0.01937288  1
  O2-  O574  1  0.81976120  0.90464617  0.32802383  1
  O2-  O575  1  0.82987909  0.91690258  0.66374482  1
