# generated using pymatgen
data_H2O
_symmetry_space_group_name_H-M   'P 1'
_cell_length_a   18.00406844
_cell_length_b   18.01055497
_cell_length_c   22.02116780
_cell_angle_alpha   89.98160839
_cell_angle_beta   89.99950889
_cell_angle_gamma   120.02208747
_symmetry_Int_Tables_number   1
_chemical_formula_structural   H2O
_chemical_formula_sum   'H384 O192'
_cell_volume   6182.61203033
_cell_formula_units_Z   192
loop_
 _symmetry_equiv_pos_site_id
 _symmetry_equiv_pos_as_xyz
  1  'x, y, z'
loop_
 _atom_type_symbol
 _atom_type_oxidation_number
  H+  1.0
  O2-  -2.0
loop_
 _atom_site_type_symbol
 _atom_site_label
 _atom_site_symmetry_multiplicity
 _atom_site_fract_x
 _atom_site_fract_y
 _atom_site_fract_z
 _atom_site_occupancy
  H+  H0  1  0.72513400  0.67823708  0.55230142  1
  H+  H1  1  0.38165198  0.62962102  0.32019744  1
  H+  H2  1  0.27327756  0.38673663  0.01020323  1
  H+  H3  1  0.11795474  1.02143243  0.67584007  1
  H+  H4  1  -0.02971354  0.35824492  0.17397478  1
  H+  H5  1  0.95973654  0.54766615  0.65974496  1
  H+  H6  1  0.15110053  0.83864175  0.93870720  1
  H+  H7  1  0.22104265  0.86868824  0.99374776  1
  H+  H8  1  0.67001850  0.58089562  0.53521968  1
  H+  H9  1  0.63213492  0.60259354  -0.01754252  1
  H+  H10  1  0.63961736  0.77246624  0.32321488  1
  H+  H11  1  0.33802473  0.41081807  0.75459191  1
  H+  H12  1  0.62836784  0.02070736  0.98382699  1
  H+  H13  1  0.09626525  0.44737238  0.01684973  1
  H+  H14  1  0.38871918  0.51726774  0.82824646  1
  H+  H15  1  0.62088906  -0.00962768  0.49550314  1
  H+  H16  1  0.66806913  0.30909350  0.56553853  1
  H+  H17  1  0.88345815  0.87460566  0.66942729  1
  H+  H18  1  0.42061442  0.84850875  0.63452137  1
  H+  H19  1  0.54538495  0.62465006  0.83671076  1
  H+  H20  1  0.86948807  0.38628640  0.49087936  1
  H+  H21  1  0.12107439  0.01609281  0.48414414  1
  H+  H22  1  0.33687386  0.16865401  0.39715418  1
  H+  H23  1  0.40888773  0.03854711  0.69858100  1
  H+  H24  1  0.77782580  0.13547551  0.49492446  1
  H+  H25  1  0.73840909  0.11640569  0.65905108  1
  H+  H26  1  0.13486538  0.59936228  0.16407089  1
  H+  H27  1  0.82764406  0.92483615  0.73920572  1
  H+  H28  1  0.00042843  0.55115592  0.08800755  1
  H+  H29  1  0.20952761  0.87978051  0.35172718  1
  H+  H30  1  0.01260228  0.12471148  0.47879100  1
  H+  H31  1  0.48447204  0.12222918  0.17358972  1
  H+  H32  1  0.79422845  0.84794580  0.82994379  1
  H+  H33  1  0.41036549  0.59188926  0.65112091  1
  H+  H34  1  0.09592978  0.78146549  0.12835753  1
  H+  H35  1  0.39641421  0.88656529  -0.05076832  1
  H+  H36  1  0.51948925  0.87394052  0.34398606  1
  H+  H37  1  0.12904528  0.00977888  1.01638632  1
  H+  H38  1  0.41084013  0.95999922  0.50274212  1
  H+  H39  1  0.89119555  0.27031553  0.50395680  1
  H+  H40  1  0.60322690  0.65450625  0.50041004  1
  H+  H41  1  0.02629567  0.65646422  0.32375903  1
  H+  H42  1  0.14213745  0.51546029  0.31536174  1
  H+  H43  1  0.44702054  0.72175064  0.68016619  1
  H+  H44  1  0.89374420  0.78355930  0.51207357  1
  H+  H45  1  0.09936746  0.36073344  0.02006732  1
  H+  H46  1  0.10771872  0.62701916  0.47690187  1
  H+  H47  1  0.17833514  0.85384171  0.50471781  1
  H+  H48  1  0.61843229  0.09534592  0.31988501  1
  H+  H49  1  0.63386251  0.35475854  0.16972968  1
  H+  H50  1  1.00746035  0.13402824  0.66048613  1
  H+  H51  1  0.10654388  0.73758442  0.63283750  1
  H+  H52  1  0.77570345  0.89793636  0.15788524  1
  H+  H53  1  0.21786350  0.59936100  0.51262593  1
  H+  H54  1  0.51330665  0.13147714  1.00618220  1
  H+  H55  1  0.38312175  0.36182254  0.84703243  1
  H+  H56  1  0.02126480  0.37139605  0.48678097  1
  H+  H57  1  0.40200216  0.61223257  0.84217090  1
  H+  H58  1  0.36813885  0.62025568  0.17915842  1
  H+  H59  1  0.22745988  0.11731188  0.01254897  1
  H+  H60  1  0.15493293  0.35794990  0.62785340  1
  H+  H61  1  0.34066811  0.13203056  0.67052090  1
  H+  H62  1  0.10930111  0.62474417  0.70744812  1
  H+  H63  1  0.35849955  0.22786457  0.67182778  1
  H+  H64  1  0.64659653  0.60575327  0.82606181  1
  H+  H65  1  0.11585986  0.24554815  0.47780004  1
  H+  H66  1  0.86319593  0.39179044  0.16236064  1
  H+  H67  1  0.77331973  0.38796245  0.15489668  1
  H+  H68  1  0.61537670  0.22893240  0.15475708  1
  H+  H69  1  0.45106716  0.85846137  0.53905043  1
  H+  H70  1  0.30195572  0.84625535  0.35739879  1
  H+  H71  1  0.22302240  0.11657206  0.49368624  1
  H+  H72  1  0.35744801  0.98169411  -0.00415497  1
  H+  H73  1  0.27294288  0.36755186  0.48221060  1
  H+  H74  1  0.21751115  0.11880546  0.66761821  1
  H+  H75  1  0.12306115  0.78794578  0.33651298  1
  H+  H76  1  0.12504250  0.25085306  1.01838152  1
  H+  H77  1  0.79910459  0.64523234  0.47889363  1
  H+  H78  1  0.61655621  0.14701079  0.82372193  1
  H+  H79  1  0.27060069  0.38683916  0.80715479  1
  H+  H80  1  0.87034708  0.23357298  0.00115420  1
  H+  H81  1  0.12402386  0.11912966  0.66364368  1
  H+  H82  1  0.67424355  0.85120306  0.22842230  1
  H+  H83  1  0.01763650  0.91000050  0.33347814  1
  H+  H84  1  0.89664750  0.62561451  0.32158211  1
  H+  H85  1  0.09830234  0.71125916  0.47772897  1
  H+  H86  1  0.27975324  0.36559228  0.65711465  1
  H+  H87  1  0.91000544  0.50621383  1.01431456  1
  H+  H88  1  0.66807110  0.32332040  0.22527248  1
  H+  H89  1  0.20801437  0.59771968  0.64934557  1
  H+  H90  1  0.09105808  0.90059072  0.47482378  1
  H+  H91  1  0.38065538  0.35438357  0.00300293  1
  H+  H92  1  0.35865152  0.14752504  0.50025301  1
  H+  H93  1  0.71715530  0.10879058  0.98949361  1
  H+  H94  1  0.88311475  0.02462248  0.66244418  1
  H+  H95  1  0.24030804  0.11039182  0.17664915  1
  H+  H96  1  0.39420860  0.82387673  0.70573727  1
  H+  H97  1  0.82260808  0.91418537  0.43445126  1
  H+  H98  1  0.43897527  0.83021785  0.21558862  1
  H+  H99  1  0.47535959  0.35515534  0.51047562  1
  H+  H100  1  0.27547853  0.05821347  0.13932601  1
  H+  H101  1  0.42790053  0.57639653  0.22733799  1
  H+  H102  1  0.62335288  0.78259476  0.50388603  1
  H+  H103  1  0.36297675  0.25481574  0.16262322  1
  H+  H104  1  0.35493764  0.23191870  0.49700249  1
  H+  H105  1  0.40729040  0.50039364  -0.01690948  1
  H+  H106  1  0.86369488  0.73222705  0.68739496  1
  H+  H107  1  0.64611485  0.15083866  0.66086191  1
  H+  H108  1  0.83076170  0.01410175  0.86417143  1
  H+  H109  1  0.82410760  0.43801310  0.68364487  1
  H+  H110  1  0.47818950  0.87518625  0.96232442  1
  H+  H111  1  0.84611727  0.63985010  0.01541321  1
  H+  H112  1  0.13192580  0.26132436  0.63452487  1
  H+  H113  1  0.15853661  0.54341917  0.82345421  1
  H+  H114  1  0.88300467  1.02721784  0.17026876  1
  H+  H115  1  0.11419989  0.45801660  0.48318107  1
  H+  H116  1  0.05408143  0.49090800  0.71475366  1
  H+  H117  1  0.77203277  0.89670440  0.67798164  1
  H+  H118  1  0.97217288  0.10888557  0.32064064  1
  H+  H119  1  0.10548077  0.91112956  0.69230224  1
  H+  H120  1  0.88645768  0.75232111  0.33679064  1
  H+  H121  1  0.88889246  0.11025342  0.50625937  1
  H+  H122  1  0.87378263  0.36343048  0.85695427  1
  H+  H123  1  0.87994146  0.14434185  0.34087941  1
  H+  H124  1  0.60910508  0.47281542  1.01351357  1
  H+  H125  1  0.20099775  0.65264548  0.94639393  1
  H+  H126  1  0.27864629  0.14135433  0.83491779  1
  H+  H127  1  0.38621807  0.27575169  0.84777636  1
  H+  H128  1  0.89959210  0.37748844  0.32517953  1
  H+  H129  1  0.14502490  0.27501854  0.17303198  1
  H+  H130  1  0.35970013  0.38390638  0.15467519  1
  H+  H131  1  0.60424480  0.13431235  1.00244592  1
  H+  H132  1  0.38149249  0.98497932  0.17523885  1
  H+  H133  1  0.14123378  0.03642325  0.27986550  1
  H+  H134  1  -0.03372154  0.37764286  0.66032942  1
  H+  H135  1  0.62335154  0.73951612  0.68947629  1
  H+  H136  1  0.72721790  0.61576915  0.68614386  1
  H+  H137  1  0.26053749  0.88454816  0.85061412  1
  H+  H138  1  0.63949197  0.34838377  0.51073120  1
  H+  H139  1  0.63412699  0.85795310  0.33085725  1
  H+  H140  1  0.79603082  0.61965214  0.83290285  1
  H+  H141  1  0.01085617  0.90208686  0.68145937  1
  H+  H142  1  -0.00152078  0.60767051  0.14203163  1
  H+  H143  1  0.48448062  0.35387158  0.67044163  1
  H+  H144  1  0.61571566  0.89228016  0.49568360  1
  H+  H145  1  0.69611306  0.08073642  0.30068496  1
  H+  H146  1  0.50584504  0.59810312  0.97499962  1
  H+  H147  1  0.07375334  0.15177458  0.08263569  1
  H+  H148  1  0.91266564  0.74707783  0.88867290  1
  H+  H149  1  0.46144434  0.16731067  0.71614288  1
  H+  H150  1  0.39239351  0.93322648  0.69206353  1
  H+  H151  1  0.36732442  0.13403152  0.34125681  1
  H+  H152  1  0.70818809  0.10276165  0.83575147  1
  H+  H153  1  0.96764467  0.88029295  0.50683097  1
  H+  H154  1  0.02707693  0.38870478  0.32551841  1
  H+  H155  1  0.84822673  0.88317059  0.49591677  1
  H+  H156  1  0.35485599  0.62874936  0.50237207  1
  H+  H157  1  0.60974133  0.88882115  -0.02001785  1
  H+  H158  1  0.12213902  -0.01296228  0.84419276  1
  H+  H159  1  0.85683154  0.97905710  0.34105671  1
  H+  H160  1  0.13832001  0.73835390  0.65612432  1
  H+  H161  1  0.11618317  0.90141724  0.01858682  1
  H+  H162  1  0.39780785  0.85389142  0.30070446  1
  H+  H163  1  0.12997967  0.11074391  1.01260663  1
  H+  H164  1  0.12436674  0.86720641  0.85201056  1
  H+  H165  1  0.64733100  0.87638908  0.16520337  1
  H+  H166  1  0.87115893  0.27287581  0.84667709  1
  H+  H167  1  0.64702136  0.03011179  0.66658964  1
  H+  H168  1  0.39770519  0.76489939  0.30656546  1
  H+  H169  1  0.67983120  0.55476592  0.29938741  1
  H+  H170  1  0.13600477  0.35201935  0.34200968  1
  H+  H171  1  0.10578937  0.90787204  0.34231458  1
  H+  H172  1  0.52119179  0.12463023  0.34071781  1
  H+  H173  1  0.58541727  0.43485934  0.23442736  1
  H+  H174  1  0.61219384  0.97741197  0.13621730  1
  H+  H175  1  0.33280580  0.86825524  0.50649876  1
  H+  H176  1  0.14213535  0.11818724  0.85973677  1
  H+  H177  1  0.63009604  0.26033831  0.32048516  1
  H+  H178  1  0.71718200  0.36892775  0.85588715  1
  H+  H179  1  0.39856665  0.06859276  0.55521269  1
  H+  H180  1  0.37901494  0.02150918  0.85847534  1
  H+  H181  1  0.32044117  0.66061143  -0.02902687  1
  H+  H182  1  0.09650574  0.21312005  0.83383120  1
  H+  H183  1  0.88174715  0.48807138  0.33705947  1
  H+  H184  1  0.60783482  0.47373633  0.68639115  1
  H+  H185  1  0.36495425  0.37727792  0.49856191  1
  H+  H186  1  0.80366512  0.16492883  0.34710160  1
  H+  H187  1  0.13081541  0.11676195  0.48746206  1
  H+  H188  1  0.71654256  0.60423223  0.99964945  1
  H+  H189  1  0.36644843  0.45629752  0.65752889  1
  H+  H190  1  0.61944262  0.26774076  0.99483478  1
  H+  H191  1  0.12910571  0.65148802  0.82150586  1
  H+  H192  1  0.39274231  0.57186266  0.42934216  1
  H+  H193  1  0.38618548  0.51826790  0.16745704  1
  H+  H194  1  0.11017816  0.56418449  0.94856029  1
  H+  H195  1  0.23296931  0.60112043  0.30880155  1
  H+  H196  1  0.08745866  0.93311015  0.08117546  1
  H+  H197  1  0.36665569  0.71843613  0.17134634  1
  H+  H198  1  0.50689945  0.36292636  0.16061382  1
  H+  H199  1  0.07146344  0.94258678  0.41331374  1
  H+  H200  1  0.40040630  0.51485424  0.32232009  1
  H+  H201  1  0.09827632  0.66329689  -0.00816169  1
  H+  H202  1  0.34481781  0.75024758  -0.05741659  1
  H+  H203  1  0.72252632  0.86942114  0.98273680  1
  H+  H204  1  0.38253584  0.61700642  1.02233306  1
  H+  H205  1  0.40294202  0.74112910  0.82126886  1
  H+  H206  1  -0.04236528  0.63850662  -0.01369033  1
  H+  H207  1  0.01891676  0.13761351  0.16876093  1
  H+  H208  1  0.40838031  0.08529761  0.93911499  1
  H+  H209  1  0.61095393  0.73025790  -0.02156708  1
  H+  H210  1  0.86047183  0.12441572  1.01231316  1
  H+  H211  1  0.60697459  0.44465481  0.45845722  1
  H+  H212  1  0.40484791  0.76159701  0.55802377  1
  H+  H213  1  0.53091855  0.14121226  0.49823408  1
  H+  H214  1  0.30788380  0.95039670  0.69453976  1
  H+  H215  1  0.70150577  0.31045955  0.67112450  1
  H+  H216  1  0.01266976  0.38452279  0.84916297  1
  H+  H217  1  0.51983672  0.38378141  1.01693047  1
  H+  H218  1  0.64066472  0.87596786  0.66722544  1
  H+  H219  1  0.77867669  0.38155238  0.49304192  1
  H+  H220  1  0.88430840  0.87444436  0.32538218  1
  H+  H221  1  0.53567283  0.91145508  0.68724742  1
  H+  H222  1  0.22385640  0.35074881  0.34354780  1
  H+  H223  1  0.11112609  0.21933138  0.34030586  1
  H+  H224  1  0.35429195  0.22490933  0.01742356  1
  H+  H225  1  0.18085607  0.84483136  0.66340633  1
  H+  H226  1  0.88196739  0.64208096  0.49725299  1
  H+  H227  1  0.14127383  0.79171471  0.13365511  1
  H+  H228  1  0.34405238  0.67387929  0.67456032  1
  H+  H229  1  0.38931946  0.11133035  0.18149852  1
  H+  H230  1  0.63579359  0.64566297  0.33386771  1
  H+  H231  1  0.88196131  0.51737828  0.50375106  1
  H+  H232  1  0.76667844  0.13718153  0.15602837  1
  H+  H233  1  0.14312084  0.36194265  0.17587413  1
  H+  H234  1  0.96456419  0.33732177  1.00014694  1
  H+  H235  1  0.26779952  0.62454784  0.17737725  1
  H+  H236  1  0.62279711  0.22107185  0.49108702  1
  H+  H237  1  0.10832793  0.13561406  0.17323754  1
  H+  H238  1  -0.06205816  0.09598214  0.85719071  1
  H+  H239  1  0.49187004  0.60533803  0.32176177  1
  H+  H240  1  0.38574917  1.01596331  0.32737461  1
  H+  H241  1  0.84661573  0.88072736  0.00505604  1
  H+  H242  1  0.08385115  0.64574767  0.88015662  1
  H+  H243  1  0.88202980  1.02015444  0.00169009  1
  H+  H244  1  0.87024439  0.61304211  0.17064335  1
  H+  H245  1  0.88287077  0.78546409  0.17442803  1
  H+  H246  1  0.10730907  0.44656057  0.69403977  1
  H+  H247  1  0.82777825  0.35720400  0.70026827  1
  H+  H248  1  0.90642189  0.08197697  0.26518845  1
  H+  H249  1  0.12318932  0.77529906  0.85382790  1
  H+  H250  1  0.42180096  0.65492715  0.03552649  1
  H+  H251  1  0.85641639  0.22759108  0.15870890  1
  H+  H252  1  0.38724603  0.11365837  0.84974209  1
  H+  H253  1  0.63584245  0.65799964  0.13623236  1
  H+  H254  1  0.37687042  0.10978699  1.00220325  1
  H+  H255  1  0.36480722  0.37595679  0.33058547  1
  H+  H256  1  0.96975184  0.86172593  0.97676691  1
  H+  H257  1  0.45440250  0.86817570  0.86264182  1
  H+  H258  1  0.39505143  0.35252687  0.66126627  1
  H+  H259  1  0.61742051  0.64884566  0.69563043  1
  H+  H260  1  0.90259637  0.28851887  0.32728079  1
  H+  H261  1  0.40789823  0.32348242  0.94374109  1
  H+  H262  1  0.86985432  0.14465834  0.67114106  1
  H+  H263  1  0.86485062  0.23072169  0.67059793  1
  H+  H264  1  0.11364733  0.76385917  0.00760027  1
  H+  H265  1  0.81309962  0.67572887  0.10709842  1
  H+  H266  1  0.62861562  0.11263072  0.15798483  1
  H+  H267  1  0.12189534  0.35754179  0.83573008  1
  H+  H268  1  0.51311127  0.64238939  0.47997130  1
  H+  H269  1  1.01603790  0.12352546  1.01945401  1
  H+  H270  1  0.97308641  0.60172285  0.50389331  1
  H+  H271  1  0.58293992  0.42126961  0.74506019  1
  H+  H272  1  0.24804283  0.62869997  0.81380029  1
  H+  H273  1  0.62968171  0.34778162  0.31369374  1
  H+  H274  1  0.84902198  0.72784457  0.00994178  1
  H+  H275  1  0.76939028  0.88812099  0.34004080  1
  H+  H276  1  0.39443483  0.85574575  0.16500803  1
  H+  H277  1  0.52938180  0.88402266  0.13673979  1
  H+  H278  1  0.46565951  0.34520266  0.30224331  1
  H+  H279  1  0.84933507  0.14059089  0.83930661  1
  H+  H280  1  0.11147135  0.46855272  0.16635961  1
  H+  H281  1  0.60114515  0.96537860  0.34028016  1
  H+  H282  1  0.37383381  0.50764616  0.48176886  1
  H+  H283  1  0.63356115  0.27348443  0.84593075  1
  H+  H284  1  0.24198541  0.90548897  0.20376943  1
  H+  H285  1  0.12117663  0.34743091  0.48305544  1
  H+  H286  1  0.65180153  0.07937083  0.89511104  1
  H+  H287  1  0.84273545  0.48200901  0.83731010  1
  H+  H288  1  0.82725950  0.16045563  0.06934120  1
  H+  H289  1  0.08162461  0.41288448  0.38637557  1
  H+  H290  1  0.72803410  0.64166852  0.21613676  1
  H+  H291  1  0.88132435  0.11551454  0.17275111  1
  H+  H292  1  0.12074179  0.91593489  0.17277758  1
  H+  H293  1  0.31950578  0.15882700  0.07645845  1
  H+  H294  1  0.09397155  0.80649724  0.54245910  1
  H+  H295  1  0.58822419  0.67644811  0.04263497  1
  H+  H296  1  0.34985487  0.91352644  0.40835635  1
  H+  H297  1  0.39176340  0.30842072  0.22350478  1
  H+  H298  1  0.67078742  0.07923528  0.56726947  1
  H+  H299  1  0.66374427  0.84332663  0.60628513  1
  H+  H300  1  0.71631419  0.86805075  0.50486293  1
  H+  H301  1  0.91455351  0.58901250  0.26071246  1
  H+  H302  1  0.83110002  0.17134175  0.77461449  1
  H+  H303  1  0.16384342  0.57671992  0.22996676  1
  H+  H304  1  0.27207606  0.38693116  0.15754085  1
  H+  H305  1  0.07381601  0.92757247  0.78790230  1
  H+  H306  1  0.91123649  0.53833007  0.59636838  1
  H+  H307  1  0.69834085  0.86884128  0.91479407  1
  H+  H308  1  0.88520538  0.44808619  0.07255441  1
  H+  H309  1  0.58250702  0.92275797  0.43261119  1
  H+  H310  1  0.32871288  0.16775426  0.77198941  1
  H+  H311  1  0.29187571  0.69273973  0.07198998  1
  H+  H312  1  0.88242270  0.01837129  0.50429870  1
  H+  H313  1  0.55175571  0.47442992  0.28255188  1
  H+  H314  1  0.76204936  0.64228673  0.32161521  1
  H+  H315  1  0.15428714  0.30828723  0.54153695  1
  H+  H316  1  0.37873728  0.67351348  0.76943764  1
  H+  H317  1  0.64982911  0.32740110  0.92040740  1
  H+  H318  1  0.33769736  0.70035583  0.47749693  1
  H+  H319  1  0.38974122  0.54945293  0.58670074  1
  H+  H320  1  0.34285320  0.66159416  0.37202225  1
  H+  H321  1  0.97590586  0.87255576  0.17346203  1
  H+  H322  1  0.12944198  0.55510602  0.54870976  1
  H+  H323  1  0.21217043  0.92922961  0.62636327  1
  H+  H324  1  0.52399186  0.15040576  0.67718552  1
  H+  H325  1  0.55909993  0.35414460  0.43022745  1
  H+  H326  1  0.91090496  0.41073260  0.62863199  1
  H+  H327  1  0.87179508  0.52410771  0.17014310  1
  H+  H328  1  0.66251980  0.59570914  0.63162513  1
  H+  H329  1  0.27440921  0.64524136  0.06899162  1
  H+  H330  1  0.07485622  0.40240820  0.11115311  1
  H+  H331  1  0.57834623  0.91111256  0.04218371  1
  H+  H332  1  0.84395310  0.16828123  0.43818904  1
  H+  H333  1  0.53864986  0.63542754  0.14116033  1
  H+  H334  1  0.45558548  0.15486899  0.58707664  1
  H+  H335  1  0.90632983  0.08477646  0.94496200  1
  H+  H336  1  0.64350163  0.06717831  0.21454019  1
  H+  H337  1  0.13887083  0.29847851  0.95704811  1
  H+  H338  1  0.58610650  0.15536490  0.39721893  1
  H+  H339  1  0.58392357  0.96518000  0.83194375  1
  H+  H340  1  0.90950391  0.33128566  0.23100201  1
  H+  H341  1  0.85137880  0.66950167  0.74124045  1
  H+  H342  1  0.62335412  0.19894794  0.76405793  1
  H+  H343  1  0.03819134  0.59841679  0.75619827  1
  H+  H344  1  0.86702197  0.69350357  0.39661725  1
  H+  H345  1  0.17901711  0.09050021  0.91479882  1
  H+  H346  1  0.58041324  0.41541300  0.11302069  1
  H+  H347  1  0.60369723  0.67510035  0.78159720  1
  H+  H348  1  0.90265378  0.31175834  0.93834832  1
  H+  H349  1  0.91206799  0.07677509  0.59775872  1
  H+  H350  1  0.17749319  0.88880448  0.25785180  1
  H+  H351  1  0.06097726  0.41401509  0.78704774  1
  H+  H352  1  0.42208373  0.08003325  0.27046310  1
  H+  H353  1  0.92435456  0.33740699  0.55953675  1
  H+  H354  1  0.34659924  0.90062784  0.03463654  1
  H+  H355  1  0.86571173  0.89838571  0.15637982  1
  H+  H356  1  0.08022925  0.67173678  0.38341960  1
  H+  H357  1  0.59092654  0.92512263  0.74472296  1
  H+  H358  1  0.33447929  0.89877570  0.80514974  1
  H+  H359  1  0.37896389  0.25687312  0.32067427  1
  H+  H360  1  0.07434985  0.19227013  0.71319187  1
  H+  H361  1  0.04875831  0.12198782  0.79973336  1
  H+  H362  1  0.85147821  0.42757389  0.39588646  1
  H+  H363  1  0.80993021  0.41098081  0.78572719  1
  H+  H364  1  0.06991470  0.14930467  0.41456386  1
  H+  H365  1  0.22878711  0.68999690  0.63198892  1
  H+  H366  1  0.33523460  0.42208846  0.06802947  1
  H+  H367  1  0.34766497  0.40875099  0.39357180  1
  H+  H368  1  0.31828864  0.91701982  0.12779309  1
  H+  H369  1  0.59546701  0.66674081  0.39313108  1
  H+  H370  1  0.57717193  0.16729347  0.09562316  1
  H+  H371  1  0.43637865  0.55320608  0.91293993  1
  H+  H372  1  0.91583146  0.84619579  0.61028852  1
  H+  H373  1  0.63864175  0.11061335  0.50853150  1
  H+  H374  1  0.91713062  0.84944891  0.26401032  1
  H+  H375  1  0.82509810  0.91425785  0.06663245  1
  H+  H376  1  0.10662402  0.13201754  0.31672004  1
  H+  H377  1  0.89045039  0.59654831  0.93326663  1
  H+  H378  1  0.62217605  0.36014959  -0.00281140  1
  H+  H379  1  0.06449943  0.66779655  0.06162010  1
  H+  H380  1  -0.04870652  0.63006279  0.83642521  1
  H+  H381  1  0.18800569  0.34679811  0.87644921  1
  H+  H382  1  0.10549832  0.99394627  0.17039124  1
  H+  H383  1  0.42418362  0.32956073  0.57423169  1
  O2-  O384  1  0.07862486  0.16441387  0.15230654  1
  O2-  O385  1  0.07257118  0.15667514  0.46097625  1
  O2-  O386  1  0.06821538  0.14961905  0.83913348  1
  O2-  O387  1  0.07774653  0.40622750  0.15603805  1
  O2-  O388  1  0.08203504  0.39689622  0.46990961  1
  O2-  O389  1  0.07157079  0.41193028  0.83112213  1
  O2-  O390  1  0.03983354  0.60394988  0.11356254  1
  O2-  O391  1  0.07023069  0.65042077  0.46583827  1
  O2-  O392  1  0.08371892  0.66343024  0.83759155  1
  O2-  O393  1  0.08272557  0.93427455  0.15175984  1
  O2-  O394  1  0.07044086  0.94047169  0.46347406  1
  O2-  O395  1  0.08774681  0.92636356  0.83072611  1
  O2-  O396  1  0.29674410  0.11759070  0.15194607  1
  O2-  O397  1  0.32555683  0.17146593  0.48123446  1
  O2-  O398  1  0.33693264  0.16839273  0.81619077  1
  O2-  O399  1  0.33457990  0.41981267  0.14189733  1
  O2-  O400  1  0.33523452  0.40420746  0.47659092  1
  O2-  O401  1  0.33272942  0.41643141  0.79928722  1
  O2-  O402  1  0.33396699  0.65511512  0.18197282  1
  O2-  O403  1  0.32947068  0.66565209  0.51374396  1
  O2-  O404  1  0.36721077  0.67880825  0.81283167  1
  O2-  O405  1  0.34699577  0.92126750  0.16622505  1
  O2-  O406  1  0.38643141  0.90320813  0.48434248  1
  O2-  O407  1  0.32389259  0.91374637  0.84530253  1
  O2-  O408  1  0.57967784  0.16686226  0.14132822  1
  O2-  O409  1  0.58695373  0.15892926  0.47908669  1
  O2-  O410  1  0.60378616  0.19054497  0.80636075  1
  O2-  O411  1  0.57026221  0.39977449  0.15714647  1
  O2-  O412  1  0.57408026  0.38399963  0.46923533  1
  O2-  O413  1  0.63052873  0.48669855  0.82159029  1
  O2-  O414  1  0.59089095  0.66533183  0.11657547  1
  O2-  O415  1  0.57593077  0.67919742  0.47442359  1
  O2-  O416  1  0.60620607  0.65801762  0.82501698  1
  O2-  O417  1  0.58859435  0.91769087  0.12061023  1
  O2-  O418  1  0.58698362  0.92696323  0.47954002  1
  O2-  O419  1  0.56061459  0.90439942  0.81708306  1
  O2-  O420  1  0.82797345  0.16699400  0.14261332  1
  O2-  O421  1  0.83970456  0.16563898  0.48368279  1
  O2-  O422  1  0.82326823  0.17317395  0.81885303  1
  O2-  O423  1  0.83579398  0.42354684  0.14500229  1
  O2-  O424  1  0.83881649  0.41715772  0.47882295  1
  O2-  O425  1  0.81905131  0.41989648  0.83043658  1
  O2-  O426  1  0.81675615  0.67808867  0.15336640  1
  O2-  O427  1  0.86128698  0.68141355  0.48073267  1
  O2-  O428  1  0.85995938  0.65626275  0.82746648  1
  O2-  O429  1  0.83603953  0.92799331  0.13932547  1
  O2-  O430  1  0.81881844  0.91377237  0.48020952  1
  O2-  O431  1  0.82258820  0.90861725  0.81856058  1
  O2-  O432  1  0.15873690  0.08965472  0.19919674  1
  O2-  O433  1  0.15906405  0.08422222  0.50359730  1
  O2-  O434  1  0.17902302  0.09324259  0.86997272  1
  O2-  O435  1  0.18004685  0.33658959  0.18395515  1
  O2-  O436  1  0.15048162  0.30973824  0.49537388  1
  O2-  O437  1  0.15579403  0.32630652  0.83865008  1
  O2-  O438  1  0.16969218  0.57723622  0.18286811  1
  O2-  O439  1  0.15414578  0.56363614  0.50808829  1
  O2-  O440  1  0.18563917  0.60101587  0.80542108  1
  O2-  O441  1  0.19689198  0.91696944  0.21746620  1
  O2-  O442  1  0.11592998  0.82039269  0.50087880  1
  O2-  O443  1  0.15218218  0.83471399  0.87021855  1
  O2-  O444  1  0.42640678  0.08764440  0.19399756  1
  O2-  O445  1  0.43701377  0.12929163  0.54650967  1
  O2-  O446  1  0.41210599  0.08282227  0.87110011  1
  O2-  O447  1  0.39626561  0.31343555  0.17796096  1
  O2-  O448  1  0.41743375  0.33065546  0.52858175  1
  O2-  O449  1  0.40628832  0.33065578  0.86945947  1
  O2-  O450  1  0.41792405  0.57972740  0.18302139  1
  O2-  O451  1  0.39744005  0.57106822  0.47361474  1
  O2-  O452  1  0.42385246  0.57201667  0.85124391  1
  O2-  O453  1  0.42534298  0.82326097  0.17136129  1
  O2-  O454  1  0.44394511  0.82021843  0.57303944  1
  O2-  O455  1  0.46562841  0.86429758  0.81815435  1
  O2-  O456  1  0.65651839  0.07830106  0.17085161  1
  O2-  O457  1  0.66875779  0.07874379  0.52144910  1
  O2-  O458  1  0.64748578  0.07359313  0.84981574  1
  O2-  O459  1  0.66901922  0.32742554  0.17961850  1
  O2-  O460  1  0.67239185  0.31963380  0.52121611  1
  O2-  O461  1  0.65558449  0.33088650  0.86804864  1
  O2-  O462  1  0.72586285  0.64330032  0.17094681  1
  O2-  O463  1  0.66634103  0.63028446  0.54940362  1
  O2-  O464  1  0.68237369  0.57199312  0.82577486  1
  O2-  O465  1  0.68238182  0.85436932  0.18402249  1
  O2-  O466  1  0.65531044  0.84277843  0.51976990  1
  O2-  O467  1  0.77064886  0.93871729  0.85171564  1
  O2-  O468  1  0.91120392  0.08591544  0.18949388  1
  O2-  O469  1  0.91976451  0.07907100  0.51871879  1
  O2-  O470  1  0.88442765  0.08539600  0.87615164  1
  O2-  O471  1  0.90815539  0.32933602  0.18536994  1
  O2-  O472  1  0.92582738  0.33302534  0.51434660  1
  O2-  O473  1  0.90301036  0.33060944  0.86775672  1
  O2-  O474  1  0.90425708  0.58615157  0.18288943  1
  O2-  O475  1  0.91453784  0.57674705  0.52201707  1
  O2-  O476  1  0.89089977  0.59862256  0.84994427  1
  O2-  O477  1  0.91560466  0.84616174  0.18860098  1
  O2-  O478  1  0.91192689  0.84252375  0.52695393  1
  O2-  O479  1  0.95476618  0.77462207  0.92191694  1
  O2-  O480  1  0.16301919  0.09604424  0.26672227  1
  O2-  O481  1  0.15384945  0.08502367  0.65535690  1
  O2-  O482  1  0.16396306  0.08209422  0.99781112  1
  O2-  O483  1  0.16283561  0.31785334  0.35512102  1
  O2-  O484  1  0.17184419  0.31722388  0.61341810  1
  O2-  O485  1  0.15209309  0.31106615  1.00001022  1
  O2-  O486  1  0.17199475  0.57499733  0.29819859  1
  O2-  O487  1  0.23656711  0.65681252  0.66391440  1
  O2-  O488  1  0.13504643  0.62616832  0.94681809  1
  O2-  O489  1  0.15338194  0.85457683  0.33176414  1
  O2-  O490  1  0.20744262  0.90781494  0.66787177  1
  O2-  O491  1  0.15721101  0.84238023  0.98608939  1
  O2-  O492  1  0.41992053  0.07680989  0.31604919  1
  O2-  O493  1  0.45950263  0.13111925  0.68218923  1
  O2-  O494  1  0.40657263  0.07995867  0.98638621  1
  O2-  O495  1  0.40265802  0.31532549  0.29948719  1
  O2-  O496  1  0.42545478  0.32047636  0.64959104  1
  O2-  O497  1  0.40820817  0.32110346  0.98981119  1
  O2-  O498  1  0.43078193  0.57612055  0.30723808  1
  O2-  O499  1  0.41504262  0.54902917  0.62555353  1
  O2-  O500  1  0.45529316  0.54161543  0.95552405  1
  O2-  O501  1  0.43309879  0.82731157  0.29465173  1
  O2-  O502  1  0.41938813  0.87145948  0.67681159  1
  O2-  O503  1  0.42512998  0.85451198  0.93672783  1
  O2-  O504  1  0.63399270  0.05427351  0.29901984  1
  O2-  O505  1  0.67759694  0.08615644  0.64368468  1
  O2-  O506  1  0.65813600  0.08377774  0.97354060  1
  O2-  O507  1  0.65851310  0.31713029  0.30038562  1
  O2-  O508  1  0.65861238  0.26732491  0.64195530  1
  O2-  O509  1  0.64834330  0.32742779  0.97804070  1
  O2-  O510  1  0.70577302  0.61765166  0.29937258  1
  O2-  O511  1  0.66463631  0.58643279  0.67517190  1
  O2-  O512  1  0.65933112  0.56698707  0.98155188  1
  O2-  O513  1  0.66798589  0.83439035  0.31216498  1
  O2-  O514  1  0.67067797  0.84622341  0.65083143  1
  O2-  O515  1  0.67179818  0.84546718  0.95520291  1
  O2-  O516  1  0.90943633  0.08292265  0.31106677  1
  O2-  O517  1  0.91516985  0.08375791  0.64310559  1
  O2-  O518  1  0.91487055  0.08277315  0.99117506  1
  O2-  O519  1  0.92682581  0.34423211  0.30626024  1
  O2-  O520  1  0.91341876  0.35690188  0.63550313  1
  O2-  O521  1  0.90462027  0.30264971  0.98405254  1
  O2-  O522  1  0.92254422  0.59194423  0.30577314  1
  O2-  O523  1  0.91040500  0.50786108  0.63456475  1
  O2-  O524  1  0.89767558  0.59499897  0.97788444  1
  O2-  O525  1  0.92002850  0.85013555  0.30980868  1
  O2-  O526  1  0.91892619  0.84886947  0.65536174  1
  O2-  O527  1  0.91635829  0.81755538  0.95785528  1
  O2-  O528  1  0.07647616  0.15147759  0.03578047  1
  O2-  O529  1  0.07581313  0.15375895  0.34213176  1
  O2-  O530  1  0.07282659  0.17138328  0.67201283  1
  O2-  O531  1  0.06410174  0.38826238  0.03109264  1
  O2-  O532  1  0.08771513  0.41465152  0.34184467  1
  O2-  O533  1  0.05202349  0.43410776  0.71057762  1
  O2-  O534  1  0.07314568  0.69322541  0.01754390  1
  O2-  O535  1  0.08490475  0.69328386  0.34169507  1
  O2-  O536  1  0.04930018  0.58174199  0.71607857  1
  O2-  O537  1  0.08980506  0.93533088  0.03410237  1
  O2-  O538  1  0.07768383  0.94351740  0.35098497  1
  O2-  O539  1  0.07166046  0.93953290  0.69969166  1
  O2-  O540  1  0.31979119  0.16241556  0.03120274  1
  O2-  O541  1  0.33935604  0.16749285  0.35251120  1
  O2-  O542  1  0.31563444  0.16579602  0.68541579  1
  O2-  O543  1  0.33433345  0.41860590  0.02194057  1
  O2-  O544  1  0.34546092  0.41452778  0.34899567  1
  O2-  O545  1  0.33635482  0.39704676  0.67674764  1
  O2-  O546  1  0.29861447  0.68850668  -0.05578859  1
  O2-  O547  1  0.35041951  0.66263591  0.32821533  1
  O2-  O548  1  0.39346639  0.66962530  0.69030037  1
  O2-  O549  1  0.32619269  0.91547391  -0.00177384  1
  O2-  O550  1  0.32925227  0.90759516  0.36592821  1
  O2-  O551  1  0.36922278  0.97290009  0.70806399  1
  O2-  O552  1  0.57465450  0.16409790  0.01963454  1
  O2-  O553  1  0.58368590  0.15279659  0.35211254  1
  O2-  O554  1  0.62092121  0.18736669  0.67748659  1
  O2-  O555  1  0.57986714  0.41303168  0.03202590  1
  O2-  O556  1  0.58179266  0.44207271  0.27911848  1
  O2-  O557  1  0.57663566  0.41311852  0.70068700  1
  O2-  O558  1  0.58286997  0.67212905  -0.00305802  1
  O2-  O559  1  0.59485952  0.66449010  0.34809350  1
  O2-  O560  1  0.58997806  0.68249954  0.70841276  1
  O2-  O561  1  0.57620735  0.91495075  -0.00312720  1
  O2-  O562  1  0.57719683  0.90947302  0.36297200  1
  O2-  O563  1  0.59582634  0.93296354  0.69898273  1
  O2-  O564  1  0.82890868  0.15717885  0.02310149  1
  O2-  O565  1  0.86072960  0.18256941  0.36246718  1
  O2-  O566  1  0.83804751  0.17253688  0.68747288  1
  O2-  O567  1  0.93160365  0.47807944  0.04194512  1
  O2-  O568  1  0.85861394  0.42820177  0.35148631  1
  O2-  O569  1  0.79389102  0.38506934  0.70882220  1
  O2-  O570  1  0.81978930  0.67287686  0.03246115  1
  O2-  O571  1  0.86019037  0.69145758  0.35207864  1
  O2-  O572  1  0.83592042  0.67115093  0.69853638  1
  O2-  O573  1  0.82164531  0.91422289  0.02041507  1
  O2-  O574  1  0.82889963  0.91929953  0.35765471  1
  O2-  O575  1  0.83267568  0.92777308  0.69379248  1
