# generated using pymatgen
data_H2O
_symmetry_space_group_name_H-M   'P 1'
_cell_length_a   18.01135165
_cell_length_b   18.00409089
_cell_length_c   22.01441961
_cell_angle_alpha   89.99922644
_cell_angle_beta   89.99743961
_cell_angle_gamma   120.01967075
_symmetry_Int_Tables_number   1
_chemical_formula_structural   H2O
_chemical_formula_sum   'H384 O192'
_cell_volume   6181.14960251
_cell_formula_units_Z   192
loop_
 _symmetry_equiv_pos_site_id
 _symmetry_equiv_pos_as_xyz
  1  'x, y, z'
loop_
 _atom_type_symbol
 _atom_type_oxidation_number
  H+  1.0
  O2-  -2.0
loop_
 _atom_site_type_symbol
 _atom_site_label
 _atom_site_symmetry_multiplicity
 _atom_site_fract_x
 _atom_site_fract_y
 _atom_site_fract_z
 _atom_site_occupancy
  H+  H0  1  0.71246892  0.36589867  0.32064843  1
  H+  H1  1  0.28852673  0.65120963  0.49540529  1
  H+  H2  1  0.78122898  0.66387055  0.34371056  1
  H+  H3  1  0.47650026  0.85804424  0.85148917  1
  H+  H4  1  0.27402235  0.87394694  0.32347298  1
  H+  H5  1  0.14894085  0.27797711  0.18182243  1
  H+  H6  1  0.87926743  0.63999085  0.65760406  1
  H+  H7  1  0.72097497  0.11551623  0.16685053  1
  H+  H8  1  0.36462867  0.73019838  0.00147611  1
  H+  H9  1  0.10820395  0.38923423  0.01784107  1
  H+  H10  1  0.08983027  0.62207039  0.33756730  1
  H+  H11  1  0.61936825  0.76641387  0.16717123  1
  H+  H12  1  0.14890873  0.28432539  0.65818101  1
  H+  H13  1  0.75548293  0.62338547  0.49340896  1
  H+  H14  1  0.24356575  0.79091880  0.15617911  1
  H+  H15  1  0.17731881  0.33054978  0.59341524  1
  H+  H16  1  0.60272067  0.37742475  0.31905281  1
  H+  H17  1  0.88559393  0.89930890  0.52282577  1
  H+  H18  1  0.22739647  0.11170328  0.83162996  1
  H+  H19  1  0.65565282  0.07318874  0.61387124  1
  H+  H20  1  0.61017345  0.14173426  0.29810543  1
  H+  H21  1  0.08257344  0.33527793  0.84123018  1
  H+  H22  1  0.87910188  0.62775549  0.32831859  1
  H+  H23  1  0.23022541  0.86783930  0.84388212  1
  H+  H24  1  0.52649888  0.12275950  0.69145290  1
  H+  H25  1  0.10731096  0.50253868  0.33056128  1
  H+  H26  1  0.88669383  0.04905903  0.82912625  1
  H+  H27  1  0.85955105  0.67621365  0.83647681  1
  H+  H28  1  0.98660070  0.21619852  0.55099193  1
  H+  H29  1  0.88069284  0.59538411  -0.01159559  1
  H+  H30  1  0.35871256  0.47183910  0.49524030  1
  H+  H31  1  0.27095889  0.01077899  0.62390072  1
  H+  H32  1  0.15297187  0.85888844  0.66296825  1
  H+  H33  1  0.23224922  0.11966786  0.66676059  1
  H+  H34  1  0.28199979  0.39396503  0.65860580  1
  H+  H35  1  0.77139647  0.42712538  0.67176721  1
  H+  H36  1  0.67559545  0.16544844  0.50604723  1
  H+  H37  1  0.66727787  0.19390867  0.70020377  1
  H+  H38  1  0.14479296  0.01641612  0.31792856  1
  H+  H39  1  0.72146404  0.63070741  0.84247961  1
  H+  H40  1  0.38787978  0.19885380  0.19243302  1
  H+  H41  1  0.97589877  0.61751271  0.99780613  1
  H+  H42  1  0.60848626  0.39138234  0.48171751  1
  H+  H43  1  0.78720152  0.69969703  0.67998881  1
  H+  H44  1  0.11098235  0.12625604  0.15776951  1
  H+  H45  1  0.76180105  0.26626391  0.67935597  1
  H+  H46  1  0.63103095  0.00756516  0.84700399  1
  H+  H47  1  0.87704669  0.36859212  0.50791626  1
  H+  H48  1  0.89766298  0.90947170  0.33883023  1
  H+  H49  1  0.13244723  0.75838264  0.32252755  1
  H+  H50  1  0.62910784  0.27261038  0.30036841  1
  H+  H51  1  0.92436389  0.09371751  0.26217298  1
  H+  H52  1  0.23452069  0.36000328  0.16361679  1
  H+  H53  1  0.35309473  0.66805197  0.73880945  1
  H+  H54  1  0.36738963  0.45578975  0.15450991  1
  H+  H55  1  0.46594659  0.58685078  0.17201659  1
  H+  H56  1  0.76559705  0.21619285  0.77080696  1
  H+  H57  1  0.00031967  0.11699783  -0.01893844  1
  H+  H58  1  0.60185913  0.66341858  0.71832403  1
  H+  H59  1  0.90255739  0.80758078  1.01322081  1
  H+  H60  1  0.73954940  0.64381367  0.18389954  1
  H+  H61  1  0.36249745  0.88242873  0.48413453  1
  H+  H62  1  0.89302555  0.26212749  0.32253930  1
  H+  H63  1  0.60834537  0.23041172  0.14863107  1
  H+  H64  1  0.62500646  0.84112935  0.45372457  1
  H+  H65  1  0.96525144  0.09542731  0.16521312  1
  H+  H66  1  0.58719932  0.71002810  0.33825336  1
  H+  H67  1  0.85242697  0.97312835  0.16131036  1
  H+  H68  1  0.75836380  -0.01081846  0.50418565  1
  H+  H69  1  0.39530194  0.62925764  -0.01793508  1
  H+  H70  1  0.96701109  0.35747509  0.84604567  1
  H+  H71  1  0.36344232  0.37639180  0.34135687  1
  H+  H72  1  0.85400659  0.69653438  -0.02909962  1
  H+  H73  1  0.14393414  0.25520492  0.50755045  1
  H+  H74  1  0.61438754  0.64821485  0.16627209  1
  H+  H75  1  0.97522355  0.87932812  0.84703229  1
  H+  H76  1  0.38736372  0.29190700  0.26581897  1
  H+  H77  1  0.12045397  0.91804971  0.00288528  1
  H+  H78  1  0.84431507  0.40696512  0.34244311  1
  H+  H79  1  0.45515227  0.87965073  0.00872312  1
  H+  H80  1  0.65543985  0.11913723  0.49694737  1
  H+  H81  1  0.37862882  0.48071645  -0.00498006  1
  H+  H82  1  0.10604226  0.91871452  0.38677816  1
  H+  H83  1  0.86698617  0.46396206  0.01069813  1
  H+  H84  1  0.02604461  0.40920608  0.49708812  1
  H+  H85  1  0.35828698  0.96582001  0.82587197  1
  H+  H86  1  0.13103699  -0.02248136  0.48151704  1
  H+  H87  1  0.32518048  0.37080055  0.88840428  1
  H+  H88  1  0.63276109  0.62743756  0.84953666  1
  H+  H89  1  0.60242237  0.86293115  0.83699200  1
  H+  H90  1  0.89146696  0.78385402  0.16788034  1
  H+  H91  1  1.00229236  0.15131511  0.51193446  1
  H+  H92  1  0.38423705  0.64428120  0.67621715  1
  H+  H93  1  0.12455838  0.51135640  0.16422741  1
  H+  H94  1  0.53456974  0.38359668  0.83197831  1
  H+  H95  1  0.38652913  0.86770583  0.28683493  1
  H+  H96  1  0.59292766  0.11761312  0.83940306  1
  H+  H97  1  0.16148050  0.09457139  0.92187857  1
  H+  H98  1  0.75539541  0.88384699  0.47368020  1
  H+  H99  1  0.90318014  0.87334036  0.66983993  1
  H+  H100  1  0.06160798  0.57020453  0.13609849  1
  H+  H101  1  0.10523217  0.11724109  0.50015254  1
  H+  H102  1  0.66960066  0.36532773  0.56721764  1
  H+  H103  1  0.46236129  0.34249686  0.31531316  1
  H+  H104  1  0.39049487  0.77211540  0.66644489  1
  H+  H105  1  0.13745394  0.10592326  0.66031114  1
  H+  H106  1  0.39039008  0.36264112  0.65278560  1
  H+  H107  1  0.58655059  0.42242445  0.11096563  1
  H+  H108  1  0.51161911  0.86140710  0.46514823  1
  H+  H109  1  0.39802223  0.33309293  0.85284533  1
  H+  H110  1  0.86373588  0.64023916  0.15760684  1
  H+  H111  1  0.51957006  0.13931992  0.29944051  1
  H+  H112  1  0.87638261  0.54589217  0.66379562  1
  H+  H113  1  0.02578985  0.12492064  0.81260969  1
  H+  H114  1  0.87058846  0.61446780  0.51176911  1
  H+  H115  1  0.37143917  0.08938374  0.84208764  1
  H+  H116  1  0.13495576  0.39979897  0.66313341  1
  H+  H117  1  0.47011439  0.15037988  0.17137233  1
  H+  H118  1  0.62229324  0.38356623  1.00920944  1
  H+  H119  1  0.85300622  0.95391078  0.67484402  1
  H+  H120  1  0.48440185  0.90890740  0.53159616  1
  H+  H121  1  0.70474466  0.09770582  0.00116415  1
  H+  H122  1  0.77301616  0.37731138  0.82414697  1
  H+  H123  1  0.61266805  -0.04285168  0.67936377  1
  H+  H124  1  0.15434554  0.62648819  0.84934275  1
  H+  H125  1  0.84531965  0.49480229  0.34146490  1
  H+  H126  1  0.53202079  0.67074633  0.86597033  1
  H+  H127  1  0.11460951  0.12018546  0.34406655  1
  H+  H128  1  0.61863562  0.47095448  0.00724647  1
  H+  H129  1  0.03293207  0.45853956  0.77786989  1
  H+  H130  1  0.37220936  0.20887153  0.83133593  1
  H+  H131  1  0.34861272  0.12774685  0.49231849  1
  H+  H132  1  0.49170182  0.61859354  0.65064103  1
  H+  H133  1  0.60511597  0.83761735  0.65522053  1
  H+  H134  1  0.74294005  0.85759687  0.82888066  1
  H+  H135  1  0.32521279  0.15712151  0.40386770  1
  H+  H136  1  0.09277613  0.25302855  0.84252553  1
  H+  H137  1  0.24555065  0.14950689  0.18042323  1
  H+  H138  1  0.48545353  0.88560263  0.18813499  1
  H+  H139  1  0.64355912  0.36099986  0.83857998  1
  H+  H140  1  0.97922782  0.38373112  0.16951832  1
  H+  H141  1  0.27148946  0.61923651  0.18363724  1
  H+  H142  1  0.22914724  0.34892332  0.50657286  1
  H+  H143  1  0.84331095  0.90387109  0.83180111  1
  H+  H144  1  0.38038616  0.73794840  0.50038859  1
  H+  H145  1  0.37350441  0.51320414  0.32446670  1
  H+  H146  1  0.34736701  0.10591146  1.02499615  1
  H+  H147  1  0.58716944  0.96270372  0.01298491  1
  H+  H148  1  0.88737483  0.09487013  0.66671783  1
  H+  H149  1  0.93182442  0.56832019  0.90413815  1
  H+  H150  1  0.28982097  0.39526113  0.99097187  1
  H+  H151  1  0.63716723  0.36527276  0.16400113  1
  H+  H152  1  0.77157200  0.38463756  0.15866620  1
  H+  H153  1  0.91100132  0.59083883  0.83872091  1
  H+  H154  1  0.37198325  0.20144799  1.02488473  1
  H+  H155  1  0.83831139  0.23082014  0.81807459  1
  H+  H156  1  0.24237359  0.40329120  0.83534880  1
  H+  H157  1  0.66107339  0.55627582  0.36309759  1
  H+  H158  1  0.42055299  0.84180259  0.57838229  1
  H+  H159  1  0.60346973  0.88824410  0.16527287  1
  H+  H160  1  0.53041373  0.65458204  -0.00078027  1
  H+  H161  1  0.04098827  0.36993509  0.34579212  1
  H+  H162  1  0.71185460  0.58246638  0.64087471  1
  H+  H163  1  0.85376715  0.23798268  0.65144343  1
  H+  H164  1  0.01502938  0.37807634  0.01533598  1
  H+  H165  1  0.50512051  0.62242827  0.49088717  1
  H+  H166  1  0.59196853  0.25111770  0.52334024  1
  H+  H167  1  0.04906243  0.64320381  0.83664358  1
  H+  H168  1  0.62778007  0.75568834  0.46508179  1
  H+  H169  1  0.44508997  0.49481219  0.78814483  1
  H+  H170  1  0.40009608  0.53297504  0.64636179  1
  H+  H171  1  0.34062203  0.90243543  0.37739253  1
  H+  H172  1  0.87506757  0.74812273  0.34222112  1
  H+  H173  1  0.60997605  0.98231952  0.16284667  1
  H+  H174  1  0.36473030  0.38503477  0.49687704  1
  H+  H175  1  0.03441814  0.73921387  0.05228381  1
  H+  H176  1  0.26737911  0.86884551  0.67038438  1
  H+  H177  1  0.96621021  0.62187755  0.51154547  1
  H+  H178  1  0.41398896  0.11306652  0.23257502  1
  H+  H179  1  0.33973740  -0.00681596  0.65239952  1
  H+  H180  1  0.51560564  0.88237006  0.68569307  1
  H+  H181  1  0.37190338  0.23082788  0.67244359  1
  H+  H182  1  0.23062431  0.10661061  0.32719787  1
  H+  H183  1  0.10766294  0.49553804  0.82632876  1
  H+  H184  1  0.87319873  0.51919864  0.17619185  1
  H+  H185  1  0.92921668  0.36348361  0.32808174  1
  H+  H186  1  0.78812974  0.12091258  0.48224665  1
  H+  H187  1  0.38384600  0.92229010  0.15687071  1
  H+  H188  1  0.20332596  0.64346468  0.19686951  1
  H+  H189  1  0.46186098  0.09318795  0.84763603  1
  H+  H190  1  0.85229323  0.20982829  0.01024036  1
  H+  H191  1  0.01195121  0.63958327  0.33809589  1
  H+  H192  1  0.44056045  0.06233909  -0.00358001  1
  H+  H193  1  0.15279736  0.56676486  0.27625133  1
  H+  H194  1  0.09507739  0.72125324  0.49339595  1
  H+  H195  1  0.72508595  0.11341117  0.31873877  1
  H+  H196  1  0.88123690  0.34685134  1.00285645  1
  H+  H197  1  0.62068694  0.61911498  0.65951219  1
  H+  H198  1  0.63081489  0.38062445  0.66422669  1
  H+  H199  1  -0.00267009  0.87254001  0.32271026  1
  H+  H200  1  0.58895475  0.45803089  0.31157674  1
  H+  H201  1  0.81722288  0.91660835  0.32358152  1
  H+  H202  1  0.81900620  0.14940331  0.72891614  1
  H+  H203  1  0.08802049  0.17041744  0.06527732  1
  H+  H204  1  0.13623731  0.64492799  0.67867362  1
  H+  H205  1  0.77323706  0.09943246  0.66718539  1
  H+  H206  1  0.68603664  0.83658319  0.32483122  1
  H+  H207  1  0.59111602  0.12329005  0.00233913  1
  H+  H208  1  0.61831322  0.76188583  0.63807517  1
  H+  H209  1  0.86684949  0.22617004  0.16069318  1
  H+  H210  1  0.63846448  0.61522217  -0.00542380  1
  H+  H211  1  0.87597989  0.28003958  0.50049287  1
  H+  H212  1  0.70767216  0.10531995  0.83913476  1
  H+  H213  1  0.14368624  -0.02001754  0.68560320  1
  H+  H214  1  0.14401660  0.76451514  0.66006326  1
  H+  H215  1  0.91630665  0.08069847  0.60237273  1
  H+  H216  1  0.85929308  0.89728396  0.01685269  1
  H+  H217  1  0.35768626  0.21433159  0.34291010  1
  H+  H218  1  0.24806584  0.91143320  1.00211060  1
  H+  H219  1  0.86444978  0.13793300  0.33144784  1
  H+  H220  1  0.66710541  0.97910644  0.48970733  1
  H+  H221  1  -0.02974892  0.88205585  0.16363629  1
  H+  H222  1  0.38145695  0.01714119  0.31466387  1
  H+  H223  1  0.72428944  0.34676613  0.99580937  1
  H+  H224  1  0.88155116  0.10739209  0.16914979  1
  H+  H225  1  0.51854167  0.37081995  0.16054004  1
  H+  H226  1  0.38436063  0.61581864  0.50143293  1
  H+  H227  1  0.92754171  0.80228777  0.66051522  1
  H+  H228  1  0.22537693  0.84910347  0.49978628  1
  H+  H229  1  0.10823983  0.66587690  0.16312977  1
  H+  H230  1  0.86736482  0.46054830  0.82936906  1
  H+  H231  1  0.09403760  0.17096539  0.61029804  1
  H+  H232  1  0.72749297  0.38326692  0.50779012  1
  H+  H233  1  0.38610946  0.75168604  0.16071371  1
  H+  H234  1  0.37928038  0.10428792  0.32912966  1
  H+  H235  1  0.60874207  0.48436004  0.66495395  1
  H+  H236  1  0.15768020  0.54565490  0.50619193  1
  H+  H237  1  0.14372334  0.52607610  0.00229216  1
  H+  H238  1  0.45269179  0.11026107  0.51411913  1
  H+  H239  1  0.40038234  0.35045840  0.99219399  1
  H+  H240  1  0.59444976  0.87987091  0.31888483  1
  H+  H241  1  0.01652777  0.12345670  0.65507547  1
  H+  H242  1  0.61504248  0.47927381  0.82968568  1
  H+  H243  1  0.90855551  0.04393016  0.32447084  1
  H+  H244  1  0.48002241  0.36525402  0.65965994  1
  H+  H245  1  0.35617533  0.22146962  0.49544310  1
  H+  H246  1  0.61860514  0.51467349  0.49818814  1
  H+  H247  1  0.90088738  0.03538195  0.98276467  1
  H+  H248  1  0.22027659  0.10857294  0.51076107  1
  H+  H249  1  0.38232786  0.85831607  0.66590640  1
  H+  H250  1  0.13901895  0.13072145  -0.01791027  1
  H+  H251  1  0.28355250  0.63644067  1.00626195  1
  H+  H252  1  0.51381712  0.89108524  0.30773789  1
  H+  H253  1  0.45684809  0.60145934  0.32039631  1
  H+  H254  1  0.66785408  0.31377930  0.66906982  1
  H+  H255  1  0.15226264  0.88572194  0.18232214  1
  H+  H256  1  0.19760441  0.91813582  0.17381949  1
  H+  H257  1  0.14108391  0.11771033  0.82508106  1
  H+  H258  1  0.03612967  0.13807931  0.34165321  1
  H+  H259  1  0.15956279  0.53587798  0.65782181  1
  H+  H260  1  0.62890570  0.61905320  0.33909257  1
  H+  H261  1  0.55653320  0.19095495  0.57997042  1
  H+  H262  1  0.12668636  0.25048455  1.01908274  1
  H+  H263  1  0.11024863  0.97719305  0.83112269  1
  H+  H264  1  0.13795650  0.89257860  0.47997187  1
  H+  H265  1  0.24838527  0.62390987  0.66386275  1
  H+  H266  1  0.13736923  0.39457309  0.34339788  1
  H+  H267  1  0.71002005  0.85499605  0.17071663  1
  H+  H268  1  0.33317111  0.84931537  0.06479836  1
  H+  H269  1  0.10993153  1.00181650  0.14995979  1
  H+  H270  1  0.22595804  0.42194858  0.81175500  1
  H+  H271  1  0.83595408  0.11362616  0.01504736  1
  H+  H272  1  0.58088338  0.42642388  0.73090057  1
  H+  H273  1  0.13021374  0.73901331  0.84093597  1
  H+  H274  1  0.12110080  0.87959682  0.32494288  1
  H+  H275  1  0.85927892  0.76348191  0.83609159  1
  H+  H276  1  0.92806141  0.33227070  0.22824138  1
  H+  H277  1  0.36422325  0.41515458  0.88916464  1
  H+  H278  1  0.36696212  0.72891764  0.83680250  1
  H+  H279  1  0.85512285  0.88289664  0.16339611  1
  H+  H280  1  0.37077684  0.64442258  0.84655574  1
  H+  H281  1  0.96293557  0.60294384  0.17468227  1
  H+  H282  1  0.41102631  0.55279591  0.88436929  1
  H+  H283  1  0.63021968  0.26242484  -0.00973612  1
  H+  H284  1  0.10843515  0.88803994  0.83986361  1
  H+  H285  1  0.20521766  0.43481127  0.95086869  1
  H+  H286  1  0.53783003  0.16032277  0.67057462  1
  H+  H287  1  0.35016345  0.67551881  0.33531329  1
  H+  H288  1  0.57798401  0.66095214  0.10271230  1
  H+  H289  1  0.36277906  0.69073611  0.10326086  1
  H+  H290  1  0.91586938  0.85781088  0.90624669  1
  H+  H291  1  0.40281714  0.55127306  0.22914539  1
  H+  H292  1  0.08906691  0.42787104  0.44158591  1
  H+  H293  1  0.07289077  0.95457129  0.08558105  1
  H+  H294  1  0.82683810  0.66713623  0.44092920  1
  H+  H295  1  0.61503999  0.73993550  0.01853309  1
  H+  H296  1  0.86270643  0.38670141  0.16487105  1
  H+  H297  1  0.68199461  0.61244763  0.24382981  1
  H+  H298  1  0.56171188  0.65083028  0.39895387  1
  H+  H299  1  0.07929656  0.45928934  0.10281506  1
  H+  H300  1  0.37245451  0.33619708  0.14630722  1
  H+  H301  1  0.83332343  0.66879503  0.09812367  1
  H+  H302  1  0.59705406  0.20757791  0.83514609  1
  H+  H303  1  0.57098906  0.40827944  0.41950333  1
  H+  H304  1  0.83394307  0.44249727  0.72869836  1
  H+  H305  1  0.34661568  0.70577417  0.40041946  1
  H+  H306  1  0.41168785  0.83735139  0.90767818  1
  H+  H307  1  0.10763054  0.42775463  0.72320833  1
  H+  H308  1  0.81808837  0.90724820  0.08753287  1
  H+  H309  1  0.83020267  0.69301648  0.74064009  1
  H+  H310  1  0.33810593  0.40789374  0.08893171  1
  H+  H311  1  -0.01205220  0.89545871  -0.00155642  1
  H+  H312  1  0.35487862  -0.03482816  0.47552990  1
  H+  H313  1  0.05811459  0.66129738  0.43543556  1
  H+  H314  1  0.83410172  0.16727407  0.39122630  1
  H+  H315  1  0.34884495  0.45835723  0.80573448  1
  H+  H316  1  0.17736828  0.58220276  0.94185833  1
  H+  H317  1  0.47180742  0.35616365  0.50017850  1
  H+  H318  1  0.16873103  0.80655930  0.25956235  1
  H+  H319  1  0.56886328  0.13312690  0.40217229  1
  H+  H320  1  0.11565607  0.00584995  0.99259490  1
  H+  H321  1  0.43524330  0.31142664  0.91050197  1
  H+  H322  1  0.94628818  0.06660681  0.88829000  1
  H+  H323  1  0.59506346  0.13692885  0.15226083  1
  H+  H324  1  0.82867542  0.43581604  0.43998814  1
  H+  H325  1  0.33934847  0.16058128  0.76740260  1
  H+  H326  1  0.08848622  0.17532568  0.75604812  1
  H+  H327  1  0.56079256  0.15906891  0.05715272  1
  H+  H328  1  0.76442419  0.62595972  -0.00406529  1
  H+  H329  1  0.59457990  0.61988802  0.49095259  1
  H+  H330  1  0.66867346  0.33384711  0.21952079  1
  H+  H331  1  0.04266092  0.05499977  0.11996534  1
  H+  H332  1  0.42066254  0.32917047  0.56420034  1
  H+  H333  1  0.66071383  0.58312217  0.93326943  1
  H+  H334  1  0.64302339  0.81634169  0.25780319  1
  H+  H335  1  0.18667091  0.35723892  0.26439505  1
  H+  H336  1  0.32655599  0.90687658  0.73120236  1
  H+  H337  1  0.11218940  0.67898823  0.73833741  1
  H+  H338  1  0.11234546  0.91867354  0.74283249  1
  H+  H339  1  0.38644133  0.03291088  0.93665584  1
  H+  H340  1  0.65204755  0.06779706  0.93921665  1
  H+  H341  1  0.35191662  0.13211879  0.66836102  1
  H+  H342  1  0.17148170  0.82689102  0.56225084  1
  H+  H343  1  0.23506233  0.61254977  0.84624412  1
  H+  H344  1  0.64645144  0.56673655  0.56233374  1
  H+  H345  1  0.57906987  0.90122458  0.77894261  1
  H+  H346  1  0.16474211  0.81907973  1.01023567  1
  H+  H347  1  0.19509676  0.60281705  0.56542903  1
  H+  H348  1  0.69691839  0.02384688  0.58290804  1
  H+  H349  1  0.37154441  0.05280609  0.55478951  1
  H+  H350  1  0.87827057  0.35341851  0.84481259  1
  H+  H351  1  0.55536533  0.90761201  0.07324138  1
  H+  H352  1  0.25912652  0.76889172  0.22176967  1
  H+  H353  1  0.83545930  0.40998054  0.07212852  1
  H+  H354  1  0.39299726  0.91376683  0.98447565  1
  H+  H355  1  0.86147883  0.48984283  0.50202186  1
  H+  H356  1  0.18204804  0.85271600  0.90790800  1
  H+  H357  1  0.48963199  0.35332886  0.99934059  1
  H+  H358  1  0.35257398  0.44431141  0.71083592  1
  H+  H359  1  0.91010629  0.31823625  0.94278353  1
  H+  H360  1  0.14974496  0.34105924  0.92599302  1
  H+  H361  1  0.86499372  0.30549840  0.59979745  1
  H+  H362  1  0.93038087  0.84655682  0.26661436  1
  H+  H363  1  0.63381935  0.02481384  0.31411817  1
  H+  H364  1  0.82816137  0.16158944  0.10441940  1
  H+  H365  1  0.56385358  0.90821937  0.40495405  1
  H+  H366  1  0.08029684  0.14718032  0.43696535  1
  H+  H367  1  0.84073624  0.95384957  0.44434322  1
  H+  H368  1  0.93489088  0.87478366  0.56953193  1
  H+  H369  1  0.18164782  0.09567976  0.23398892  1
  H+  H370  1  0.35802585  0.87703920  0.82577599  1
  H+  H371  1  0.88729263  0.16764438  0.48641272  1
  H+  H372  1  0.24265413  0.37485157  0.32490244  1
  H+  H373  1  0.90102039  0.58850689  0.26878425  1
  H+  H374  1  0.54999971  0.14300888  0.42935518  1
  H+  H375  1  0.66143523  0.08772860  0.22464628  1
  H+  H376  1  0.81359395  0.89931549  0.73427369  1
  H+  H377  1  0.33922961  0.41053123  0.40220257  1
  H+  H378  1  0.06693736  0.67784248  0.07421257  1
  H+  H379  1  0.90679215  0.60174957  0.59286695  1
  H+  H380  1  0.67055401  0.32853426  0.89766553  1
  H+  H381  1  0.16499651  0.07213419  0.57172562  1
  H+  H382  1  0.64762272  0.77947354  0.90855853  1
  H+  H383  1  0.41493232  0.58791798  0.56161842  1
  O2-  O384  1  0.05995941  0.11493974  0.13202591  1
  O2-  O385  1  0.08039028  0.15212037  0.48328369  1
  O2-  O386  1  0.08800614  0.16969758  0.80008757  1
  O2-  O387  1  0.06867856  0.48039281  0.14182484  1
  O2-  O388  1  0.08668223  0.44096092  0.48507522  1
  O2-  O389  1  0.06446388  0.44095447  0.80472283  1
  O2-  O390  1  0.05910595  0.62510996  0.13822574  1
  O2-  O391  1  0.05131358  0.66257536  0.47993981  1
  O2-  O392  1  0.10940592  0.67985612  0.82413291  1
  O2-  O393  1  0.05647295  0.96295095  0.12768346  1
  O2-  O394  1  0.13216119  0.93464074  0.45415977  1
  O2-  O395  1  0.07535328  0.91398449  0.82286325  1
  O2-  O396  1  0.35889323  0.23892423  0.19693817  1
  O2-  O397  1  0.32037015  0.16138949  0.47993275  1
  O2-  O398  1  0.33358755  0.15202680  0.81251471  1
  O2-  O399  1  0.33460150  0.39652443  0.13316843  1
  O2-  O400  1  0.33179654  0.41140787  0.48015638  1
  O2-  O401  1  0.39756264  0.50602825  0.78519925  1
  O2-  O402  1  0.36473230  0.69212588  0.14787068  1
  O2-  O403  1  0.35137786  0.68250914  0.47951604  1
  O2-  O404  1  0.34137678  0.66794087  0.82232588  1
  O2-  O405  1  0.35703706  0.93875959  0.12413612  1
  O2-  O406  1  0.33064221  0.90481785  0.46121453  1
  O2-  O407  1  0.32688316  0.90508037  0.80909322  1
  O2-  O408  1  0.56909781  0.16976098  0.13549794  1
  O2-  O409  1  0.55034864  0.19107106  0.53610131  1
  O2-  O410  1  0.56153400  0.14628876  0.82456489  1
  O2-  O411  1  0.58069018  0.41158481  0.15512293  1
  O2-  O412  1  0.57048810  0.41204260  0.46437480  1
  O2-  O413  1  0.59180391  0.42081370  0.81289186  1
  O2-  O414  1  0.57506673  0.66631049  0.14707992  1
  O2-  O415  1  0.56431595  0.64858927  0.47246561  1
  O2-  O416  1  0.58812474  0.69474849  0.84380651  1
  O2-  O417  1  0.57200126  0.91888523  0.15434771  1
  O2-  O418  1  0.56891097  0.90239384  0.45015921  1
  O2-  O419  1  0.57868693  0.89948639  0.82479800  1
  O2-  O420  1  0.83332915  0.16414290  0.14979761  1
  O2-  O421  1  0.83996895  0.17337795  0.46699770  1
  O2-  O422  1  0.79088599  0.18597908  0.79289738  1
  O2-  O423  1  0.83492896  0.41868296  0.14830942  1
  O2-  O424  1  0.83041667  0.43002430  0.48469641  1
  O2-  O425  1  0.83365224  0.40463448  0.80851412  1
  O2-  O426  1  0.84082679  0.67754375  0.14218129  1
  O2-  O427  1  0.81788345  0.65069005  0.48417017  1
  O2-  O428  1  0.82660381  0.70089970  0.81996935  1
  O2-  O429  1  0.82142496  0.91055358  0.14745915  1
  O2-  O430  1  0.81053847  0.93886545  0.48339356  1
  O2-  O431  1  0.79533705  0.90640502  0.81243523  1
  O2-  O432  1  0.18526355  0.10551258  0.18858373  1
  O2-  O433  1  0.16038256  0.07373662  0.52671243  1
  O2-  O434  1  0.16601897  0.08480015  0.84431781  1
  O2-  O435  1  0.17722226  0.34019937  0.18272905  1
  O2-  O436  1  0.17244992  0.31312781  0.52672087  1
  O2-  O437  1  0.08736302  0.29541439  0.86877240  1
  O2-  O438  1  0.21182266  0.59385178  0.20055264  1
  O2-  O439  1  0.19873195  0.60498943  0.52045995  1
  O2-  O440  1  0.17475564  0.58551284  0.86149707  1
  O2-  O441  1  0.21284155  0.75596633  0.19300269  1
  O2-  O442  1  0.16687737  0.82508504  0.51696348  1
  O2-  O443  1  0.17208551  0.84169523  0.86363493  1
  O2-  O444  1  0.41660108  0.13937946  0.19217291  1
  O2-  O445  1  0.39051720  0.06561936  0.51150611  1
  O2-  O446  1  0.39906997  0.05758542  0.85900625  1
  O2-  O447  1  0.40398369  0.30191605  0.14883406  1
  O2-  O448  1  0.41349799  0.32608083  0.51898060  1
  O2-  O449  1  0.43546715  0.31050037  0.86365740  1
  O2-  O450  1  0.40841970  0.54178578  0.18492701  1
  O2-  O451  1  0.40764999  0.57853565  0.51671726  1
  O2-  O452  1  0.43120953  0.61136279  0.89992579  1
  O2-  O453  1  0.42216303  0.86159150  0.20124221  1
  O2-  O454  1  0.42967570  0.85532090  0.53296482  1
  O2-  O455  1  0.41431813  0.83001910  0.86335628  1
  O2-  O456  1  0.65951390  0.08523966  0.17906051  1
  O2-  O457  1  0.72093342  0.01541190  0.51235526  1
  O2-  O458  1  0.65402810  0.06744048  0.86184888  1
  O2-  O459  1  0.67008765  0.33450983  0.17418610  1
  O2-  O460  1  0.66668969  0.35905375  0.52203598  1
  O2-  O461  1  0.67087529  0.32768927  0.85224614  1
  O2-  O462  1  0.68632312  0.63544511  0.20286197  1
  O2-  O463  1  0.64833177  0.57331198  0.51584678  1
  O2-  O464  1  0.66149414  0.59323463  0.85698314  1
  O2-  O465  1  0.64963255  0.82689552  0.18460097  1
  O2-  O466  1  0.66169705  0.81524357  0.44878484  1
  O2-  O467  1  0.63646027  0.78394102  0.86535043  1
  O2-  O468  1  0.90684028  0.07164747  0.18357107  1
  O2-  O469  1  0.95579703  0.15844286  0.53396313  1
  O2-  O470  1  0.94349224  0.06174691  0.84204018  1
  O2-  O471  1  0.92204263  0.33695301  0.18355092  1
  O2-  O472  1  0.90262233  0.33452584  0.52368053  1
  O2-  O473  1  0.90767761  0.32266151  0.86147995  1
  O2-  O474  1  0.90318713  0.58105246  0.18948404  1
  O2-  O475  1  0.90565171  0.58972626  0.53153079  1
  O2-  O476  1  0.93932219  0.56374274  0.85894656  1
  O2-  O477  1  0.91406179  0.84315969  0.18409853  1
  O2-  O478  1  0.92911349  0.88196175  0.52555950  1
  O2-  O479  1  0.91394336  0.85456405  0.86140289  1
  O2-  O480  1  0.17258569  0.07885096  0.30732986  1
  O2-  O481  1  0.17335898  0.07973266  0.65096091  1
  O2-  O482  1  0.16064495  0.09330809  0.96710142  1
  O2-  O483  1  0.18365554  0.35391826  0.30930238  1
  O2-  O484  1  0.18190614  0.34180055  0.64003127  1
  O2-  O485  1  0.18483398  0.37543509  0.96274322  1
  O2-  O486  1  0.10683655  0.54953297  0.30635382  1
  O2-  O487  1  0.18952182  0.59852528  0.64691005  1
  O2-  O488  1  0.18411487  0.58405395  0.98678853  1
  O2-  O489  1  0.16745403  0.81748675  0.30309117  1
  O2-  O490  1  0.17428874  0.82424613  0.64093312  1
  O2-  O491  1  0.18882200  0.87404624  0.98830649  1
  O2-  O492  1  0.40938608  0.07953825  0.30550993  1
  O2-  O493  1  0.33313796  0.03758292  0.62822621  1
  O2-  O494  1  0.38489432  0.01670438  0.98022445  1
  O2-  O495  1  0.39904006  0.30956988  0.30950391  1
  O2-  O496  1  0.41999092  0.32996426  0.64229453  1
  O2-  O497  1  0.43073312  0.31946714  0.98106862  1
  O2-  O498  1  0.39734292  0.57059076  0.30497544  1
  O2-  O499  1  0.43026144  0.59582660  0.63828791  1
  O2-  O500  1  0.42764016  0.59833826  0.96640410  1
  O2-  O501  1  0.42023091  0.84331582  0.26634489  1
  O2-  O502  1  0.41747213  0.83258574  0.65079529  1
  O2-  O503  1  0.39398344  0.86012773  0.99346579  1
  O2-  O504  1  0.66641947  0.08592505  0.30079884  1
  O2-  O505  1  0.68224512  0.03915394  0.62391977  1
  O2-  O506  1  0.64575721  0.06778122  0.98440075  1
  O2-  O507  1  0.65842456  0.33831619  0.29707324  1
  O2-  O508  1  0.67122278  0.36220310  0.64568566  1
  O2-  O509  1  0.66644941  0.32415279  0.97760059  1
  O2-  O510  1  0.66941636  0.59535805  0.32976813  1
  O2-  O511  1  0.65142071  0.56260148  0.63404135  1
  O2-  O512  1  0.66490723  0.58215285  0.97882159  1
  O2-  O513  1  0.63169779  0.81199561  0.30332949  1
  O2-  O514  1  0.61549536  0.81044105  0.62013681  1
  O2-  O515  1  0.81339003  0.97992315  1.01561119  1
  O2-  O516  1  0.92865174  0.10216199  0.30704152  1
  O2-  O517  1  0.91758058  0.06753210  0.64586691  1
  O2-  O518  1  0.95548370  0.06884802  0.95766761  1
  O2-  O519  1  0.93563836  0.32089329  0.30528674  1
  O2-  O520  1  0.84725651  0.28824320  0.64271748  1
  O2-  O521  1  0.91098309  0.31560903  0.98805383  1
  O2-  O522  1  0.90148594  0.58925828  0.31415348  1
  O2-  O523  1  0.90720957  0.60759484  0.64265608  1
  O2-  O524  1  0.92073465  0.57399784  0.97875827  1
  O2-  O525  1  0.93423136  0.84850975  0.31161450  1
  O2-  O526  1  0.94823837  0.86265134  0.65199010  1
  O2-  O527  1  0.92240912  0.86102459  0.99088400  1
  O2-  O528  1  0.09587796  0.18822985  0.02157814  1
  O2-  O529  1  0.08486428  0.14571009  0.36648002  1
  O2-  O530  1  0.08216673  0.16158115  0.65381276  1
  O2-  O531  1  0.07448750  0.41555219  0.03136088  1
  O2-  O532  1  0.09684079  0.41268122  0.36270914  1
  O2-  O533  1  0.10841186  0.43296078  0.67892269  1
  O2-  O534  1  0.06201195  0.70808559  0.03704294  1
  O2-  O535  1  0.07213565  0.66439103  0.35219059  1
  O2-  O536  1  0.10550644  0.67463918  0.69386954  1
  O2-  O537  1  0.08459198  0.94429403  0.01215343  1
  O2-  O538  1  0.09461587  0.91274793  0.34079833  1
  O2-  O539  1  0.14684985  0.93225655  0.70535722  1
  O2-  O540  1  0.34238721  0.14878471  0.04897177  1
  O2-  O541  1  0.32872575  0.15373999  0.35853989  1
  O2-  O542  1  0.33816661  0.17173208  0.69067359  1
  O2-  O543  1  0.34862409  0.41996363  0.00753029  1
  O2-  O544  1  0.34167021  0.41369822  0.35689078  1
  O2-  O545  1  0.34570462  0.42613480  0.66809149  1
  O2-  O546  1  0.34777073  0.67192331  0.01482872  1
  O2-  O547  1  0.34793717  0.72156443  0.35714627  1
  O2-  O548  1  0.35322376  0.67258170  0.69399589  1
  O2-  O549  1  0.29731535  0.85504950  0.09717133  1
  O2-  O550  1  0.33697820  0.90650013  0.33248064  1
  O2-  O551  1  0.32887565  0.90643306  0.68573515  1
  O2-  O552  1  0.56016867  0.15497071  0.01175162  1
  O2-  O553  1  0.58154082  0.17539619  0.28960878  1
  O2-  O554  1  0.71355872  0.25140956  0.70979293  1
  O2-  O555  1  0.59135819  0.41276585  0.02505000  1
  O2-  O556  1  0.56894816  0.40528242  0.33504118  1
  O2-  O557  1  0.57596312  0.42110208  0.68611079  1
  O2-  O558  1  0.58838427  0.67759566  0.01797733  1
  O2-  O559  1  0.56507334  0.65048879  0.35291340  1
  O2-  O560  1  0.59335235  0.65539209  0.67470772  1
  O2-  O561  1  0.54796650  0.90364194  0.02848527  1
  O2-  O562  1  0.56954352  0.91672814  0.33012347  1
  O2-  O563  1  0.57384838  0.90718363  0.70454543  1
  O2-  O564  1  0.81455405  0.15143990  0.02824705  1
  O2-  O565  1  0.83106348  0.16602804  0.34549367  1
  O2-  O566  1  0.82998972  0.13707145  0.68665506  1
  O2-  O567  1  0.83475825  0.40455937  0.02647792  1
  O2-  O568  1  0.81335093  0.43387369  0.35870093  1
  O2-  O569  1  0.83170012  0.46169208  0.68699023  1
  O2-  O570  1  0.82876418  0.65611976  0.00452374  1
  O2-  O571  1  0.84145810  0.68750989  0.35724791  1
  O2-  O572  1  0.82954943  0.68594694  0.69567211  1
  O2-  O573  1  0.81013933  0.90059324  0.03688960  1
  O2-  O574  1  0.86662939  0.94136362  0.35042692  1
  O2-  O575  1  0.82667103  0.89512273  0.69101628  1
