# generated using pymatgen
data_H2O
_symmetry_space_group_name_H-M   'P 1'
_cell_length_a   17.98851948
_cell_length_b   17.99045680
_cell_length_c   22.01478179
_cell_angle_alpha   89.98501629
_cell_angle_beta   90.01642130
_cell_angle_gamma   119.99130257
_symmetry_Int_Tables_number   1
_chemical_formula_structural   H2O
_chemical_formula_sum   'H384 O192'
_cell_volume   6170.50433715
_cell_formula_units_Z   192
loop_
 _symmetry_equiv_pos_site_id
 _symmetry_equiv_pos_as_xyz
  1  'x, y, z'
loop_
 _atom_type_symbol
 _atom_type_oxidation_number
  H+  1.0
  O2-  -2.0
loop_
 _atom_site_type_symbol
 _atom_site_label
 _atom_site_symmetry_multiplicity
 _atom_site_fract_x
 _atom_site_fract_y
 _atom_site_fract_z
 _atom_site_occupancy
  H+  H0  1  0.46566930  0.59958676  0.17719218  1
  H+  H1  1  0.85731978  0.36057413  0.15788278  1
  H+  H2  1  0.62528857  0.36420893  0.98589889  1
  H+  H3  1  0.89209083  0.30754564  -0.01257664  1
  H+  H4  1  0.59962636  0.21045147  0.16940122  1
  H+  H5  1  0.54323673  0.90640832  0.03825745  1
  H+  H6  1  0.86955946  0.73356340  0.49242856  1
  H+  H7  1  0.26891722  0.63279866  0.16417698  1
  H+  H8  1  0.39070506  0.01367713  0.67414870  1
  H+  H9  1  0.64546251  0.04116182  0.84459026  1
  H+  H10  1  0.40684105  0.76158574  0.18365017  1
  H+  H11  1  0.14354045  0.76161058  0.66254556  1
  H+  H12  1  0.86743944  0.42096747  0.34428410  1
  H+  H13  1  0.02909904  0.63765486  0.67365048  1
  H+  H14  1  0.66125934  0.33964009  0.90180413  1
  H+  H15  1  0.63321148  0.27296673  0.65145015  1
  H+  H16  1  0.47978638  0.36701408  0.32664329  1
  H+  H17  1  0.84463015  0.11838687  0.17381933  1
  H+  H18  1  0.63182227  0.36535148  0.65352927  1
  H+  H19  1  0.97107078  0.62001356  0.84513973  1
  H+  H20  1  0.67053175  0.61458590  0.65966195  1
  H+  H21  1  0.71702121  0.37315135  0.98836648  1
  H+  H22  1  0.38841660  0.36212942  0.83476093  1
  H+  H23  1  0.39989410  0.07563879  0.23207509  1
  H+  H24  1  0.10752426  0.39329220  0.67409341  1
  H+  H25  1  0.11449856  0.23258179  0.67730152  1
  H+  H26  1  0.61475252  0.62985541  0.33274579  1
  H+  H27  1  0.66614449  0.28317588  0.33820187  1
  H+  H28  1  0.39440295  0.52966372  0.33387164  1
  H+  H29  1  0.10447084  0.47814341  0.50326581  1
  H+  H30  1  0.89370898  0.86789238  0.49833935  1
  H+  H31  1  0.10768608  0.48354784  0.34156725  1
  H+  H32  1  0.89174448  0.36821517  0.65832999  1
  H+  H33  1  0.78001956  0.87985360  0.33216466  1
  H+  H34  1  0.88910824  0.53074229  0.50833105  1
  H+  H35  1  0.37941800  0.76949904  0.33784689  1
  H+  H36  1  0.78013807  0.88176468  0.48661020  1
  H+  H37  1  0.64016115  0.76274764  0.31181824  1
  H+  H38  1  0.58581762  0.40977393  0.43123915  1
  H+  H39  1  0.17438110  0.35154075  0.43366538  1
  H+  H40  1  0.26764209  0.37626541  0.82325013  1
  H+  H41  1  0.62928024  0.36746690  0.83382038  1
  H+  H42  1  0.87738662  0.72859874  0.67813534  1
  H+  H43  1  0.61180114  0.47219321  0.66862775  1
  H+  H44  1  0.62230175  0.10411579  0.18182547  1
  H+  H45  1  0.85368164  0.63050676  0.83459436  1
  H+  H46  1  0.10709804  0.23317850  0.48137355  1
  H+  H47  1  0.14369349  0.02530494  1.00274483  1
  H+  H48  1  0.35807602  0.71645602  0.01734704  1
  H+  H49  1  0.52929617  0.89051563  0.69390099  1
  H+  H50  1  0.34589935  0.60243943  0.48061774  1
  H+  H51  1  0.42027648  0.07738047  0.58586365  1
  H+  H52  1  0.49616457  0.61182660  0.65738585  1
  H+  H53  1  0.87281341  0.39707681  0.83136819  1
  H+  H54  1  0.50644703  0.36558927  0.15957023  1
  H+  H55  1  0.38389570  0.27896968  0.32513825  1
  H+  H56  1  0.35276916  0.62214026  0.16470645  1
  H+  H57  1  0.72391514  0.61172919  0.84275647  1
  H+  H58  1  0.52466316  0.38465971  0.82239381  1
  H+  H59  1  0.13230027  0.77613980  0.99872023  1
  H+  H60  1  0.63190184  1.02316348  0.66124738  1
  H+  H61  1  0.21939843  0.61193476  0.32411393  1
  H+  H62  1  0.61388776  0.46914376  0.33799430  1
  H+  H63  1  0.91190606  0.04436217  0.89788483  1
  H+  H64  1  0.49241545  0.62037692  0.49566990  1
  H+  H65  1  0.59792253  0.22563624  0.97779519  1
  H+  H66  1  0.55457345  0.88181432  0.17765195  1
  H+  H67  1  0.22924769  0.85943191  0.17211913  1
  H+  H68  1  0.11952798  0.52719308  0.84821134  1
  H+  H69  1  0.86386408  0.73578344  0.33967447  1
  H+  H70  1  0.72674830  0.84802639  0.21036899  1
  H+  H71  1  0.88711483  0.63866654  0.34151481  1
  H+  H72  1  0.87146828  0.27915071  0.49634353  1
  H+  H73  1  0.37069200  0.34898577  0.16906927  1
  H+  H74  1  0.03146381  0.90042083  0.01692832  1
  H+  H75  1  0.88716163  0.52691871  0.84959814  1
  H+  H76  1  0.54839500  0.15350413  0.82411934  1
  H+  H77  1  0.37905630  0.02592965  0.32324845  1
  H+  H78  1  0.11568335  0.89248619  0.33323276  1
  H+  H79  1  0.11802384  0.89399496  0.00990776  1
  H+  H80  1  0.61129671  0.37872494  0.33903699  1
  H+  H81  1  0.02681794  0.90195850  0.48631494  1
  H+  H82  1  0.49550641  0.93162980  0.85888135  1
  H+  H83  1  0.23504489  0.37646661  0.97856413  1
  H+  H84  1  0.13113649  0.61448295  0.32489454  1
  H+  H85  1  0.96925268  0.09223323  0.84014839  1
  H+  H86  1  0.63877256  0.15792413  0.82485682  1
  H+  H87  1  0.77874967  0.65021016  0.00195600  1
  H+  H88  1  0.11685684  0.90671082  0.48987016  1
  H+  H89  1  0.33505029  0.16155430  0.73183325  1
  H+  H90  1  0.76052709  0.89193137  0.67511100  1
  H+  H91  1  0.59359833  0.45330600  0.16228187  1
  H+  H92  1  0.11229810  0.39943009  -0.00707100  1
  H+  H93  1  0.30073577  0.79310248  0.81073377  1
  H+  H94  1  0.47289742  0.61565152  0.84573921  1
  H+  H95  1  0.33586868  0.11653861  0.46237300  1
  H+  H96  1  0.96621065  0.36241613  0.50339924  1
  H+  H97  1  0.85810348  0.38978522  0.49709651  1
  H+  H98  1  0.13748607  0.61150943  0.50923022  1
  H+  H99  1  0.36822818  0.37986942  0.49761642  1
  H+  H100  1  0.72335809  0.12351187  0.49917764  1
  H+  H101  1  0.34011133  0.85089159  0.47334876  1
  H+  H102  1  0.63955975  0.11598477  0.65458558  1
  H+  H103  1  -0.01419262  0.63423605  0.34041138  1
  H+  H104  1  0.13050639  0.52661076  0.99661190  1
  H+  H105  1  0.35596942  0.09241363  0.17485553  1
  H+  H106  1  0.13831917  0.12681198  0.65651088  1
  H+  H107  1  0.73895650  0.12681144  0.84533666  1
  H+  H108  1  0.14115947  0.52942786  0.16774459  1
  H+  H109  1  0.38351711  0.52891746  0.84446075  1
  H+  H110  1  0.08735966  0.18218284  0.06157162  1
  H+  H111  1  0.25287398  0.59247759  0.48452104  1
  H+  H112  1  0.25127752  0.90474372  0.49542613  1
  H+  H113  1  0.40020254  0.76646585  0.68599036  1
  H+  H114  1  0.62839425  0.91076299  0.69746770  1
  H+  H115  1  0.63657491  0.36490385  0.50422920  1
  H+  H116  1  0.89396447  0.62789956  0.99449982  1
  H+  H117  1  0.38837965  0.36689018  0.98343015  1
  H+  H118  1  0.64357502  0.61316020  0.49652439  1
  H+  H119  1  0.36369450  0.24451943  0.00157874  1
  H+  H120  1  0.88797056  0.86336784  0.32394440  1
  H+  H121  1  0.35502630  0.63588473  0.33302202  1
  H+  H122  1  0.38983210  0.26673983  0.65965621  1
  H+  H123  1  0.28440586  0.63739398  0.68002971  1
  H+  H124  1  0.13999718  0.52821460  0.66206313  1
  H+  H125  1  0.62506063  0.89844074  0.01902427  1
  H+  H126  1  0.10196548  0.64196311  0.83289744  1
  H+  H127  1  0.64036804  0.27631743  0.83610256  1
  H+  H128  1  0.77939693  0.64283119  0.49343945  1
  H+  H129  1  0.78070228  0.39486933  0.66016425  1
  H+  H130  1  0.27409254  0.13371848  0.67243600  1
  H+  H131  1  0.12953212  0.34223656  0.82839417  1
  H+  H132  1  -0.03308678  0.09588569  0.33002317  1
  H+  H133  1  0.14975524  -0.03556676  0.69651622  1
  H+  H134  1  0.52134490  0.63630788  0.01244660  1
  H+  H135  1  0.89244245  0.99419760  0.66574964  1
  H+  H136  1  0.32820038  0.40520877  0.60240853  1
  H+  H137  1  0.52770452  0.63614765  0.33221281  1
  H+  H138  1  0.09358018  0.86785168  0.83169085  1
  H+  H139  1  0.22288947  0.86394583  0.99793376  1
  H+  H140  1  0.38424823  0.81646166  0.43122813  1
  H+  H141  1  0.86561793  0.13635476  0.83939900  1
  H+  H142  1  0.88788155  0.31890612  0.30190536  1
  H+  H143  1  0.38720833  0.10215026  0.67118755  1
  H+  H144  1  0.08291383  0.94939507  0.82779310  1
  H+  H145  1  0.37200828  0.48356138  -0.00175576  1
  H+  H146  1  0.14520066  0.85076918  0.66587113  1
  H+  H147  1  0.52066277  0.13183209  0.51023137  1
  H+  H148  1  0.89300553  0.62126219  0.50423231  1
  H+  H149  1  0.12736885  0.11646936  0.14475516  1
  H+  H150  1  0.40269816  0.32867605  0.23006659  1
  H+  H151  1  0.35002005  0.69319212  0.84401369  1
  H+  H152  1  0.61287549  0.64065177  0.83537876  1
  H+  H153  1  0.29436227  0.13079215  0.83054176  1
  H+  H154  1  0.63905633  0.52988325  -0.00249029  1
  H+  H155  1  0.50093188  0.12840267  0.90935016  1
  H+  H156  1  0.50965642  0.12563322  0.16373305  1
  H+  H157  1  0.59528690  0.71602604  0.17268521  1
  H+  H158  1  0.74993686  0.20129750  0.43074226  1
  H+  H159  1  0.92875433  0.84133581  0.55785290  1
  H+  H160  1  0.13597688  0.03701188  0.49921276  1
  H+  H161  1  0.84828331  0.49379612  1.01243517  1
  H+  H162  1  0.39140198  0.27059373  0.50334737  1
  H+  H163  1  0.38476541  0.60925909  -0.00280945  1
  H+  H164  1  0.28225481  0.39069714  0.48812841  1
  H+  H165  1  0.96704693  0.11259670  0.50096449  1
  H+  H166  1  0.64422521  0.86051429  0.48910396  1
  H+  H167  1  0.87080129  0.50273871  0.17999115  1
  H+  H168  1  0.52950435  0.13926301  0.67467350  1
  H+  H169  1  0.85435986  0.10955374  0.68059716  1
  H+  H170  1  0.35651409  0.88677377  0.83388684  1
  H+  H171  1  0.72252991  0.34636848  0.17932609  1
  H+  H172  1  0.08172764  0.16237773  0.73143735  1
  H+  H173  1  0.26533807  0.13834512  0.48692573  1
  H+  H174  1  -0.01586967  0.36690164  0.83233125  1
  H+  H175  1  0.47164226  0.85747280  0.33574265  1
  H+  H176  1  0.88059425  0.59364665  0.17267425  1
  H+  H177  1  0.77150238  0.40384278  0.34138196  1
  H+  H178  1  0.89193674  0.86784925  0.17526852  1
  H+  H179  1  0.76167819  0.12775911  0.16969544  1
  H+  H180  1  0.84298554  0.96631357  0.82864492  1
  H+  H181  1  0.85236796  -0.02820951  0.18182244  1
  H+  H182  1  0.70297087  0.86200596  0.85400864  1
  H+  H183  1  0.02091739  0.39953363  -0.00243373  1
  H+  H184  1  0.60118071  0.91205023  0.41677123  1
  H+  H185  1  0.26913545  0.14882657  1.01086659  1
  H+  H186  1  0.61115078  0.22014703  0.50631708  1
  H+  H187  1  0.11105309  0.64080393  1.01016735  1
  H+  H188  1  0.63956192  0.03742612  1.00019106  1
  H+  H189  1  0.06641051  0.79267160  0.53783528  1
  H+  H190  1  0.76869355  0.11409065  0.68254902  1
  H+  H191  1  0.73034542  0.36802573  0.50875473  1
  H+  H192  1  0.63371102  0.52524669  0.84278001  1
  H+  H193  1  0.26956544  0.14850087  0.32980063  1
  H+  H194  1  0.78782888  0.65382315  0.15598161  1
  H+  H195  1  0.22269417  0.86316800  0.32510781  1
  H+  H196  1  0.13813304  1.02854457  0.32037816  1
  H+  H197  1  -0.01581839  0.35210990  0.32360460  1
  H+  H198  1  0.87005357  0.48081157  0.66585607  1
  H+  H199  1  0.35088778  0.96633449  0.16440337  1
  H+  H200  1  0.30742257  0.19234640  0.17275451  1
  H+  H201  1  0.10990454  0.20877783  0.82696335  1
  H+  H202  1  0.40076872  0.12873882  0.53632742  1
  H+  H203  1  0.80992913  0.16240491  0.42216323  1
  H+  H204  1  0.12040364  0.64043241  0.16022019  1
  H+  H205  1  0.14552423  0.61879958  0.66399804  1
  H+  H206  1  0.61654909  0.97146049  0.32885376  1
  H+  H207  1  1.03515625  0.89803402  0.16486281  1
  H+  H208  1  0.98226261  0.11885618  0.65119713  1
  H+  H209  1  0.22653957  0.37056200  0.65637878  1
  H+  H210  1  0.10993968  0.14608261  0.48761137  1
  H+  H211  1  0.86305150  0.10695498  0.34420925  1
  H+  H212  1  0.11924691  0.14660821  0.33313075  1
  H+  H213  1  0.17005827  0.46642473  0.80425659  1
  H+  H214  1  0.85983926  0.84411950  0.84419075  1
  H+  H215  1  0.90284842  0.86130413  1.05100943  1
  H+  H216  1  0.38855654  0.14510996  0.82751003  1
  H+  H217  1  0.08496020  0.17112869  0.39377546  1
  H+  H218  1  0.02592999  0.63514696  0.49005813  1
  H+  H219  1  0.17420596  0.09011446  0.26196888  1
  H+  H220  1  0.36179496  0.15031450  0.01782748  1
  H+  H221  1  0.62384603  0.96785153  0.47797217  1
  H+  H222  1  0.39074775  0.35663254  0.65231314  1
  H+  H223  1  0.02098823  0.64088153  0.01169904  1
  H+  H224  1  0.28506415  0.38356908  0.35332220  1
  H+  H225  1  0.35625272  0.88788877  0.34438478  1
  H+  H226  1  0.22116489  0.61475002  0.99857497  1
  H+  H227  1  0.14720540  0.27602022  0.33990204  1
  H+  H228  1  0.89984717  0.62055605  0.66445544  1
  H+  H229  1  0.61755573  0.76050587  0.68666968  1
  H+  H230  1  0.62985961  0.77929117  1.00839915  1
  H+  H231  1  0.63591777  0.02044712  0.18677984  1
  H+  H232  1  0.11186005  0.73215781  0.33806000  1
  H+  H233  1  0.10362014  0.73144570  0.83043977  1
  H+  H234  1  0.97809569  0.86419600  0.32348022  1
  H+  H235  1  0.73243500  0.09934615  0.32553186  1
  H+  H236  1  0.87283058  0.20030576  0.33784248  1
  H+  H237  1  0.95763945  0.09929583  0.19082096  1
  H+  H238  1  0.61669944  0.77301473  0.85422516  1
  H+  H239  1  0.88502575  1.01987655  0.50258048  1
  H+  H240  1  0.12558546  0.74037862  0.16110359  1
  H+  H241  1  0.28054466  0.87781671  0.67236526  1
  H+  H242  1  0.39330428  0.27479785  0.83435311  1
  H+  H243  1  0.16447270  0.02861839  0.17090848  1
  H+  H244  1  0.94751592  0.84341552  0.84372357  1
  H+  H245  1  0.64564408  0.63563388  0.17978007  1
  H+  H246  1  0.21718779  0.84952774  0.84294579  1
  H+  H247  1  0.72747860  0.60937877  0.33217729  1
  H+  H248  1  0.52640603  0.38093186  0.67233427  1
  H+  H249  1  0.36253292  0.90104324  -0.00637560  1
  H+  H250  1  0.14337366  0.29200330  0.98515311  1
  H+  H251  1  0.11005020  0.12031749  0.82405083  1
  H+  H252  1  0.10818816  0.22835037  0.16543544  1
  H+  H253  1  0.44769984  0.04167179  0.87317719  1
  H+  H254  1  0.61356338  0.88168987  0.31799116  1
  H+  H255  1  0.39971319  0.85564744  0.67952526  1
  H+  H256  1  0.87969972  0.73415167  0.15373131  1
  H+  H257  1  0.66171232  0.15205621  0.35377051  1
  H+  H258  1  0.40749629  0.53065389  0.50340534  1
  H+  H259  1  0.85664166  0.16451856  -0.00360808  1
  H+  H260  1  0.59847148  0.89402659  0.84369406  1
  H+  H261  1  0.52862835  0.38347477  0.49187747  1
  H+  H262  1  0.38195180  0.11555935  0.32127381  1
  H+  H263  1  0.59126372  0.66277918  0.42088688  1
  H+  H264  1  0.11710671  0.40093820  0.35276167  1
  H+  H265  1  0.37508601  0.50998591  0.18082308  1
  H+  H266  1  0.46106836  0.11979376  0.99939333  1
  H+  H267  1  0.90807090  0.87155300  0.65342715  1
  H+  H268  1  0.24900881  0.65187309  0.83718735  1
  H+  H269  1  0.62386557  0.72436046  0.47875892  1
  H+  H270  1  0.63531152  0.35081108  0.18018540  1
  H+  H271  1  0.34493313  -0.01320392  0.50194890  1
  H+  H272  1  0.78452918  0.39678832  0.83106607  1
  H+  H273  1  0.97471691  0.08560722  1.00886644  1
  H+  H274  1  0.88579683  0.54305990  0.33935979  1
  H+  H275  1  0.62679926  0.10973528  0.51427548  1
  H+  H276  1  0.86817139  -0.02564286  0.33666862  1
  H+  H277  1  0.23994237  0.35921189  0.16711699  1
  H+  H278  1  0.89643932  0.27817284  0.83687662  1
  H+  H279  1  0.31148367  0.63842353  0.39426768  1
  H+  H280  1  0.35287749  -0.02203695  1.01813946  1
  H+  H281  1  0.46523063  0.87257869  0.94056457  1
  H+  H282  1  0.38186478  0.38079471  0.34219235  1
  H+  H283  1  0.41693051  0.58688502  0.93476247  1
  H+  H284  1  0.08521086  0.38821711  0.15227234  1
  H+  H285  1  0.57498346  0.40678258  0.06464169  1
  H+  H286  1  0.99260171  0.86511599  0.65270946  1
  H+  H287  1  0.20486384  0.00740960  0.86656482  1
  H+  H288  1  0.38479976  0.08219643  0.95435084  1
  H+  H289  1  0.60088929  0.18140301  0.72658618  1
  H+  H290  1  0.83355982  0.15350078  0.77692308  1
  H+  H291  1  0.42261744  0.32572078  0.56497582  1
  H+  H292  1  0.89037391  0.79016948  1.00501508  1
  H+  H293  1  0.08862880  0.92798262  0.39110639  1
  H+  H294  1  0.65354742  0.81266693  0.54843322  1
  H+  H295  1  0.13769456  0.85879834  0.17274573  1
  H+  H296  1  0.93307326  0.31872201  0.21269228  1
  H+  H297  1  0.18519839  0.06842177  0.90519383  1
  H+  H298  1  0.03083501  0.07418081  0.12191873  1
  H+  H299  1  0.32722746  0.90389493  0.10756960  1
  H+  H300  1  0.32734656  0.18122369  0.38977993  1
  H+  H301  1  0.61554978  0.92848674  0.12131876  1
  H+  H302  1  0.16366916  0.83728296  0.90541040  1
  H+  H303  1  0.82614330  0.42423821  0.44024109  1
  H+  H304  1  0.48835242  0.85129966  0.56852742  1
  H+  H305  1  0.08940991  0.67357181  0.09708850  1
  H+  H306  1  0.45450709  0.83899028  0.54458588  1
  H+  H307  1  0.33299466  0.41983719  0.76888638  1
  H+  H308  1  0.80330751  0.91121666  0.12537292  1
  H+  H309  1  0.82143664  0.39768256  0.10623305  1
  H+  H310  1  0.15035342  0.82188742  0.57579627  1
  H+  H311  1  0.66652913  0.09117094  0.93708674  1
  H+  H312  1  0.92874179  0.59472946  0.60218033  1
  H+  H313  1  0.01623868  0.39139076  0.67217629  1
  H+  H314  1  0.12231393  0.03424248  0.64297994  1
  H+  H315  1  0.92474112  0.83641004  0.23086190  1
  H+  H316  1  0.93043325  0.35992122  0.92757485  1
  H+  H317  1  0.31971768  0.92459392  0.39589353  1
  H+  H318  1  0.10654236  0.43427538  0.08906582  1
  H+  H319  1  0.33767500  0.41394669  0.05238619  1
  H+  H320  1  0.84279760  0.66805185  0.73691749  1
  H+  H321  1  0.83833602  0.91239423  0.42681699  1
  H+  H322  1  0.09513073  0.92525691  0.10578378  1
  H+  H323  1  0.43198048  0.81952217  0.24260113  1
  H+  H324  1  0.66574996  0.08369902  0.27014942  1
  H+  H325  1  0.88006682  0.25227734  0.16165839  1
  H+  H326  1  0.07355203  0.42655927  0.44013803  1
  H+  H327  1  0.15110590  0.58500943  0.90927719  1
  H+  H328  1  0.32646889  0.89355222  0.73626225  1
  H+  H329  1  0.07870716  0.89656048  0.73923282  1
  H+  H330  1  0.32370579  0.66814391  0.74492331  1
  H+  H331  1  0.76976078  0.16438105  0.00098833  1
  H+  H332  1  0.38003798  0.47841771  0.64864764  1
  H+  H333  1  0.44811382  0.58673043  0.59202033  1
  H+  H334  1  0.08640288  0.67198908  0.39860475  1
  H+  H335  1  0.89402353  0.94581760  0.72682537  1
  H+  H336  1  0.13838239  0.37824241  0.48796558  1
  H+  H337  1  0.57332180  0.66596508  0.10791537  1
  H+  H338  1  0.66293341  0.33587666  0.58008813  1
  H+  H339  1  0.65468586  0.57470087  0.59372320  1
  H+  H340  1  0.83497980  0.67858781  0.40261811  1
  H+  H341  1  0.58793595  0.41480953  0.76380782  1
  H+  H342  1  0.41772282  0.33038358  0.92650071  1
  H+  H343  1  0.03187828  0.22010618  0.03752036  1
  H+  H344  1  0.90372597  0.06543266  0.25624013  1
  H+  H345  1  0.32660959  0.65449461  0.07441557  1
  H+  H346  1  0.92204115  0.33511855  0.60248879  1
  H+  H347  1  0.91898665  0.08123713  0.59143628  1
  H+  H348  1  0.35149950  0.41520890  0.41285502  1
  H+  H349  1  0.08457890  0.66874090  0.73548145  1
  H+  H350  1  0.52318423  0.72234521  0.70953464  1
  H+  H351  1  0.58356394  0.67915080  0.77968903  1
  H+  H352  1  0.77317833  0.47051707  0.05730840  1
  H+  H353  1  0.61929599  0.17550833  0.40962896  1
  H+  H354  1  0.51978552  0.38639598  0.00366998  1
  H+  H355  1  0.15720677  0.58203554  0.23122570  1
  H+  H356  1  0.16756975  0.58461781  0.57091587  1
  H+  H357  1  0.65235444  0.83538750  0.94854480  1
  H+  H358  1  0.78781065  0.89957905  0.77621097  1
  H+  H359  1  0.84688067  0.71626998  0.83374868  1
  H+  H360  1  0.11463105  0.72230541  0.49223876  1
  H+  H361  1  0.64541789  0.52539009  0.50011639  1
  H+  H362  1  0.61182655  0.63993523  0.01465224  1
  H+  H363  1  0.67476940  0.58730763  0.27108489  1
  H+  H364  1  0.58058578  0.93250459  0.78272156  1
  H+  H365  1  0.16333286  0.82957620  0.26558662  1
  H+  H366  1  0.16859929  0.09931031  0.55796086  1
  H+  H367  1  0.67284286  0.33013365  0.27336240  1
  H+  H368  1  0.41486681  0.57857974  0.27027585  1
  H+  H369  1  0.09164041  0.42551219  0.75852026  1
  H+  H370  1  0.15325514  0.33378709  0.60731716  1
  H+  H371  1  0.59506075  0.13439360  -0.01788331  1
  H+  H372  1  0.66942235  0.08082094  0.57196935  1
  H+  H373  1  0.70211860  0.89658042  0.62470943  1
  H+  H374  1  0.09162791  0.27235587  0.22076049  1
  H+  H375  1  0.26212607  0.43416418  0.12508611  1
  H+  H376  1  0.92066986  0.58984786  0.93857971  1
  H+  H377  1  0.66441526  0.58716529  0.93769706  1
  H+  H378  1  0.18645783  0.35876717  0.29488538  1
  H+  H379  1  0.13927458  0.11048029  0.98639373  1
  H+  H380  1  0.90783125  0.93168154  -0.02933860  1
  H+  H381  1  0.16387461  0.32457696  0.89018823  1
  H+  H382  1  0.83920409  0.67786155  0.06063863  1
  H+  H383  1  0.71923241  0.70265990  0.21833640  1
  O2-  O384  1  0.08324933  0.12959774  0.12710844  1
  O2-  O385  1  0.07648798  0.17150657  0.47007383  1
  O2-  O386  1  0.07835068  0.14830020  0.81054431  1
  O2-  O387  1  0.12878700  0.43985652  0.13162269  1
  O2-  O388  1  0.07366999  0.41809945  0.48489698  1
  O2-  O389  1  0.10790039  0.42808533  0.80401278  1
  O2-  O390  1  0.09499448  0.67650642  0.14378559  1
  O2-  O391  1  0.08668915  0.66393232  0.47454573  1
  O2-  O392  1  0.07453623  0.67241069  0.81337972  1
  O2-  O393  1  0.09665826  0.92574843  0.15118123  1
  O2-  O394  1  0.08872686  0.93679607  0.47218760  1
  O2-  O395  1  0.05782426  0.89048204  0.81241034  1
  O2-  O396  1  0.27889177  0.13291694  0.15613312  1
  O2-  O397  1  0.32665268  0.16466983  0.47088861  1
  O2-  O398  1  0.35197656  0.16738371  0.81192411  1
  O2-  O399  1  0.28979880  0.40513056  0.14462889  1
  O2-  O400  1  0.34509168  0.41580514  0.47948815  1
  O2-  O401  1  0.33025005  0.41200143  0.81288634  1
  O2-  O402  1  0.32758292  0.65544263  0.14664252  1
  O2-  O403  1  0.29334528  0.58651924  0.45703627  1
  O2-  O404  1  0.30583845  0.69658985  0.82036361  1
  O2-  O405  1  0.32061137  0.90439824  0.15191873  1
  O2-  O406  1  0.30578302  0.93985628  0.47442510  1
  O2-  O407  1  0.30390863  0.84998078  0.80946393  1
  O2-  O408  1  0.57067557  0.15216241  0.15176565  1
  O2-  O409  1  0.58159722  0.15832351  0.49567517  1
  O2-  O410  1  0.60788428  0.18820219  0.80769727  1
  O2-  O411  1  0.56725239  0.39569879  0.14501103  1
  O2-  O412  1  0.58902228  0.41141615  0.47683375  1
  O2-  O413  1  0.58643534  0.41222456  0.80952120  1
  O2-  O414  1  0.56766064  0.65870355  0.15347874  1
  O2-  O415  1  0.59309386  0.66252165  0.46648001  1
  O2-  O416  1  0.58071939  0.67095925  0.82438035  1
  O2-  O417  1  0.61427403  0.92555430  0.16598772  1
  O2-  O418  1  0.60616839  0.91072702  0.46215592  1
  O2-  O419  1  0.57814059  0.93354208  0.82837972  1
  O2-  O420  1  0.82093011  0.15091114  0.15343270  1
  O2-  O421  1  0.78587074  0.18447023  0.45556430  1
  O2-  O422  1  0.84000129  0.16893865  0.82153411  1
  O2-  O423  1  0.82104923  0.38834178  0.15027674  1
  O2-  O424  1  0.82483340  0.41974987  0.48537989  1
  O2-  O425  1  0.84587158  0.43270184  0.82343763  1
  O2-  O426  1  0.84456108  0.67537252  0.13655537  1
  O2-  O427  1  0.83974463  0.67286152  0.47727245  1
  O2-  O428  1  0.82058106  0.65631345  0.81639334  1
  O2-  O429  1  0.82075524  0.90896527  0.16697752  1
  O2-  O430  1  0.84085291  0.91403502  0.47271175  1
  O2-  O431  1  0.80443776  0.90357262  0.81869682  1
  O2-  O432  1  0.19141425  0.09191658  0.18256994  1
  O2-  O433  1  0.16880535  0.09893569  0.51269420  1
  O2-  O434  1  0.19191296  0.05394956  0.86230705  1
  O2-  O435  1  0.13049747  0.28384350  0.18673738  1
  O2-  O436  1  0.17326961  0.34921189  0.47813554  1
  O2-  O437  1  0.16064843  0.31393732  0.84484515  1
  O2-  O438  1  0.16171611  0.58795448  0.18585131  1
  O2-  O439  1  0.16125148  0.57623724  0.52562325  1
  O2-  O440  1  0.14835725  0.58669690  0.86337835  1
  O2-  O441  1  0.16513974  0.82528396  0.18663186  1
  O2-  O442  1  0.12853571  0.81964336  0.53243512  1
  O2-  O443  1  0.16129261  0.83988159  0.85990139  1
  O2-  O444  1  0.39471923  0.07083665  0.18612212  1
  O2-  O445  1  0.42008322  0.08685896  0.54012207  1
  O2-  O446  1  0.45956104  0.10179566  0.87421334  1
  O2-  O447  1  0.39711581  0.31715414  0.18575265  1
  O2-  O448  1  0.42154356  0.33004774  0.51941139  1
  O2-  O449  1  0.42184695  0.33497107  0.84989357  1
  O2-  O450  1  0.40590874  0.57017916  0.19473884  1
  O2-  O451  1  0.43462835  0.59132247  0.51576946  1
  O2-  O452  1  0.41250410  0.58771604  0.86092957  1
  O2-  O453  1  0.45547549  0.80771013  0.20586660  1
  O2-  O454  1  0.34338376  0.79924909  0.46464446  1
  O2-  O455  1  0.44711256  0.93909023  0.87796240  1
  O2-  O456  1  0.65886086  0.08211747  0.20027476  1
  O2-  O457  1  0.66583979  0.08372650  0.52394323  1
  O2-  O458  1  0.67682044  0.10274923  0.85738054  1
  O2-  O459  1  0.66408140  0.32212551  0.19890757  1
  O2-  O460  1  0.66737218  0.33568627  0.52358141  1
  O2-  O461  1  0.66167181  0.33765313  0.85346022  1
  O2-  O462  1  0.69773418  0.64432490  0.20241695  1
  O2-  O463  1  0.67448855  0.58519461  0.51544575  1
  O2-  O464  1  0.66270966  0.58418461  0.85913010  1
  O2-  O465  1  0.67654772  0.79606869  0.22869129  1
  O2-  O466  1  0.67157093  0.82575810  0.50626475  1
  O2-  O467  1  0.64234047  0.83396397  0.86813251  1
  O2-  O468  1  0.89932307  0.06496108  0.20588636  1
  O2-  O469  1  0.91038792  0.07827996  0.52063385  1
  O2-  O470  1  0.90966593  0.06412450  0.85596861  1
  O2-  O471  1  0.91852410  0.31651477  0.16958796  1
  O2-  O472  1  0.90482802  0.33553296  0.51668974  1
  O2-  O473  1  0.92563261  0.34038136  0.84816731  1
  O2-  O474  1  0.89566669  0.55954469  0.19931435  1
  O2-  O475  1  0.92492543  0.59244175  0.51918140  1
  O2-  O476  1  0.91332923  0.58861807  0.86450492  1
  O2-  O477  1  0.92821641  0.84189173  0.18536672  1
  O2-  O478  1  0.92823950  0.84046476  0.51239436  1
  O2-  O479  1  0.88882125  0.81410457  0.86042728  1
  O2-  O480  1  0.16830086  0.09037008  0.30680822  1
  O2-  O481  1  0.16621364  0.09456740  0.63837424  1
  O2-  O482  1  0.17636185  0.08541502  0.98281064  1
  O2-  O483  1  0.18427827  0.34357580  0.33774947  1
  O2-  O484  1  0.16239716  0.33756544  0.65120229  1
  O2-  O485  1  0.17473357  0.34789296  0.96343111  1
  O2-  O486  1  0.15745500  0.58064100  0.30990956  1
  O2-  O487  1  0.17502217  0.58864611  0.64735228  1
  O2-  O488  1  0.16102954  0.58948266  0.98366495  1
  O2-  O489  1  0.16102084  0.83172089  0.31093543  1
  O2-  O490  1  0.17431595  0.82284990  0.64576106  1
  O2-  O491  1  0.16217988  0.83659578  0.98299662  1
  O2-  O492  1  0.41002140  0.08460590  0.30555460  1
  O2-  O493  1  0.42160948  0.07504889  0.65872739  1
  O2-  O494  1  0.39579633  0.09069885  0.99830465  1
  O2-  O495  1  0.41750573  0.34325245  0.31363135  1
  O2-  O496  1  0.42313948  0.32617484  0.64278642  1
  O2-  O497  1  0.41519914  0.33092982  0.97226944  1
  O2-  O498  1  0.42176507  0.58709913  0.31552320  1
  O2-  O499  1  0.44527837  0.56885210  0.63532037  1
  O2-  O500  1  0.41748564  0.58237150  0.98087600  1
  O2-  O501  1  0.40907427  0.83216461  0.32802029  1
  O2-  O502  1  0.43726986  0.83021664  0.67913317  1
  O2-  O503  1  0.41537979  0.87869385  0.93007450  1
  O2-  O504  1  0.67072306  0.07930893  0.31655318  1
  O2-  O505  1  0.66310397  0.07989974  0.63879326  1
  O2-  O506  1  0.65938569  0.09517051  0.98169133  1
  O2-  O507  1  0.67734605  0.33835891  0.31913187  1
  O2-  O508  1  0.65946189  0.33310761  0.63362044  1
  O2-  O509  1  0.65931890  0.33876962  0.96770620  1
  O2-  O510  1  0.66803526  0.57447034  0.31553521  1
  O2-  O511  1  0.63458565  0.56236243  0.63677682  1
  O2-  O512  1  0.66757219  0.59014834  0.98322251  1
  O2-  O513  1  0.67228250  0.82143759  0.29190626  1
  O2-  O514  1  0.69898903  0.87054936  0.66418896  1
  O2-  O515  1  0.65801625  0.83921963  0.99347530  1
  O2-  O516  1  0.90655106  0.06240152  0.31805275  1
  O2-  O517  1  0.92190721  0.08096679  0.63820329  1
  O2-  O518  1  0.92841551  0.02800729  1.02089366  1
  O2-  O519  1  0.93369933  0.30509417  0.30163769  1
  O2-  O520  1  0.92605895  0.33989237  0.64706403  1
  O2-  O521  1  0.93161050  0.36688903  0.97233625  1
  O2-  O522  1  0.92055210  0.60634642  0.33004260  1
  O2-  O523  1  0.93081925  0.59125175  0.64704806  1
  O2-  O524  1  0.92089385  0.59224957  0.98467212  1
  O2-  O525  1  0.91754284  0.83088545  0.30884530  1
  O2-  O526  1  0.93377863  0.83823161  0.63633945  1
  O2-  O527  1  0.92260669  0.85442773  1.01122977  1
  O2-  O528  1  0.06970571  0.19921856  0.02334938  1
  O2-  O529  1  0.09358423  0.18100866  0.34869758  1
  O2-  O530  1  0.08609513  0.16986964  0.68635124  1
  O2-  O531  1  0.08377732  0.42707528  0.01378928  1
  O2-  O532  1  0.07837285  0.42386682  0.36003697  1
  O2-  O533  1  0.07875888  0.42420361  0.68943964  1
  O2-  O534  1  0.08242720  0.67240960  0.02679234  1
  O2-  O535  1  0.07923021  0.67078557  0.35317482  1
  O2-  O536  1  0.08982646  0.66792149  0.69024637  1
  O2-  O537  1  0.09446220  0.93017500  0.02681917  1
  O2-  O538  1  0.08694775  0.92564485  0.34595148  1
  O2-  O539  1  0.09709482  0.90884648  0.69504023  1
  O2-  O540  1  0.33161238  0.18582075  0.02475064  1
  O2-  O541  1  0.33063797  0.18361437  0.34483588  1
  O2-  O542  1  0.33452981  0.16029138  0.68654060  1
  O2-  O543  1  0.34053323  0.41907093  0.00795669  1
  O2-  O544  1  0.34846859  0.41334926  0.36499127  1
  O2-  O545  1  0.33448785  0.41264456  0.64646420  1
  O2-  O546  1  0.32649235  0.65570783  0.02790616  1
  O2-  O547  1  0.31992677  0.65913321  0.35023716  1
  O2-  O548  1  0.33950942  0.66361100  0.70263411  1
  O2-  O549  1  0.32812453  0.91507641  0.02150423  1
  O2-  O550  1  0.32323736  0.91849446  0.35142846  1
  O2-  O551  1  0.33777263  0.91036275  0.69251478  1
  O2-  O552  1  0.55918518  0.16266351  -0.02598766  1
  O2-  O553  1  0.66776575  0.20070464  0.38107661  1
  O2-  O554  1  0.59294370  0.17661319  0.68153511  1
  O2-  O555  1  0.57959410  0.41388551  0.01959801  1
  O2-  O556  1  0.57921693  0.40822228  0.35262283  1
  O2-  O557  1  0.58787521  0.41179882  0.68578252  1
  O2-  O558  1  0.57918088  0.66643964  0.03192917  1
  O2-  O559  1  0.58969801  0.66639368  0.34467698  1
  O2-  O560  1  0.56880632  0.70830733  0.70446244  1
  O2-  O561  1  0.60554691  0.93927771  0.03616861  1
  O2-  O562  1  0.58677849  0.90920353  0.34113059  1
  O2-  O563  1  0.59190080  0.93597845  0.70606390  1
  O2-  O564  1  0.83286136  0.20158631  0.00505986  1
  O2-  O565  1  0.83529724  0.14394360  0.35705596  1
  O2-  O566  1  0.81261589  0.11264687  0.70821217  1
  O2-  O567  1  0.79806266  0.44322822  0.03275314  1
  O2-  O568  1  0.83103932  0.44201921  0.36059602  1
  O2-  O569  1  0.83911330  0.41845866  0.67543294  1
  O2-  O570  1  0.84011810  0.68237941  0.01496184  1
  O2-  O571  1  0.83371186  0.67508854  0.35672882  1
  O2-  O572  1  0.85016230  0.66865182  0.69200006  1
  O2-  O573  1  0.90428478  0.98418536  -0.03836078  1
  O2-  O574  1  0.83770603  0.90853987  0.35075205  1
  O2-  O575  1  0.86821555  0.93410448  0.68642484  1
