# generated using pymatgen
data_H2O
_symmetry_space_group_name_H-M   'P 1'
_cell_length_a   17.98282091
_cell_length_b   17.97537160
_cell_length_c   21.99113271
_cell_angle_alpha   90.00357964
_cell_angle_beta   90.04524951
_cell_angle_gamma   119.98706360
_symmetry_Int_Tables_number   1
_chemical_formula_structural   H2O
_chemical_formula_sum   'H384 O192'
_cell_volume   6157.01667133
_cell_formula_units_Z   192
loop_
 _symmetry_equiv_pos_site_id
 _symmetry_equiv_pos_as_xyz
  1  'x, y, z'
loop_
 _atom_type_symbol
 _atom_type_oxidation_number
  H+  1.0
  O2-  -2.0
loop_
 _atom_site_type_symbol
 _atom_site_label
 _atom_site_symmetry_multiplicity
 _atom_site_fract_x
 _atom_site_fract_y
 _atom_site_fract_z
 _atom_site_occupancy
  H+  H0  1  0.13061555  0.61416937  0.64811210  1
  H+  H1  1  0.49491395  0.39059615  0.51325507  1
  H+  H2  1  0.12732244  0.35875102  0.33564993  1
  H+  H3  1  0.46986449  0.86436853  0.33433247  1
  H+  H4  1  0.11103543  0.88319327  0.33623459  1
  H+  H5  1  0.11909330  0.48385245  0.35873724  1
  H+  H6  1  0.26743379  0.38650504  0.16579169  1
  H+  H7  1  0.51938069  0.62278020  0.34682259  1
  H+  H8  1  0.50663422  0.12480028  0.68820623  1
  H+  H9  1  0.15839990  0.82928171  0.91910631  1
  H+  H10  1  0.27356300  0.16168412  1.00516718  1
  H+  H11  1  0.12602027  0.10580439  0.33242804  1
  H+  H12  1  0.38104887  0.59937648  0.17955380  1
  H+  H13  1  0.63526166  0.97082512  0.15364593  1
  H+  H14  1  0.73621793  0.88682134  0.65455826  1
  H+  H15  1  0.36324019  0.10209023  0.16526943  1
  H+  H16  1  0.70942297  0.10422157  0.84187954  1
  H+  H17  1  0.35874127  0.10422022  0.98942938  1
  H+  H18  1  0.19364245  0.48999278  0.52965927  1
  H+  H19  1  0.39761679  0.53698435  0.51512454  1
  H+  H20  1  0.00202052  0.89340184  0.65262907  1
  H+  H21  1  0.73953986  0.10929908  0.32313944  1
  H+  H22  1  0.11891435  0.73109963  0.34223463  1
  H+  H23  1  0.84545229  0.05319389  0.34351891  1
  H+  H24  1  0.28493019  0.63067350  0.49643413  1
  H+  H25  1  0.46468430  0.74786088  0.88319370  1
  H+  H26  1  0.61915211  0.86047507  0.51175139  1
  H+  H27  1  0.61393363  0.29414222  0.35253001  1
  H+  H28  1  0.87235082  0.60108950  0.17262565  1
  H+  H29  1  0.86480030  0.41406635  0.44021149  1
  H+  H30  1  0.53168069  0.45308157  0.29904586  1
  H+  H31  1  0.35503780  0.72267686  0.01485628  1
  H+  H32  1  0.33436743  0.91716084  0.40330581  1
  H+  H33  1  0.23681069  0.38801187  0.51005664  1
  H+  H34  1  0.97514670  0.82684878  0.12555089  1
  H+  H35  1  0.37062949  -0.01812214  0.49872242  1
  H+  H36  1  0.47974428  0.61176614  0.82555251  1
  H+  H37  1  0.35842306  0.71436523  0.16590882  1
  H+  H38  1  0.14012352  0.50978441  0.48568700  1
  H+  H39  1  0.11163121  1.00858860  -0.02182589  1
  H+  H40  1  0.41345338  0.37535895  0.66939141  1
  H+  H41  1  0.64891185  0.63272660  0.32565758  1
  H+  H42  1  0.51153823  0.88998523  0.50386652  1
  H+  H43  1  0.26006365  0.87653538  -0.00490725  1
  H+  H44  1  0.99053723  0.61864047  0.50386261  1
  H+  H45  1  0.71675286  0.74894012  0.19892920  1
  H+  H46  1  0.79025683  0.65007564  0.49270059  1
  H+  H47  1  0.18489190  0.25763914  0.00842723  1
  H+  H48  1  0.66375824  0.84775011  0.59176435  1
  H+  H49  1  0.39725386  0.11335316  0.50962253  1
  H+  H50  1  0.59969741  0.71762333  0.35052103  1
  H+  H51  1  0.83539523  0.52258740  0.74486326  1
  H+  H52  1  0.16499719  0.85933806  0.56132035  1
  H+  H53  1  -0.00205656  0.80931203  0.14416200  1
  H+  H54  1  0.61797573  0.71237166  0.00230214  1
  H+  H55  1  0.14254064  0.36845792  0.84126500  1
  H+  H56  1  0.03585653  0.14470500  0.83362400  1
  H+  H57  1  0.11854281  0.74053567  0.66163739  1
  H+  H58  1  0.12732990  0.86762098  0.82311649  1
  H+  H59  1  0.63779233  0.03757435  0.66412693  1
  H+  H60  1  0.37546624  0.40425529  0.50129725  1
  H+  H61  1  0.88241227  0.85198324  0.98561160  1
  H+  H62  1  0.21888599  0.38446942  0.66147274  1
  H+  H63  1  0.88330703  0.86801444  0.35430939  1
  H+  H64  1  0.38295125  0.77529314  0.51607209  1
  H+  H65  1  0.87187655  0.43257191  0.88044034  1
  H+  H66  1  0.09190368  0.26058797  0.68558678  1
  H+  H67  1  0.14488794  0.61289951  0.34650914  1
  H+  H68  1  0.59359484  0.88541538  0.35358597  1
  H+  H69  1  0.11357120  0.72533105  0.18180791  1
  H+  H70  1  0.18944985  0.95192650  0.63287070  1
  H+  H71  1  0.91780230  0.93355768  0.62010668  1
  H+  H72  1  0.69316551  0.85838418  0.36475563  1
  H+  H73  1  0.03251414  0.91733736  0.49226737  1
  H+  H74  1  0.53487702  0.87209333  0.83365273  1
  H+  H75  1  0.10090531  0.48487350  0.68115692  1
  H+  H76  1  0.17384279  0.57913627  0.28874598  1
  H+  H77  1  0.84266947  0.66854838  0.40180008  1
  H+  H78  1  0.39523601  0.37082384  0.02838178  1
  H+  H79  1  0.85999700  0.71868941  1.00468169  1
  H+  H80  1  0.35768083  0.87845938  0.34460529  1
  H+  H81  1  0.09707411  0.09915507  0.68725520  1
  H+  H82  1  0.51544355  0.88780969  1.00996496  1
  H+  H83  1  0.72115196  0.83877660  -0.06630606  1
  H+  H84  1  0.01878215  0.39177378  0.67654808  1
  H+  H85  1  0.15261831  0.08065517  0.23496365  1
  H+  H86  1  0.48843678  0.12093358  0.52642295  1
  H+  H87  1  0.07433683  0.68462578  0.74809763  1
  H+  H88  1  0.13603381  0.27809221  0.17318475  1
  H+  H89  1  0.22607963  0.86133604  0.33077222  1
  H+  H90  1  0.11275771  0.88543375  -0.00639248  1
  H+  H91  1  0.89529882  0.62225169  0.33998819  1
  H+  H92  1  0.38889104  0.60543490  0.33549422  1
  H+  H93  1  0.72031237  0.32609813  0.65923972  1
  H+  H94  1  0.63207912  0.77752662  0.51470960  1
  H+  H95  1  0.86039091  -0.00442370  0.66689476  1
  H+  H96  1  0.13449992  0.66637465  0.50095308  1
  H+  H97  1  1.02607638  0.39659081  0.84675737  1
  H+  H98  1  0.98025640  0.85818621  0.31643523  1
  H+  H99  1  0.89755438  0.18124300  0.34351077  1
  H+  H100  1  0.76942747  0.05373016  0.78029975  1
  H+  H101  1  0.63497564  0.16393288  0.55548549  1
  H+  H102  1  0.68139427  0.07468618  0.60146617  1
  H+  H103  1  0.72218061  0.36624799  0.18095662  1
  H+  H104  1  0.62684500  0.65067349  0.50302811  1
  H+  H105  1  0.87194424  0.50942679  1.00530783  1
  H+  H106  1  0.60991855  0.97941739  0.34466723  1
  H+  H107  1  0.40856704  0.28433691  0.66553779  1
  H+  H108  1  0.35087815  0.88834786  0.82179342  1
  H+  H109  1  0.37926720  0.85781180  0.98466610  1
  H+  H110  1  0.13597641  0.87878203  0.49792106  1
  H+  H111  1  -0.01804928  0.85052583  0.83526884  1
  H+  H112  1  0.62519827  0.63592233  0.84242129  1
  H+  H113  1  0.65371938  1.00207875  0.51356780  1
  H+  H114  1  0.62294359  0.01739255  0.84753621  1
  H+  H115  1  0.28186030  0.63636187  0.35051415  1
  H+  H116  1  0.11390460  0.47285806  -0.00659356  1
  H+  H117  1  0.36908187  0.26514635  0.16749452  1
  H+  H118  1  0.84574016  0.35951052  0.69056737  1
  H+  H119  1  0.13194958  0.24887449  0.49560086  1
  H+  H120  1  0.88512166  0.30755420  0.88400274  1
  H+  H121  1  0.73406842  0.60385339  0.83928562  1
  H+  H122  1  0.72476785  0.60544883  0.99183967  1
  H+  H123  1  0.88761595  0.55795092  0.65740130  1
  H+  H124  1  0.61466857  0.19458925  0.29071260  1
  H+  H125  1  0.58195397  0.14421899  0.22933515  1
  H+  H126  1  0.60343908  -0.01953204  1.01197235  1
  H+  H127  1  0.96023540  0.60342077  0.18706779  1
  H+  H128  1  0.26032559  0.37873599  0.34610630  1
  H+  H129  1  0.78847935  0.13872705  0.49241172  1
  H+  H130  1  0.60833602  0.14363871  0.01514224  1
  H+  H131  1  0.21185899  1.09803797  0.32763981  1
  H+  H132  1  0.60546592  0.21398136  0.69299013  1
  H+  H133  1  0.52814207  0.39132616  0.02211209  1
  H+  H134  1  0.38098861  0.51224544  0.33523515  1
  H+  H135  1  0.37915946  1.00609566  0.32121921  1
  H+  H136  1  0.13279795  0.39001226  0.66534663  1
  H+  H137  1  0.13473697  0.60583930  0.97680979  1
  H+  H138  1  0.26703810  0.89811511  0.66984998  1
  H+  H139  1  0.89063403  0.29139790  0.33052542  1
  H+  H140  1  -0.00467616  0.62606996  0.34481246  1
  H+  H141  1  0.14731580  0.98926783  0.15199022  1
  H+  H142  1  0.85223377  0.46954369  0.16728051  1
  H+  H143  1  0.85371418  0.84556223  0.16933251  1
  H+  H144  1  0.37937127  0.86328329  0.51505730  1
  H+  H145  1  0.04148693  0.15971529  0.11520832  1
  H+  H146  1  0.38731952  1.02300911  0.66517562  1
  H+  H147  1  0.27600635  0.38954165  0.81670600  1
  H+  H148  1  0.48841740  0.62397479  0.51639300  1
  H+  H149  1  0.89303600  0.92543360  0.46325157  1
  H+  H150  1  0.14668262  0.28138699  0.84060121  1
  H+  H151  1  0.35473690  -0.02788412  0.14595851  1
  H+  H152  1  0.46730728  0.08944572  0.30045662  1
  H+  H153  1  0.90937669  0.52324868  0.50727490  1
  H+  H154  1  0.61662036  0.47309624  0.82468416  1
  H+  H155  1  0.89082634  -0.02526729  0.81739936  1
  H+  H156  1  0.36269743  0.22863677  0.82124213  1
  H+  H157  1  0.47290439  0.35680257  0.82893065  1
  H+  H158  1  0.68070097  0.33003099  0.43857242  1
  H+  H159  1  0.37380134  1.02469567  0.83747951  1
  H+  H160  1  0.37481461  0.11602126  0.83782722  1
  H+  H161  1  0.89159815  0.10163133  0.82512204  1
  H+  H162  1  0.63155938  0.89709338  0.82875154  1
  H+  H163  1  0.63238175  0.60219162  0.98671477  1
  H+  H164  1  0.85622185  0.38085036  0.00988925  1
  H+  H165  1  0.64149888  0.40638297  0.49563361  1
  H+  H166  1  0.13680995  0.11479928  0.82290683  1
  H+  H167  1  0.78747909  0.40259067  0.35130300  1
  H+  H168  1  0.64184606  0.28075565  0.85074047  1
  H+  H169  1  0.52426949  0.89607208  0.67822411  1
  H+  H170  1  0.38460680  0.65118706  0.69867637  1
  H+  H171  1  0.11028591  0.86825657  0.65518120  1
  H+  H172  1  0.87118826  0.63622474  0.48746483  1
  H+  H173  1  0.38550808  0.35879833  0.82571364  1
  H+  H174  1  0.34078859  0.19606746  0.33113331  1
  H+  H175  1  0.42777739  0.33772816  1.08290054  1
  H+  H176  1  0.56384465  0.15765300  0.75908163  1
  H+  H177  1  0.74387574  0.09733760  0.16247419  1
  H+  H178  1  0.62873988  0.38312562  0.66893468  1
  H+  H179  1  0.82895847  -0.04927089  0.98201711  1
  H+  H180  1  0.51243026  0.38452718  0.17280409  1
  H+  H181  1  0.90292828  0.07243733  0.88920714  1
  H+  H182  1  0.66057064  0.54793215  0.51850588  1
  H+  H183  1  0.87411757  0.12543937  0.65865904  1
  H+  H184  1  0.26897303  0.63246422  1.00913995  1
  H+  H185  1  0.87667010  0.14225753  0.15829863  1
  H+  H186  1  0.91952971  0.05110127  0.51643027  1
  H+  H187  1  0.12373788  0.76355266  0.97430319  1
  H+  H188  1  0.02533619  0.65528139  0.65996577  1
  H+  H189  1  0.12298533  0.74898924  0.49848966  1
  H+  H190  1  0.35213126  0.88595997  0.67326199  1
  H+  H191  1  0.71878172  0.59988337  0.16734413  1
  H+  H192  1  0.99972611  0.14341529  0.51283330  1
  H+  H193  1  0.62193458  0.64305688  0.68571132  1
  H+  H194  1  0.87090661  0.37897654  0.71922422  1
  H+  H195  1  0.36049326  0.47377214  0.16844688  1
  H+  H196  1  0.27141857  0.13707507  0.81791833  1
  H+  H197  1  0.74007196  0.01874027  0.54317205  1
  H+  H198  1  0.60692906  0.70212788  0.87723782  1
  H+  H199  1  0.75551840  0.48509059  0.70247563  1
  H+  H200  1  0.39632955  0.53155054  0.99990803  1
  H+  H201  1  0.15627754  0.15812998  1.00395777  1
  H+  H202  1  0.37768962  0.63451238  0.79233464  1
  H+  H203  1  0.98716926  0.37388232  0.97920883  1
  H+  H204  1  0.38999915  0.52452982  0.81335702  1
  H+  H205  1  0.63962240  0.88268707  0.66052944  1
  H+  H206  1  0.25631883  0.13173776  0.16209569  1
  H+  H207  1  0.97542230  0.29776116  0.59951773  1
  H+  H208  1  0.00101648  0.66108025  0.80282953  1
  H+  H209  1  0.83032248  0.70742946  0.15856763  1
  H+  H210  1  0.29210779  0.13673640  0.48829910  1
  H+  H211  1  0.01561382  0.38002753  0.14551061  1
  H+  H212  1  0.43938860  0.32465172  0.31903212  1
  H+  H213  1  0.87471174  0.39851930  0.34120766  1
  H+  H214  1  0.51173292  0.13640236  0.84262192  1
  H+  H215  1  0.00180701  0.61989077  -0.01702820  1
  H+  H216  1  0.28802562  0.39649877  0.00783867  1
  H+  H217  1  0.98104299  0.37754257  0.33349030  1
  H+  H218  1  0.05771025  0.06381489  0.67165974  1
  H+  H219  1  0.63405834  0.38737335  0.33926692  1
  H+  H220  1  0.59966039  0.13165562  0.84106286  1
  H+  H221  1  0.83940908  0.09328062  0.97788285  1
  H+  H222  1  0.34151670  0.36748621  0.34114656  1
  H+  H223  1  0.10314288  0.74765912  0.81349518  1
  H+  H224  1  0.27597174  0.89959997  0.49538434  1
  H+  H225  1  1.00694330  0.15145776  1.00597134  1
  H+  H226  1  0.15552736  0.05468696  0.64849855  1
  H+  H227  1  0.87075863  0.22855203  0.15837942  1
  H+  H228  1  0.52382302  0.62968061  0.99903998  1
  H+  H229  1  0.60465307  0.38675980  0.17636923  1
  H+  H230  1  0.89186820  0.84257685  0.83467156  1
  H+  H231  1  0.39208229  0.78671827  0.67636386  1
  H+  H232  1  0.80071638  0.89132845  0.82073222  1
  H+  H233  1  0.74979683  0.63960927  0.66591054  1
  H+  H234  1  0.78720203  0.64239894  0.33818978  1
  H+  H235  1  0.80204329  0.89195366  0.03958820  1
  H+  H236  1  0.88464024  0.16329949  0.49151257  1
  H+  H237  1  0.38696743  0.77003433  0.32823146  1
  H+  H238  1  0.37100004  0.35844077  0.17047937  1
  H+  H239  1  0.96712747  0.08946556  0.19646570  1
  H+  H240  1  0.18612874  0.34536873  0.93062939  1
  H+  H241  1  0.39399071  0.61798650  0.00288640  1
  H+  H242  1  0.09862234  0.38255495  0.44863696  1
  H+  H243  1  0.54996887  0.39866504  0.67185911  1
  H+  H244  1  0.76015034  0.89132396  0.14661191  1
  H+  H245  1  0.62759184  0.27096913  1.00481988  1
  H+  H246  1  -0.01183784  0.11180013  0.02550647  1
  H+  H247  1  0.48740991  0.61962197  0.67358235  1
  H+  H248  1  0.91734798  0.81910726  0.93158470  1
  H+  H249  1  0.58109881  0.91263339  0.08755490  1
  H+  H250  1  -0.03877909  0.80274309  0.68483852  1
  H+  H251  1  0.87840230  0.35802693  0.17408535  1
  H+  H252  1  0.10500827  -0.02451698  0.80615643  1
  H+  H253  1  0.38150014  0.14749162  0.67455840  1
  H+  H254  1  0.14755762  0.36671213  0.98894945  1
  H+  H255  1  0.89963576  0.52922038  0.34348763  1
  H+  H256  1  0.71914320  0.11873909  0.99883652  1
  H+  H257  1  0.86546420  0.23081718  -0.00131060  1
  H+  H258  1  0.65227563  0.54799124  0.32587332  1
  H+  H259  1  0.01125794  0.12347633  0.35371012  1
  H+  H260  1  0.85355451  0.62574172  0.00445793  1
  H+  H261  1  0.76586064  0.15231362  0.66890388  1
  H+  H262  1  0.80245810  0.84666158  0.39481155  1
  H+  H263  1  0.63647495  0.24286758  0.52056470  1
  H+  H264  1  0.84991803  0.97276801  0.14243780  1
  H+  H265  1  0.15264108  0.52942206  0.83593043  1
  H+  H266  1  0.88631662  0.66944282  0.66463002  1
  H+  H267  1  0.87687941  0.98632367  0.34579360  1
  H+  H268  1  0.63655134  0.36653623  0.84580882  1
  H+  H269  1  0.62200592  0.48329632  0.99953004  1
  H+  H270  1  0.12258393  0.26779557  0.33203641  1
  H+  H271  1  0.12765403  0.11225907  0.17287024  1
  H+  H272  1  0.34811179  0.11110663  0.32876187  1
  H+  H273  1  0.37955038  0.64845540  0.50205964  1
  H+  H274  1  0.33408805  0.40740465  0.62517741  1
  H+  H275  1  0.36896720  0.23060826  0.01914206  1
  H+  H276  1  0.65116341  0.09850912  0.29684404  1
  H+  H277  1  0.14970009  1.04212193  0.49253507  1
  H+  H278  1  0.66640214  0.79320770  0.82478122  1
  H+  H279  1  0.13838137  0.60992605  0.20668022  1
  H+  H280  1  0.21542679  0.86264741  0.82579644  1
  H+  H281  1  0.35555969  0.00582862  0.98812550  1
  H+  H282  1  0.15849671  0.86983581  0.17015949  1
  H+  H283  1  0.88339718  0.70836534  0.82847247  1
  H+  H284  1  0.10474061  0.96987850  0.33410774  1
  H+  H285  1  0.53578503  0.89161471  0.15935022  1
  H+  H286  1  0.13441866  0.15971956  0.49714713  1
  H+  H287  1  0.40641513  0.74936470  0.83138677  1
  H+  H288  1  0.92530310  0.34421064  0.58167280  1
  H+  H289  1  0.34840431  0.67293872  0.40506636  1
  H+  H290  1  0.51907625  0.45043096  0.36874757  1
  H+  H291  1  0.92632124  0.59939611  0.59096815  1
  H+  H292  1  0.32431847  0.91872587  0.76154150  1
  H+  H293  1  0.06423682  0.65662127  0.03765004  1
  H+  H294  1  0.34372790  0.14594584  0.42879612  1
  H+  H295  1  0.31271246  0.15697912  0.10052448  1
  H+  H296  1  0.85678015  0.68405499  0.72964924  1
  H+  H297  1  0.69168314  0.61277372  0.57405454  1
  H+  H298  1  0.66493975  0.83844648  0.29597252  1
  H+  H299  1  0.84240700  0.92311390  0.71704519  1
  H+  H300  1  0.77597677  0.02089698  0.93396961  1
  H+  H301  1  0.84251936  0.17499842  0.06019317  1
  H+  H302  1  0.13563083  0.19337899  0.09313398  1
  H+  H303  1  0.12661590  0.93458738  0.09112112  1
  H+  H304  1  0.37635565  0.49328794  0.66458735  1
  H+  H305  1  0.66882283  0.34395764  0.24309851  1
  H+  H306  1  0.00361858  0.17077718  0.68759447  1
  H+  H307  1  0.37340666  0.89534050  0.14981772  1
  H+  H308  1  0.08689106  0.64828503  0.13642547  1
  H+  H309  1  0.86941604  0.30212562  0.48764901  1
  H+  H310  1  0.59290533  0.23219434  0.16906887  1
  H+  H311  1  0.32271479  0.90894421  0.05453997  1
  H+  H312  1  0.77730277  0.41678465  0.87092188  1
  H+  H313  1  0.41219579  0.57126737  0.23816014  1
  H+  H314  1  0.23400809  0.85176302  0.17308691  1
  H+  H315  1  0.16788810  0.36083456  0.56467724  1
  H+  H316  1  0.41126589  0.83536421  0.61143256  1
  H+  H317  1  0.66677352  0.54454892  0.66392288  1
  H+  H318  1  0.92033327  0.10564706  0.60274822  1
  H+  H319  1  0.62002210  0.50286558  0.17941670  1
  H+  H320  1  0.58801424  0.66808657  0.44263013  1
  H+  H321  1  0.15487332  0.56583635  0.59749992  1
  H+  H322  1  0.15427893  0.07170154  0.87942293  1
  H+  H323  1  0.25689465  0.10281385  0.64908086  1
  H+  H324  1  0.42985350  0.60201815  0.61294051  1
  H+  H325  1  0.32706413  0.40893848  0.75387983  1
  H+  H326  1  0.66833087  0.58632101  0.23395108  1
  H+  H327  1  0.58758142  0.66564860  0.74499692  1
  H+  H328  1  0.92005292  0.33713960  0.23030829  1
  H+  H329  1  0.05718505  0.90156661  0.75304740  1
  H+  H330  1  0.76696211  0.85534746  0.24278866  1
  H+  H331  1  0.87306592  0.53494865  0.93875858  1
  H+  H332  1  0.34122956  0.17284265  0.73004331  1
  H+  H333  1  0.38611748  0.30867354  0.25863424  1
  H+  H334  1  0.41643838  0.81655931  0.93640382  1
  H+  H335  1  0.02326804  0.88163681  0.00327227  1
  H+  H336  1  0.08101065  0.16824562  0.40688065  1
  H+  H337  1  0.87040112  0.55965858  0.83811187  1
  H+  H338  1  0.59744978  0.41604603  0.76498244  1
  H+  H339  1  0.43679522  0.35539924  0.57135724  1
  H+  H340  1  0.18209748  0.58615727  0.92361515  1
  H+  H341  1  0.76457084  0.37598259  0.01377776  1
  H+  H342  1  0.61860884  0.38296817  0.00584519  1
  H+  H343  1  0.58568424  0.92095521  0.73645566  1
  H+  H344  1  0.58763906  0.19104829  0.40040050  1
  H+  H345  1  0.48502630  0.95328976  0.21408513  1
  H+  H346  1  0.19009170  0.08866042  0.55418912  1
  H+  H347  1  0.86140725  0.23712487  0.66657461  1
  H+  H348  1  0.56753123  0.92052849  0.44154339  1
  H+  H349  1  0.64452481  0.26793015  0.61259194  1
  H+  H350  1  0.24052232  0.61486573  0.82348104  1
  H+  H351  1  0.81762261  0.14871206  0.75922529  1
  H+  H352  1  0.38803460  0.07267964  0.92414350  1
  H+  H353  1  0.61524655  0.45173835  0.44706615  1
  H+  H354  1  0.33698289  0.42367981  0.44143067  1
  H+  H355  1  0.10551380  0.38459920  0.14749101  1
  H+  H356  1  0.89383459  0.05531995  0.24434947  1
  H+  H357  1  0.08143544  0.18938718  0.77267044  1
  H+  H358  1  0.17171007  0.83214899  0.26869906  1
  H+  H359  1  0.06297141  0.05378166  0.95144049  1
  H+  H360  1  0.65894616  0.33096191  0.94297902  1
  H+  H361  1  0.67437847  0.57381056  0.89879730  1
  H+  H362  1  0.06691694  0.41406162  0.77914904  1
  H+  H363  1  0.65636384  0.08508035  0.94154259  1
  H+  H364  1  0.87614104  0.81460898  0.23308799  1
  H+  H365  1  0.69216956  0.05715730  0.22455475  1
  H+  H366  1  0.75025747  0.36363007  0.48992564  1
  H+  H367  1  0.07772528  0.92201306  0.42743106  1
  H+  H368  1  0.42637566  0.08576990  0.60670200  1
  H+  H369  1  0.22385370  0.60630153  0.19555306  1
  H+  H370  1  0.33430787  0.42342560  0.07310723  1
  H+  H371  1  0.58091746  0.17318331  0.07495159  1
  H+  H372  1  0.82064901  0.40638960  0.10922197  1
  H+  H373  1  0.07640184  0.40894170  0.05165837  1
  H+  H374  1  0.39104887  0.06439581  0.22152515  1
  H+  H375  1  0.84556067  0.18148040  0.40230084  1
  H+  H376  1  0.55099369  0.19647531  0.41186918  1
  H+  H377  1  0.09428277  0.68058695  0.40650731  1
  H+  H378  1  0.89424277  0.76725150  0.32277109  1
  H+  H379  1  0.43575003  0.86098024  0.24185113  1
  H+  H380  1  0.15692840  0.33322120  0.23455764  1
  H+  H381  1  0.81546431  0.65296009  0.09676773  1
  H+  H382  1  0.50316430  0.14134425  0.16251572  1
  H+  H383  1  0.32160606  0.65690138  0.10701960  1
  O2-  O384  1  0.09892721  0.17984279  0.13147389  1
  O2-  O385  1  0.10082789  0.18763249  0.48322892  1
  O2-  O386  1  0.09432840  0.17709055  0.81547924  1
  O2-  O387  1  0.07123648  0.40380585  0.12415069  1
  O2-  O388  1  0.07169014  0.41624062  0.43537551  1
  O2-  O389  1  0.07942439  0.41553374  0.82356959  1
  O2-  O390  1  0.07878082  0.66049599  0.17820475  1
  O2-  O391  1  0.09763773  0.68691354  0.48438243  1
  O2-  O392  1  0.06437572  0.68538296  0.79459955  1
  O2-  O393  1  0.15737502  0.94698562  0.13027394  1
  O2-  O394  1  0.08805462  0.93262997  0.47212928  1
  O2-  O395  1  0.07513943  0.91222556  0.79688407  1
  O2-  O396  1  0.31685337  0.16161522  0.14551108  1
  O2-  O397  1  0.35034381  0.15248926  0.47346604  1
  O2-  O398  1  0.33369295  0.16553690  0.80698319  1
  O2-  O399  1  0.32796974  0.41259554  0.15070765  1
  O2-  O400  1  0.34128126  0.43142989  0.48631391  1
  O2-  O401  1  0.33480871  0.41541107  0.79810019  1
  O2-  O402  1  0.32365666  0.65490073  0.15285574  1
  O2-  O403  1  0.34478785  0.67345318  0.48497035  1
  O2-  O404  1  0.34838261  0.67075092  0.78092891  1
  O2-  O405  1  0.33309164  0.91141619  0.13174611  1
  O2-  O406  1  0.33665208  0.92215435  0.48219730  1
  O2-  O407  1  0.32210176  0.91915994  0.80786246  1
  O2-  O408  1  0.56731449  0.17016086  0.15961215  1
  O2-  O409  1  0.60759641  0.19911748  0.55330625  1
  O2-  O410  1  0.57187382  0.16519390  0.82659322  1
  O2-  O411  1  0.57521875  0.41909376  0.16355229  1
  O2-  O412  1  0.61300014  0.44136631  0.49064012  1
  O2-  O413  1  0.58859845  0.41248635  0.80979575  1
  O2-  O414  1  0.66629984  0.75445502  0.21023217  1
  O2-  O415  1  0.59097547  0.67526168  0.48760970  1
  O2-  O416  1  0.59654510  0.67134661  0.83815409  1
  O2-  O417  1  0.59054859  0.90869523  0.13685556  1
  O2-  O418  1  0.57123760  0.91634064  0.48674949  1
  O2-  O419  1  0.59132513  0.91765508  0.81704198  1
  O2-  O420  1  0.84706618  0.17006167  0.13914909  1
  O2-  O421  1  0.84498662  0.18293217  0.47571606  1
  O2-  O422  1  0.80180407  0.11184644  0.79681121  1
  O2-  O423  1  0.81946442  0.40671396  0.15454968  1
  O2-  O424  1  0.85750544  0.40724703  0.48579719  1
  O2-  O425  1  0.83852561  0.46259594  0.87653412  1
  O2-  O426  1  0.80909719  0.64830014  0.14228673  1
  O2-  O427  1  0.84487150  0.66855732  0.47037648  1
  O2-  O428  1  0.84511133  0.65053486  0.80833191  1
  O2-  O429  1  0.81429973  0.91574923  0.12363965  1
  O2-  O430  1  0.89685654  0.94312587  0.50632506  1
  O2-  O431  1  0.85846858  0.91425030  0.80240770  1
  O2-  O432  1  0.15708440  0.08252639  0.18949520  1
  O2-  O433  1  0.18390825  0.10046730  0.51089703  1
  O2-  O434  1  0.16194163  0.07726468  0.83456882  1
  O2-  O435  1  0.16269457  0.33737975  0.18956673  1
  O2-  O436  1  0.17462288  0.36581364  0.51947733  1
  O2-  O437  1  0.17906686  0.34341894  0.85305319  1
  O2-  O438  1  0.16993799  0.58062381  0.21935289  1
  O2-  O439  1  0.18249895  0.53682824  0.51899099  1
  O2-  O440  1  0.18777858  0.59048565  0.84809152  1
  O2-  O441  1  0.17584485  0.83038822  0.19084345  1
  O2-  O442  1  0.16629829  0.84995835  0.51665380  1
  O2-  O443  1  0.15366642  0.83265274  0.83881635  1
  O2-  O444  1  0.39541687  0.07174987  0.17630014  1
  O2-  O445  1  0.42609220  0.08420325  0.53243797  1
  O2-  O446  1  0.40186833  0.08261162  0.85699471  1
  O2-  O447  1  0.40322246  0.32653958  0.18176859  1
  O2-  O448  1  0.43531371  0.36561427  0.52728282  1
  O2-  O449  1  0.41171344  0.32494110  0.84087983  1
  O2-  O450  1  0.41001003  0.56780811  0.19320026  1
  O2-  O451  1  0.42812875  0.59660155  0.53213838  1
  O2-  O452  1  0.41721398  0.58749356  0.82107093  1
  O2-  O453  1  0.45638884  0.89296502  0.20183832  1
  O2-  O454  1  0.41036900  0.83508074  0.53293676  1
  O2-  O455  1  0.44563743  0.78551780  0.86555903  1
  O2-  O456  1  0.68657234  0.05514060  0.17954052  1
  O2-  O457  1  0.70892920  0.04858664  0.53269208  1
  O2-  O458  1  0.65198100  0.07896913  0.86113536  1
  O2-  O459  1  0.66181087  0.34008028  0.19878973  1
  O2-  O460  1  0.68706644  0.33950956  0.48254954  1
  O2-  O461  1  0.66760841  0.33992447  0.86691341  1
  O2-  O462  1  0.65942088  0.57218818  0.18905758  1
  O2-  O463  1  0.68867042  0.60999965  0.52850683  1
  O2-  O464  1  0.67384709  0.57696468  0.85306397  1
  O2-  O465  1  0.71094783  0.84687699  0.22879979  1
  O2-  O466  1  0.65508577  0.83785314  0.52969150  1
  O2-  O467  1  0.69393643  0.84869563  0.84743387  1
  O2-  O468  1  0.90550586  0.06717102  0.20009285  1
  O2-  O469  1  0.93750776  0.11221079  0.52473652  1
  O2-  O470  1  0.92571193  0.08042457  0.84703898  1
  O2-  O471  1  0.91207988  0.32951696  0.18575219  1
  O2-  O472  1  0.90398438  0.36203536  0.50344031  1
  O2-  O473  1  0.92426576  0.36498209  0.90063675  1
  O2-  O474  1  0.89720151  0.56826033  0.19110543  1
  O2-  O475  1  0.92915062  0.58425625  0.51633878  1
  O2-  O476  1  0.89509877  0.60554812  0.80569625  1
  O2-  O477  1  0.83808858  0.79601819  0.19635628  1
  O2-  O478  1  0.94055001  0.90251993  0.53505520  1
  O2-  O479  1  0.92237220  0.81356464  0.85155895  1
  O2-  O480  1  0.15121277  0.07354648  0.31265625  1
  O2-  O481  1  0.20458945  0.05538186  0.62843741  1
  O2-  O482  1  0.12090607  0.06347633  0.95763399  1
  O2-  O483  1  0.15540945  0.32842862  0.31762984  1
  O2-  O484  1  0.16043916  0.35972766  0.64461396  1
  O2-  O485  1  0.18701060  0.34552714  0.97629190  1
  O2-  O486  1  0.17331085  0.57946388  0.33580920  1
  O2-  O487  1  0.15129542  0.57345350  0.64152722  1
  O2-  O488  1  0.17127073  0.58028384  0.96902973  1
  O2-  O489  1  0.16610312  0.83010758  0.31418212  1
  O2-  O490  1  0.16913265  0.88906506  0.63769908  1
  O2-  O491  1  0.15881498  0.82598611  0.96427152  1
  O2-  O492  1  0.40414823  0.06265410  0.29902779  1
  O2-  O493  1  0.42501646  0.08470558  0.65301583  1
  O2-  O494  1  0.38284807  0.06828350  0.97159429  1
  O2-  O495  1  0.38058561  0.30103506  0.30408778  1
  O2-  O496  1  0.44393050  0.34645315  0.65366864  1
  O2-  O497  1  0.42758768  0.33844679  1.03821043  1
  O2-  O498  1  0.41763509  0.57299503  0.32163646  1
  O2-  O499  1  0.42618143  0.59430843  0.65802037  1
  O2-  O500  1  0.42562784  0.59158035  0.98479938  1
  O2-  O501  1  0.41218029  0.83121974  0.31418461  1
  O2-  O502  1  0.41470457  0.84400729  0.65671342  1
  O2-  O503  1  0.41237279  0.82743978  0.98019607  1
  O2-  O504  1  0.68411390  0.06799704  0.30386974  1
  O2-  O505  1  0.66878468  0.09232679  0.64126433  1
  O2-  O506  1  0.65753687  0.08541951  0.98685206  1
  O2-  O507  1  0.66033669  0.35084251  0.33985313  1
  O2-  O508  1  0.65819174  0.29864027  0.65306476  1
  O2-  O509  1  0.65951646  0.33330488  0.98868325  1
  O2-  O510  1  0.68268592  0.60603900  0.30830540  1
  O2-  O511  1  0.68899004  0.60505740  0.65187927  1
  O2-  O512  1  0.66529962  0.57095905  0.97425970  1
  O2-  O513  1  0.64240550  0.82853760  0.33902822  1
  O2-  O514  1  0.67278055  0.85680999  0.64095439  1
  O2-  O515  1  0.66637633  0.81436010  0.91029756  1
  O2-  O516  1  0.88941832  0.04214748  0.32686185  1
  O2-  O517  1  0.90827546  0.09749006  0.64737535  1
  O2-  O518  1  0.83297095  0.04425545  0.95196535  1
  O2-  O519  1  0.92244953  0.35123893  0.31476104  1
  O2-  O520  1  0.94172462  0.32126123  0.61712157  1
  O2-  O521  1  0.92234165  0.34484622  0.96643308  1
  O2-  O522  1  0.93091217  0.59219375  0.33083138  1
  O2-  O523  1  0.93052379  0.61163093  0.63587825  1
  O2-  O524  1  0.89433396  0.56234872  0.97918956  1
  O2-  O525  1  0.91701407  0.82647694  0.30576773  1
  O2-  O526  1  0.97387642  0.94589658  0.60258496  1
  O2-  O527  1  0.91651966  0.82317801  0.97688666  1
  O2-  O528  1  0.18758829  0.20971777  0.02996642  1
  O2-  O529  1  0.07316274  0.16061201  0.36155039  1
  O2-  O530  1  0.05002214  0.21549631  0.71291855  1
  O2-  O531  1  0.07941407  0.41093361  0.00524902  1
  O2-  O532  1  0.08156792  0.41892096  0.36858001  1
  O2-  O533  1  0.07275554  0.42524730  0.69957666  1
  O2-  O534  1  0.06488005  0.65504721  -0.00659238  1
  O2-  O535  1  0.08823682  0.67183658  0.36142955  1
  O2-  O536  1  0.08541682  0.68315339  0.67920626  1
  O2-  O537  1  0.08634962  0.91811754  0.01095989  1
  O2-  O538  1  0.07546931  0.90894058  0.34923096  1
  O2-  O539  1  0.01574768  0.85881059  0.68225506  1
  O2-  O540  1  0.32800912  0.16694915  0.01852106  1
  O2-  O541  1  0.31588586  0.13693709  0.34767628  1
  O2-  O542  1  0.34874332  0.17718603  0.68456339  1
  O2-  O543  1  0.34543035  0.42341897  0.02835847  1
  O2-  O544  1  0.32163076  0.40489900  0.35934780  1
  O2-  O545  1  0.34166428  0.42726643  0.66727500  1
  O2-  O546  1  0.32547896  0.66296118  0.03075780  1
  O2-  O547  1  0.34495442  0.66904995  0.35965194  1
  O2-  O548  1  0.36335748  0.68943145  0.71510304  1
  O2-  O549  1  0.32132911  0.91249297  0.00884605  1
  O2-  O550  1  0.32982133  0.91206915  0.35787242  1
  O2-  O551  1  0.32478690  0.91997694  0.68825089  1
  O2-  O552  1  0.58204785  0.17741882  0.03010077  1
  O2-  O553  1  0.58416567  0.13610160  0.27493610  1
  O2-  O554  1  0.56525455  0.15527772  0.71158077  1
  O2-  O555  1  0.59348739  0.42219081  0.01965303  1
  O2-  O556  1  0.55035793  0.43894065  0.33707378  1
  O2-  O557  1  0.61202314  0.42457164  0.68403058  1
  O2-  O558  1  0.58712754  0.65035112  0.00760966  1
  O2-  O559  1  0.58124471  0.65689620  0.36070303  1
  O2-  O560  1  0.58430825  0.66481417  0.70064569  1
  O2-  O561  1  0.57516284  0.91961709  0.02656218  1
  O2-  O562  1  0.56918007  0.92308053  0.36397170  1
  O2-  O563  1  0.58589507  0.92493516  0.69115954  1
  O2-  O564  1  0.83181621  0.17195331  0.01532076  1
  O2-  O565  1  0.84615039  0.18268024  0.35586434  1
  O2-  O566  1  0.82611478  0.18046791  0.68619842  1
  O2-  O567  1  0.82470540  0.40622319  0.02998826  1
  O2-  O568  1  0.84826842  0.42999699  0.36329977  1
  O2-  O569  1  0.81132073  0.48916541  0.70715232  1
  O2-  O570  1  0.82545276  0.65809377  0.01990067  1
  O2-  O571  1  0.84664072  0.66791183  0.35451471  1
  O2-  O572  1  0.86176957  0.70122041  0.68631124  1
  O2-  O573  1  0.81036510  0.89099361  -0.00489582  1
  O2-  O574  1  0.85837267  0.89446029  0.38336355  1
  O2-  O575  1  0.83266491  0.93154930  0.67382852  1
