# generated using pymatgen
data_H2O
_symmetry_space_group_name_H-M   'P 1'
_cell_length_a   17.99128565
_cell_length_b   17.98346287
_cell_length_c   22.01462969
_cell_angle_alpha   89.98859640
_cell_angle_beta   90.03806325
_cell_angle_gamma   120.04534234
_symmetry_Int_Tables_number   1
_chemical_formula_structural   H2O
_chemical_formula_sum   'H384 O192'
_cell_volume   6165.64941255
_cell_formula_units_Z   192
loop_
 _symmetry_equiv_pos_site_id
 _symmetry_equiv_pos_as_xyz
  1  'x, y, z'
loop_
 _atom_type_symbol
 _atom_type_oxidation_number
  H+  1.0
  O2-  -2.0
loop_
 _atom_site_type_symbol
 _atom_site_label
 _atom_site_symmetry_multiplicity
 _atom_site_fract_x
 _atom_site_fract_y
 _atom_site_fract_z
 _atom_site_occupancy
  H+  H0  1  0.11601986  0.99183037  0.83158787  1
  H+  H1  1  0.11289169  0.12268307  0.67347736  1
  H+  H2  1  0.87121051  0.13590466  0.65153707  1
  H+  H3  1  0.48525653  0.38438820  0.15247600  1
  H+  H4  1  0.24335518  0.10165228  0.66784312  1
  H+  H5  1  0.84203814  0.21971434  0.16212954  1
  H+  H6  1  0.89954866  1.02109602  0.83378779  1
  H+  H7  1  0.87352214  0.41851696  0.66795670  1
  H+  H8  1  0.85712858  0.09465480  0.16433953  1
  H+  H9  1  0.27155210  0.39659147  0.33618075  1
  H+  H10  1  0.86914514  0.59736569  0.99464182  1
  H+  H11  1  0.90655768  0.10277782  0.50414207  1
  H+  H12  1  0.58877088  0.09108151  0.15004758  1
  H+  H13  1  0.73091140  0.37694343  0.48355494  1
  H+  H14  1  0.14032075  0.62843867  0.66156660  1
  H+  H15  1  0.91548023  0.71322651  0.66334594  1
  H+  H16  1  0.46723586  0.77209044  0.60817377  1
  H+  H17  1  0.98696073  0.08846641  0.51271845  1
  H+  H18  1  0.90253138  0.22362440  0.47920965  1
  H+  H19  1  0.89402734  0.27420075  0.85580964  1
  H+  H20  1  0.14781593  0.88940306  0.84588918  1
  H+  H21  1  0.63282771  0.52491336  0.83892922  1
  H+  H22  1  0.47187849  0.86084907  0.83820756  1
  H+  H23  1  0.73002062  0.11112461  0.64191072  1
  H+  H24  1  0.73911937  0.10465718  0.86341988  1
  H+  H25  1  0.82160509  0.65878744  0.73835967  1
  H+  H26  1  0.14230372  0.75385121  0.98813766  1
  H+  H27  1  0.85100689  0.74849451  0.19435832  1
  H+  H28  1  0.46676368  0.61317803  0.32190734  1
  H+  H29  1  0.12739323  0.10626924  0.18423681  1
  H+  H30  1  0.36124779  0.34892245  0.17357652  1
  H+  H31  1  0.90973564  0.57515983  0.66249090  1
  H+  H32  1  0.22910192  0.62600017  0.32905050  1
  H+  H33  1  0.56960351  0.40517523  0.11440453  1
  H+  H34  1  0.36249493  0.38264070  0.48585445  1
  H+  H35  1  0.62240784  0.85220098  1.01213187  1
  H+  H36  1  0.38080282  0.01330849  0.49690874  1
  H+  H37  1  0.12380129  0.48107480  0.15956222  1
  H+  H38  1  0.23842059  0.63638437  -0.01278407  1
  H+  H39  1  0.52265655  0.39386340  0.48804667  1
  H+  H40  1  0.10495143  0.72617214  0.33868067  1
  H+  H41  1  0.12889485  0.74613962  0.15757048  1
  H+  H42  1  0.61946322  1.03969669  0.25123154  1
  H+  H43  1  0.33756147  0.19926781  0.65841614  1
  H+  H44  1  0.19833848  0.11368304  -0.00364055  1
  H+  H45  1  0.70718325  0.86686669  0.87025859  1
  H+  H46  1  0.63509964  0.89987237  0.33252863  1
  H+  H47  1  0.62261184  0.76368668  0.67371217  1
  H+  H48  1  0.61858694  0.62933475  0.51165560  1
  H+  H49  1  0.90127507  0.88480032  0.83683151  1
  H+  H50  1  0.06174277  0.42868729  0.73259367  1
  H+  H51  1  0.63784217  0.10572555  0.64147322  1
  H+  H52  1  0.14567416  0.30583410  0.44140822  1
  H+  H53  1  0.12341952  0.19784567  0.50238958  1
  H+  H54  1  0.22114336  0.61369659  0.65873623  1
  H+  H55  1  0.56801629  0.45674933  0.67245689  1
  H+  H56  1  0.13637475  0.62581542  0.33121221  1
  H+  H57  1  0.85882593  0.35222322  0.99884558  1
  H+  H58  1  0.30180198  0.38658631  0.68997040  1
  H+  H59  1  0.15687392  0.79599660  0.22094173  1
  H+  H60  1  -0.02909677  0.82438810  0.35266712  1
  H+  H61  1  0.13934022  0.86866506  0.66779729  1
  H+  H62  1  0.23543896  0.88625590  0.84681430  1
  H+  H63  1  0.12299594  0.30248314  0.31893948  1
  H+  H64  1  0.12547925  0.27901371  0.00057968  1
  H+  H65  1  0.14514691  0.75405468  0.02243136  1
  H+  H66  1  0.35696027  0.38793180  0.33580668  1
  H+  H67  1  0.48608452  0.60098164  0.51469438  1
  H+  H68  1  0.66779762  0.33090963  0.65205452  1
  H+  H69  1  0.64957241  0.28178004  0.84746675  1
  H+  H70  1  0.65917059  0.32573093  0.53309715  1
  H+  H71  1  0.28448600  0.64344835  0.16043204  1
  H+  H72  1  0.12744574  0.51664380  0.33483826  1
  H+  H73  1  0.73883380  0.62121049  0.98855366  1
  H+  H74  1  0.47397702  0.60706113  0.00433849  1
  H+  H75  1  0.39213581  0.10153113  0.99009344  1
  H+  H76  1  0.39437507  0.41125207  0.71328806  1
  H+  H77  1  0.57233026  0.16037770  0.40880654  1
  H+  H78  1  0.88249194  0.28469498  0.22692794  1
  H+  H79  1  0.85162971  0.31848683  0.16309043  1
  H+  H80  1  0.91014045  0.80314378  0.29242687  1
  H+  H81  1  1.01391423  0.38795404  0.48358233  1
  H+  H82  1  0.85939450  0.83701410  0.21234017  1
  H+  H83  1  0.38591570  0.26910442  0.49161674  1
  H+  H84  1  0.85908176  0.97135590  0.17100619  1
  H+  H85  1  0.36499292  0.71514785  0.67104621  1
  H+  H86  1  0.14810048  0.93132712  0.99256451  1
  H+  H87  1  0.35611523  0.22612305  0.34016581  1
  H+  H88  1  0.31818018  0.14622956  -0.04709587  1
  H+  H89  1  1.03912516  0.66169319  0.67410263  1
  H+  H90  1  0.38819546  0.50692849  0.50955148  1
  H+  H91  1  0.54918059  0.40526198  1.00142004  1
  H+  H92  1  0.86190465  0.60834631  0.32635703  1
  H+  H93  1  0.63855006  0.73282247  0.34527152  1
  H+  H94  1  0.13132345  0.36846990  0.17064601  1
  H+  H95  1  0.11298679  0.74654262  0.83797475  1
  H+  H96  1  0.81492213  0.93276814  0.06484784  1
  H+  H97  1  0.38896322  0.86603851  0.17246249  1
  H+  H98  1  0.58130781  0.67684439  0.77663654  1
  H+  H99  1  0.36154650  0.38784384  0.01064074  1
  H+  H100  1  0.61295642  0.62939749  0.00704484  1
  H+  H101  1  0.37575528  0.78113138  0.50137810  1
  H+  H102  1  0.64133270  0.14249750  0.84579378  1
  H+  H103  1  0.13253424  0.12354997  0.84081211  1
  H+  H104  1  0.39208512  0.76913523  -0.00396719  1
  H+  H105  1  0.12146278  0.88263796  0.15362895  1
  H+  H106  1  0.90200722  0.79369384  0.84525712  1
  H+  H107  1  0.46483148  0.10051097  0.16796647  1
  H+  H108  1  0.60124565  0.47996890  0.32854933  1
  H+  H109  1  0.52504871  0.64657022  0.67505258  1
  H+  H110  1  0.35882710  0.97442252  0.67882660  1
  H+  H111  1  0.86090984  0.96444602  0.49790910  1
  H+  H112  1  0.75216088  0.34334868  0.16766300  1
  H+  H113  1  0.22177634  0.37007596  0.85042690  1
  H+  H114  1  0.85615240  0.72974652  0.00627282  1
  H+  H115  1  -0.00784533  0.06491857  0.33690935  1
  H+  H116  1  0.17798748  0.25613274  0.65519862  1
  H+  H117  1  0.61366443  0.39918959  0.48060953  1
  H+  H118  1  0.92582373  0.07472601  0.59987298  1
  H+  H119  1  0.67915933  0.15528437  0.48506228  1
  H+  H120  1  0.40679827  0.02297400  0.99825208  1
  H+  H121  1  0.90003277  0.52779599  0.84576777  1
  H+  H122  1  0.90995279  0.84172114  0.93753806  1
  H+  H123  1  0.10921092  0.65283934  0.49384193  1
  H+  H124  1  0.12304504  0.09473988  0.35286810  1
  H+  H125  1  0.22912843  0.60230921  0.83371483  1
  H+  H126  1  0.66910927  0.63416491  0.31889571  1
  H+  H127  1  0.36256221  -0.01672764  0.33559256  1
  H+  H128  1  0.16939647  0.37769144  0.71858999  1
  H+  H129  1  0.23109825  0.09456260  0.33230307  1
  H+  H130  1  0.62354213  0.65940906  0.67720614  1
  H+  H131  1  0.36707208  0.86533713  0.50885278  1
  H+  H132  1  0.26819603  0.05583290  -0.01325735  1
  H+  H133  1  0.80520566  0.44953035  0.67357651  1
  H+  H134  1  0.36054210  0.48662698  0.84861009  1
  H+  H135  1  0.35568008  0.72120737  0.82691893  1
  H+  H136  1  0.37402060  1.01611216  0.17318828  1
  H+  H137  1  0.00607394  0.89258603  0.01177400  1
  H+  H138  1  0.38562353  0.60985466  0.66256144  1
  H+  H139  1  0.64244793  0.40563301  -0.00134056  1
  H+  H140  1  0.39755002  0.52779367  0.67033633  1
  H+  H141  1  0.67793194  0.89304109  0.26201322  1
  H+  H142  1  0.26835162  0.92438163  1.00829511  1
  H+  H143  1  0.01515003  0.85643275  0.69321349  1
  H+  H144  1  0.12019929  -0.02965483  0.16397292  1
  H+  H145  1  0.25976367  0.89280834  0.48590045  1
  H+  H146  1  0.58492210  0.92081053  0.77170242  1
  H+  H147  1  0.12376915  0.78456320  0.50524590  1
  H+  H148  1  0.23849400  0.87263604  0.32292548  1
  H+  H149  1  0.95128954  0.68159133  0.20056389  1
  H+  H150  1  0.74974444  0.35322454  0.33609478  1
  H+  H151  1  -0.03047489  0.59352375  0.32652296  1
  H+  H152  1  0.37239435  0.64082118  0.15702961  1
  H+  H153  1  0.85490469  0.93537388  0.34322993  1
  H+  H154  1  0.50028508  0.10622803  0.84445762  1
  H+  H155  1  0.84176504  0.21772689  0.00987975  1
  H+  H156  1  0.53276137  0.91772538  0.16651005  1
  H+  H157  1  0.68435914  0.35125921  0.89933400  1
  H+  H158  1  0.89246098  0.53561241  0.50680109  1
  H+  H159  1  0.74456101  0.60665192  0.78467000  1
  H+  H160  1  0.09631154  0.14802219  0.01543300  1
  H+  H161  1  0.35532821  0.64058955  0.33418150  1
  H+  H162  1  0.36263606  0.63529226  1.00877431  1
  H+  H163  1  0.88045485  0.29257251  0.64804849  1
  H+  H164  1  0.10227564  0.38811736  0.48331182  1
  H+  H165  1  0.35880833  0.23632915  0.87636236  1
  H+  H166  1  0.03542391  0.14102268  0.66725236  1
  H+  H167  1  0.82595650  0.62364281  0.15799315  1
  H+  H168  1  0.71551521  0.87429982  0.18436799  1
  H+  H169  1  0.20350055  0.42365493  0.71390921  1
  H+  H170  1  0.11422230  0.23727613  0.82404586  1
  H+  H171  1  0.46422800  0.36590426  0.32498910  1
  H+  H172  1  0.86065591  0.72114670  0.49575577  1
  H+  H173  1  0.27566688  0.84385641  0.02014583  1
  H+  H174  1  0.47569984  0.61902177  0.85021007  1
  H+  H175  1  -0.01615781  0.11720720  0.83612775  1
  H+  H176  1  0.01181486  0.13708708  0.16798456  1
  H+  H177  1  0.89314593  0.24211361  0.30663635  1
  H+  H178  1  0.11406921  0.86380521  0.36036838  1
  H+  H179  1  0.84091244  0.43005877  0.15986246  1
  H+  H180  1  0.37227105  0.13498228  0.49033488  1
  H+  H181  1  0.33791247  0.92267320  0.75682676  1
  H+  H182  1  0.41935645  0.56896093  0.57650046  1
  H+  H183  1  0.11057945  0.38722730  0.83441659  1
  H+  H184  1  0.36634201  0.88511917  0.82641941  1
  H+  H185  1  0.87814448  0.02800312  0.98953153  1
  H+  H186  1  0.38243215  0.52061106  0.00013215  1
  H+  H187  1  0.36530914  0.26110740  0.17153798  1
  H+  H188  1  0.12799977  0.50011842  0.83872007  1
  H+  H189  1  0.62173454  0.23806542  0.45550998  1
  H+  H190  1  0.53586331  0.15159821  1.01136473  1
  H+  H191  1  0.61173625  0.38769045  0.82965079  1
  H+  H192  1  0.58872220  0.52003323  0.15631466  1
  H+  H193  1  0.59511370  0.98898748  0.48554856  1
  H+  H194  1  0.13000230  0.53599004  0.50514663  1
  H+  H195  1  0.78322806  0.39204154  0.82647987  1
  H+  H196  1  0.83017946  0.27064973  0.51431451  1
  H+  H197  1  0.60861808  0.72961090  0.83891098  1
  H+  H198  1  0.89656867  0.11408014  0.33028998  1
  H+  H199  1  0.83533718  0.28271978  0.30675616  1
  H+  H200  1  0.08797580  0.68827682  0.77913573  1
  H+  H201  1  0.80580511  0.89681695  0.81452369  1
  H+  H202  1  0.52387687  0.88432340  0.01730446  1
  H+  H203  1  0.60462423  0.18542588  0.16676204  1
  H+  H204  1  0.89900597  0.02465183  0.66300317  1
  H+  H205  1  0.46291106  0.85386233  0.32836199  1
  H+  H206  1  0.73694619  0.62483191  0.15202571  1
  H+  H207  1  0.45614255  0.09732079  0.64845005  1
  H+  H208  1  0.39719573  0.06275227  0.59008572  1
  H+  H209  1  0.36153376  0.89176867  0.33612288  1
  H+  H210  1  0.01474737  0.62287471  0.15576649  1
  H+  H211  1  0.12213276  -0.00186415  0.66944071  1
  H+  H212  1  0.42234030  0.82303086  0.58998917  1
  H+  H213  1  0.35595418  0.73109149  0.33193014  1
  H+  H214  1  0.38575196  0.51756464  0.16853280  1
  H+  H215  1  0.47545498  0.09704739  0.50074788  1
  H+  H216  1  0.85750333  0.39571740  0.48110780  1
  H+  H217  1  0.63056894  0.75889021  0.52262661  1
  H+  H218  1  0.53058613  0.88537650  0.66557249  1
  H+  H219  1  0.88633004  0.62158497  0.50555584  1
  H+  H220  1  0.66452933  0.33296208  0.72256528  1
  H+  H221  1  0.21656877  0.10796515  0.17909073  1
  H+  H222  1  0.66268132  0.29189832  0.99866489  1
  H+  H223  1  0.91842720  0.08597651  0.93074246  1
  H+  H224  1  0.73342181  0.08923558  0.14733067  1
  H+  H225  1  0.87171437  0.50533421  0.32352038  1
  H+  H226  1  0.10579790  0.03165456  1.00181126  1
  H+  H227  1  0.38408734  0.11215986  0.32569165  1
  H+  H228  1  0.87858923  0.84989648  0.51019850  1
  H+  H229  1  -0.02451922  0.56003093  0.01087386  1
  H+  H230  1  0.58381539  0.19610535  0.68238108  1
  H+  H231  1  0.77110739  0.61559682  0.31818850  1
  H+  H232  1  0.62347074  0.76127861  0.01054108  1
  H+  H233  1  0.77463066  0.63114403  0.49942224  1
  H+  H234  1  0.98072250  0.62227930  0.85107915  1
  H+  H235  1  0.39014832  0.37972342  0.85884453  1
  H+  H236  1  0.64553753  0.50974119  -0.01141749  1
  H+  H237  1  0.26646807  0.87073357  0.16129539  1
  H+  H238  1  0.63345827  0.52267426  0.51923754  1
  H+  H239  1  0.02115693  0.39010629  0.83933151  1
  H+  H240  1  0.35239477  0.12640874  0.15624914  1
  H+  H241  1  0.28070145  0.12553776  0.49851646  1
  H+  H242  1  0.12734811  0.27533454  0.17862408  1
  H+  H243  1  0.60371222  0.88498668  0.83385681  1
  H+  H244  1  0.26881935  0.38313994  1.00609737  1
  H+  H245  1  0.85864858  0.83049860  0.66756471  1
  H+  H246  1  0.07194056  0.92320639  0.07012356  1
  H+  H247  1  0.60757613  0.00809206  1.00206110  1
  H+  H248  1  0.38578431  -0.01408953  0.82949328  1
  H+  H249  1  0.49560528  0.91637887  0.48788352  1
  H+  H250  1  0.26199224  0.38541236  0.16164526  1
  H+  H251  1  0.26971800  0.65233141  0.49115444  1
  H+  H252  1  0.09515261  0.48997929  0.67432233  1
  H+  H253  1  0.26950592  0.14869874  0.86858919  1
  H+  H254  1  0.81085598  0.14575309  0.47935399  1
  H+  H255  1  0.76922411  0.87859133  0.50373835  1
  H+  H256  1  0.42959609  0.33617226  0.65102634  1
  H+  H257  1  0.34416657  0.11009753  0.66014934  1
  H+  H258  1  0.78996352  0.89573758  0.68496900  1
  H+  H259  1  0.40100983  0.78368028  0.17135193  1
  H+  H260  1  0.41784854  0.59214612  0.91119209  1
  H+  H261  1  0.19062254  0.68184815  0.95938814  1
  H+  H262  1  0.71152072  0.61233905  0.68933308  1
  H+  H263  1  0.81764481  0.66666802  0.06447105  1
  H+  H264  1  0.87169014  0.86405158  0.99632429  1
  H+  H265  1  0.32966646  0.30765405  0.63283393  1
  H+  H266  1  0.13860288  0.61064544  0.16806387  1
  H+  H267  1  0.47757644  0.37468386  0.85126086  1
  H+  H268  1  0.87502167  0.12845524  0.84489548  1
  H+  H269  1  0.07403877  0.58894991  0.00086489  1
  H+  H270  1  0.26967941  0.88681018  0.68475822  1
  H+  H271  1  0.00352144  0.38068515  0.01339535  1
  H+  H272  1  0.08096518  0.47353437  0.01517265  1
  H+  H273  1  0.10842399  -0.05281574  0.36404069  1
  H+  H274  1  0.11972058  0.41389780  0.33089657  1
  H+  H275  1  0.62844411  0.84644387  0.51877034  1
  H+  H276  1  0.36211976  0.63590098  0.83181770  1
  H+  H277  1  0.17069534  0.58561307  0.89517439  1
  H+  H278  1  0.14514875  0.07991496  0.51757374  1
  H+  H279  1  0.88952913  0.36099974  0.84477994  1
  H+  H280  1  0.62308958  0.30723085  0.20636585  1
  H+  H281  1  0.64741785  0.10435103  0.30485474  1
  H+  H282  1  0.41953173  0.29671888  1.00395064  1
  H+  H283  1  0.80964964  0.45205004  0.99203854  1
  H+  H284  1  0.38075361  0.52338637  0.32486285  1
  H+  H285  1  0.73255640  0.90794145  0.33313897  1
  H+  H286  1  0.61281363  0.11137955  1.00072305  1
  H+  H287  1  0.64431827  0.02103347  0.84970920  1
  H+  H288  1  0.39697717  0.86049382  0.99415538  1
  H+  H289  1  0.59854188  0.66670589  0.45120945  1
  H+  H290  1  0.03036102  0.89980880  0.83581393  1
  H+  H291  1  0.63348973  0.18312697  0.78519845  1
  H+  H292  1  0.63713251  0.61630396  0.83951587  1
  H+  H293  1  0.01839656  0.64925458  0.49290707  1
  H+  H294  1  0.08245682  0.41740726  0.10312181  1
  H+  H295  1  0.82635860  0.43208598  0.42420295  1
  H+  H296  1  0.80128645  0.13470653  0.08953420  1
  H+  H297  1  0.16042115  0.59402544  0.56479116  1
  H+  H298  1  0.75576541  0.44822107  0.35859955  1
  H+  H299  1  0.11715982  0.18009924  0.35717906  1
  H+  H300  1  0.73171476  0.77061103  0.36625039  1
  H+  H301  1  0.89987599  0.33788963  0.55938386  1
  H+  H302  1  0.43702662  0.07433193  0.90156524  1
  H+  H303  1  0.00870690  0.14801654  0.01378670  1
  H+  H304  1  0.17478850  0.88695767  0.28082056  1
  H+  H305  1  0.08464798  0.43627053  0.39448102  1
  H+  H306  1  0.32853944  0.68012161  0.43243141  1
  H+  H307  1  0.53222395  0.60777457  0.16646638  1
  H+  H308  1  0.90461917  0.33408258  0.94416309  1
  H+  H309  1  0.15577806  -0.00470978  0.52123465  1
  H+  H310  1  0.86612943  0.70577251  0.34247058  1
  H+  H311  1  0.09097883  0.17839677  0.76332595  1
  H+  H312  1  0.07953727  0.67422509  0.40141013  1
  H+  H313  1  0.70966064  0.21307392  0.37872777  1
  H+  H314  1  0.80978384  0.90062364  0.40751541  1
  H+  H315  1  0.64476709  0.07132474  0.93840659  1
  H+  H316  1  0.33498427  0.66932081  0.06690628  1
  H+  H317  1  0.08146463  0.91223868  0.74567253  1
  H+  H318  1  0.33335337  0.42723645  0.79029986  1
  H+  H319  1  0.55101105  0.90381743  0.40769614  1
  H+  H320  1  0.32221083  0.41192459  0.10212747  1
  H+  H321  1  0.87035507  0.15308087  0.38479462  1
  H+  H322  1  0.09396550  0.12972333  0.44904778  1
  H+  H323  1  0.84814896  0.42740273  0.76985547  1
  H+  H324  1  0.93254057  0.61668335  0.59678216  1
  H+  H325  1  0.54342534  0.10480995  0.71484430  1
  H+  H326  1  0.07127223  0.16961786  0.11003214  1
  H+  H327  1  0.56595247  0.36881963  0.68026972  1
  H+  H328  1  0.19453922  0.91655088  0.93382001  1
  H+  H329  1  0.41489663  0.82903111  0.89806527  1
  H+  H330  1  0.14202666  0.08785553  0.90515057  1
  H+  H331  1  0.65818050  0.59021919  0.25331376  1
  H+  H332  1  0.84835316  0.13395865  0.00068455  1
  H+  H333  1  0.67087808  0.58736274  0.57933897  1
  H+  H334  1  0.58763485  0.64507173  0.07317288  1
  H+  H335  1  0.56766906  0.41002922  0.77388687  1
  H+  H336  1  0.95604109  0.02188593  0.27373224  1
  H+  H337  1  0.89506516  0.81027031  0.56915773  1
  H+  H338  1  0.33142800  0.65934707  0.73260478  1
  H+  H339  1  0.64032307  0.89881883  0.18175358  1
  H+  H340  1  0.39961037  0.32719281  0.26791713  1
  H+  H341  1  0.61757560  -0.02155928  0.66433289  1
  H+  H342  1  0.13039208  0.74322305  0.67789307  1
  H+  H343  1  0.32599848  0.91244456  0.10421424  1
  H+  H344  1  0.13203283  0.37017928  0.99603635  1
  H+  H345  1  0.59041414  0.16624009  0.07170152  1
  H+  H346  1  0.15963552  0.05258783  0.60605725  1
  H+  H347  1  0.22392470  0.35829802  0.48411432  1
  H+  H348  1  0.43584778  0.35314761  0.94433195  1
  H+  H349  1  0.58613678  0.93072770  0.07600246  1
  H+  H350  1  0.16430113  0.06080221  0.27617002  1
  H+  H351  1  0.31465356  0.14862569  0.09784233  1
  H+  H352  1  0.52841986  0.80779728  0.39275386  1
  H+  H353  1  0.86123089  0.92386649  0.73834415  1
  H+  H354  1  0.83134576  0.16158420  0.79740412  1
  H+  H355  1  0.88831847  0.08408317  0.22916878  1
  H+  H356  1  0.91594310  0.59279145  0.23249249  1
  H+  H357  1  0.67846235  0.58866516  0.92451155  1
  H+  H358  1  0.33371375  0.16616514  0.39968078  1
  H+  H359  1  0.15533094  0.33319283  0.90528959  1
  H+  H360  1  0.40650506  0.32259870  0.55121408  1
  H+  H361  1  0.41084525  0.08082289  0.26649471  1
  H+  H362  1  0.16329638  0.35281108  0.25749101  1
  H+  H363  1  0.57417987  0.43128951  0.39153825  1
  H+  H364  1  0.75469296  0.88410404  1.00998437  1
  H+  H365  1  0.10032103  0.88243034  0.45985700  1
  H+  H366  1  0.63337012  0.86991640  0.66974262  1
  H+  H367  1  0.41793586  0.57938507  0.22596929  1
  H+  H368  1  0.05611506  0.61476375  0.09398054  1
  H+  H369  1  0.96685003  0.38302684  0.65568377  1
  H+  H370  1  0.33863696  0.42505547  0.42985475  1
  H+  H371  1  0.41459255  0.83795977  0.26416397  1
  H+  H372  1  0.85537502  0.89229790  0.13361899  1
  H+  H373  1  0.17277176  0.84932833  0.60530614  1
  H+  H374  1  0.67357322  0.27857795  0.25101683  1
  H+  H375  1  0.84568972  0.17955013  0.70196163  1
  H+  H376  1  0.17221725  0.59268201  0.23010534  1
  H+  H377  1  0.21508415  0.33487326  0.60878632  1
  H+  H378  1  0.74731036  0.69034943  0.64663204  1
  H+  H379  1  0.63880965  0.82254972  0.92067920  1
  H+  H380  1  0.89960470  0.56943435  0.93394180  1
  H+  H381  1  0.32241384  0.91645388  0.42708672  1
  H+  H382  1  0.66200859  0.83097898  0.61078738  1
  H+  H383  1  0.70113649  0.12469530  0.54755054  1
  O2-  O384  1  0.07293821  0.16648753  0.15557226  1
  O2-  O385  1  0.09528527  0.13556258  0.49444311  1
  O2-  O386  1  0.08627524  0.17706424  0.80838146  1
  O2-  O387  1  0.09124804  0.41965321  0.14775551  1
  O2-  O388  1  0.07419101  0.42085536  0.47010216  1
  O2-  O389  1  0.08119687  0.42067450  0.82140698  1
  O2-  O390  1  0.07091723  0.64096147  0.13613654  1
  O2-  O391  1  0.07981478  0.68320362  0.47717636  1
  O2-  O392  1  0.08391678  0.68648352  0.82391233  1
  O2-  O393  1  0.09365228  0.91552526  0.14130801  1
  O2-  O394  1  0.10863747  0.88771761  0.50517443  1
  O2-  O395  1  0.08995429  0.93020072  0.81804165  1
  O2-  O396  1  0.31815479  0.15388410  0.14220618  1
  O2-  O397  1  0.33763915  0.16221787  0.47882140  1
  O2-  O398  1  0.32889550  0.17397166  0.88480275  1
  O2-  O399  1  0.32312667  0.41230101  0.14751775  1
  O2-  O400  1  0.33603133  0.41943455  0.47559527  1
  O2-  O401  1  0.33017321  0.42472206  0.83527287  1
  O2-  O402  1  0.34418286  0.67370144  0.14355764  1
  O2-  O403  1  0.33041413  0.68432154  0.47728059  1
  O2-  O404  1  0.32846330  0.66053083  0.81230786  1
  O2-  O405  1  0.32774678  0.90945766  0.14925872  1
  O2-  O406  1  0.32077289  0.91776723  0.47286920  1
  O2-  O407  1  0.34431564  0.92379763  0.81132047  1
  O2-  O408  1  0.56888426  0.13430157  0.14059653  1
  O2-  O409  1  0.60213060  0.17619415  0.44791211  1
  O2-  O410  1  0.61452407  0.17507523  0.82733117  1
  O2-  O411  1  0.53590412  0.42997296  0.12938551  1
  O2-  O412  1  0.58376777  0.43305088  0.47673432  1
  O2-  O413  1  0.57850280  0.41661729  0.81798341  1
  O2-  O414  1  0.59295206  0.63488683  0.15069390  1
  O2-  O415  1  0.58574364  0.65943660  0.49505753  1
  O2-  O416  1  0.58086022  0.67062131  0.82124765  1
  O2-  O417  1  0.59191043  0.94578880  0.14834702  1
  O2-  O418  1  0.54355024  0.95817376  0.46097259  1
  O2-  O419  1  0.57988380  0.92021505  0.81660302  1
  O2-  O420  1  0.79717793  0.12659384  0.13571625  1
  O2-  O421  1  0.87087438  0.16267247  0.46754775  1
  O2-  O422  1  0.84065206  0.16099776  0.84086738  1
  O2-  O423  1  0.80883254  0.37074807  0.14604068  1
  O2-  O424  1  0.83146392  0.43120593  0.47051646  1
  O2-  O425  1  0.84395758  0.41510767  0.81405665  1
  O2-  O426  1  0.79955312  0.65640577  0.14204917  1
  O2-  O427  1  0.83239647  0.65970040  0.48148689  1
  O2-  O428  1  0.76715366  0.60412839  0.74425208  1
  O2-  O429  1  0.82561160  0.90730926  0.16394195  1
  O2-  O430  1  0.82430955  0.90447953  0.48183928  1
  O2-  O431  1  0.86683628  0.93061503  0.80578945  1
  O2-  O432  1  0.15896188  0.07744955  0.19885187  1
  O2-  O433  1  0.18114363  0.05687047  0.53454046  1
  O2-  O434  1  0.15618378  0.09001209  0.86111773  1
  O2-  O435  1  0.16086376  0.33738886  0.19038796  1
  O2-  O436  1  0.15970221  0.32127907  0.48411943  1
  O2-  O437  1  0.15877598  0.33729710  0.85959406  1
  O2-  O438  1  0.17760781  0.59125435  0.18555241  1
  O2-  O439  1  0.15975383  0.59612335  0.51917081  1
  O2-  O440  1  0.16843458  0.57046024  0.85075726  1
  O2-  O441  1  0.15982115  0.80472585  0.17672750  1
  O2-  O442  1  0.16000868  0.84659936  0.51986763  1
  O2-  O443  1  0.17993962  0.86473664  0.86765662  1
  O2-  O444  1  0.40521662  0.07849933  0.18364685  1
  O2-  O445  1  0.41637768  0.07298164  0.51572262  1
  O2-  O446  1  0.43977878  0.06935141  0.85663346  1
  O2-  O447  1  0.39349334  0.32027066  0.18865630  1
  O2-  O448  1  0.41214833  0.33012563  0.50647241  1
  O2-  O449  1  0.42205856  0.35079334  0.87353695  1
  O2-  O450  1  0.42400690  0.57900909  0.18123345  1
  O2-  O451  1  0.42390292  0.56701172  0.52991305  1
  O2-  O452  1  0.41542871  0.59174387  0.86540227  1
  O2-  O453  1  0.42629780  0.84325448  0.18759676  1
  O2-  O454  1  0.40373309  0.84064573  0.52111670  1
  O2-  O455  1  0.41104044  0.82956068  0.85282846  1
  O2-  O456  1  0.63488529  0.03699007  0.16976378  1
  O2-  O457  1  0.72605560  0.15535053  0.50893086  1
  O2-  O458  1  0.67543460  0.07799860  0.87083565  1
  O2-  O459  1  0.65978939  0.28170816  0.20582328  1
  O2-  O460  1  0.66579375  0.34007198  0.49004491  1
  O2-  O461  1  0.67489897  0.34456402  0.85455192  1
  O2-  O462  1  0.62807141  0.58136564  0.17414156  1
  O2-  O463  1  0.66367313  0.58369732  0.53455933  1
  O2-  O464  1  0.66955581  0.58659031  0.85044754  1
  O2-  O465  1  0.66251908  0.86511606  0.20455620  1
  O2-  O466  1  0.65819503  0.81999840  0.53847617  1
  O2-  O467  1  0.64510516  0.83022385  0.87469502  1
  O2-  O468  1  0.89525279  0.07561739  0.18616900  1
  O2-  O469  1  0.92551758  0.06505835  0.52419410  1
  O2-  O470  1  0.92426332  0.08188416  0.85259531  1
  O2-  O471  1  0.87750221  0.28166977  0.17782319  1
  O2-  O472  1  0.88867837  0.32172172  0.51506191  1
  O2-  O473  1  0.92239559  0.33652605  0.86549008  1
  O2-  O474  1  0.92259141  0.62019989  0.19148234  1
  O2-  O475  1  0.92279038  0.59587285  0.52166279  1
  O2-  O476  1  0.91999452  0.58439206  0.86463891  1
  O2-  O477  1  0.88430514  0.80020557  0.21992814  1
  O2-  O478  1  0.90721087  0.81882123  0.52535094  1
  O2-  O479  1  0.92866219  0.85199838  0.86139137  1
  O2-  O480  1  0.16876479  0.05476038  0.32116299  1
  O2-  O481  1  0.15686577  0.05819157  0.65197871  1
  O2-  O482  1  0.13767485  0.09209768  0.98505790  1
  O2-  O483  1  0.16403269  0.36019896  0.30495051  1
  O2-  O484  1  0.23265255  0.30810517  0.63990133  1
  O2-  O485  1  0.16063981  0.33797258  0.98222521  1
  O2-  O486  1  0.16595595  0.59420159  0.31514160  1
  O2-  O487  1  0.16219835  0.59168468  0.64299987  1
  O2-  O488  1  0.18508500  0.62528743  0.96424558  1
  O2-  O489  1  0.17651626  0.84271051  0.30555294  1
  O2-  O490  1  0.17733853  0.84806882  0.65013184  1
  O2-  O491  1  0.20546773  0.94622814  0.97447125  1
  O2-  O492  1  0.40980970  0.07769023  0.31150994  1
  O2-  O493  1  0.39462093  0.06580097  0.63594739  1
  O2-  O494  1  0.43422411  0.08149989  0.98166761  1
  O2-  O495  1  0.40127682  0.33182694  0.31324278  1
  O2-  O496  1  0.37719742  0.29438395  0.62846686  1
  O2-  O497  1  0.44447008  0.35620357  0.99038010  1
  O2-  O498  1  0.40734230  0.58355846  0.30790389  1
  O2-  O499  1  0.42223122  0.58418179  0.64847185  1
  O2-  O500  1  0.41490463  0.58246739  0.98717015  1
  O2-  O501  1  0.40545943  0.83227218  0.30941063  1
  O2-  O502  1  0.44384539  0.80515948  0.62708157  1
  O2-  O503  1  0.42568476  0.82994065  0.97914312  1
  O2-  O504  1  0.61049610  0.04340449  0.29529542  1
  O2-  O505  1  0.66952403  0.07759333  0.62657360  1
  O2-  O506  1  0.61098765  0.05867785  0.97777730  1
  O2-  O507  1  0.69466073  0.28392204  0.32030931  1
  O2-  O508  1  0.62800403  0.31016759  0.68643004  1
  O2-  O509  1  0.69116390  0.35067413  0.97979111  1
  O2-  O510  1  0.67540032  0.58978766  0.29619994  1
  O2-  O511  1  0.69193157  0.63545559  0.65411457  1
  O2-  O512  1  0.67686036  0.58508562  0.97071337  1
  O2-  O513  1  0.69000642  0.91889036  0.30899548  1
  O2-  O514  1  0.66031107  0.83274677  0.65710707  1
  O2-  O515  1  0.64955605  0.82089658  0.99331383  1
  O2-  O516  1  0.93797741  0.03396740  0.31250225  1
  O2-  O517  1  0.92581445  0.08367198  0.64501216  1
  O2-  O518  1  0.91100543  0.08844056  0.97560319  1
  O2-  O519  1  0.89074497  0.29288652  0.29006700  1
  O2-  O520  1  0.90690458  0.35324951  0.63577781  1
  O2-  O521  1  0.89762658  0.32976725  0.98918114  1
  O2-  O522  1  0.91309931  0.56596967  0.30565028  1
  O2-  O523  1  0.93861383  0.63108523  0.64153439  1
  O2-  O524  1  0.88418595  0.55502151  0.97910462  1
  O2-  O525  1  0.91100153  0.79320103  0.33736942  1
  O2-  O526  1  0.85296752  0.77628882  0.64827249  1
  O2-  O527  1  0.90316204  0.83474187  0.98294493  1
  O2-  O528  1  0.06757315  0.17933006  0.03204450  1
  O2-  O529  1  0.08913647  0.12148420  0.37268427  1
  O2-  O530  1  0.09587992  0.16644328  0.68239895  1
  O2-  O531  1  0.06649757  0.41420101  0.02268469  1
  O2-  O532  1  0.09198390  0.44598072  0.34914335  1
  O2-  O533  1  0.05486270  0.43028359  0.68845463  1
  O2-  O534  1  0.02640229  0.56033643  0.02972852  1
  O2-  O535  1  0.07947334  0.66779608  0.35558406  1
  O2-  O536  1  0.09691861  0.68288056  0.69264951  1
  O2-  O537  1  0.06636972  0.93217932  0.02535936  1
  O2-  O538  1  0.08247035  0.88853506  0.38126766  1
  O2-  O539  1  0.07551996  0.90193129  0.70004589  1
  O2-  O540  1  0.30630527  0.11847767  -0.00447789  1
  O2-  O541  1  0.32967162  0.16519906  0.35448390  1
  O2-  O542  1  0.31202358  0.13952926  0.67683476  1
  O2-  O543  1  0.32842086  0.41564338  0.02313881  1
  O2-  O544  1  0.33087819  0.42275018  0.35254810  1
  O2-  O545  1  0.35418826  0.43270311  0.71108119  1
  O2-  O546  1  0.33446461  0.66920556  0.02101965  1
  O2-  O547  1  0.32519593  0.67069981  0.34918176  1
  O2-  O548  1  0.33240262  0.65562455  0.68724209  1
  O2-  O549  1  0.31068784  0.90617708  0.02432849  1
  O2-  O550  1  0.32975703  0.92064835  0.35113082  1
  O2-  O551  1  0.33067444  0.91828081  0.70108848  1
  O2-  O552  1  0.59661446  0.17735044  0.02582139  1
  O2-  O553  1  0.72414267  0.22272501  0.33520938  1
  O2-  O554  1  0.55927006  0.13341989  0.67534399  1
  O2-  O555  1  0.61340177  0.43961027  0.00921844  1
  O2-  O556  1  0.56572753  0.42288636  0.34719860  1
  O2-  O557  1  0.53349744  0.39877097  0.68904695  1
  O2-  O558  1  0.58214994  0.65411795  0.02872683  1
  O2-  O559  1  0.67551855  0.71646748  0.36700773  1
  O2-  O560  1  0.58510217  0.68377353  0.69130783  1
  O2-  O561  1  0.58496737  0.92085048  0.03043768  1
  O2-  O562  1  0.54812607  0.86353174  0.37372539  1
  O2-  O563  1  0.58832023  0.92097794  0.68526153  1
  O2-  O564  1  0.81146954  0.15503599  0.01834116  1
  O2-  O565  1  0.87078290  0.14932284  0.33999307  1
  O2-  O566  1  0.83889535  0.16807906  0.65852112  1
  O2-  O567  1  0.77845501  0.38957607  0.00593893  1
  O2-  O568  1  0.79776860  0.42913916  0.35494939  1
  O2-  O569  1  0.85856736  0.45770039  0.69095752  1
  O2-  O570  1  0.82462878  0.66790528  0.01925921  1
  O2-  O571  1  0.82664411  0.63552818  0.34161413  1
  O2-  O572  1  0.90569716  0.75486600  0.68815916  1
  O2-  O573  1  0.81676632  0.92103794  0.02167176  1
  O2-  O574  1  0.80058907  0.89100155  0.36235931  1
  O2-  O575  1  0.85128077  0.91660301  0.69070883  1
