# generated using pymatgen
data_H2O
_symmetry_space_group_name_H-M   'P 1'
_cell_length_a   17.99410438
_cell_length_b   17.99493776
_cell_length_c   21.99865816
_cell_angle_alpha   89.99002943
_cell_angle_beta   89.99781358
_cell_angle_gamma   119.99517918
_symmetry_Int_Tables_number   1
_chemical_formula_structural   H2O
_chemical_formula_sum   'H384 O192'
_cell_volume   6169.19490356
_cell_formula_units_Z   192
loop_
 _symmetry_equiv_pos_site_id
 _symmetry_equiv_pos_as_xyz
  1  'x, y, z'
loop_
 _atom_type_symbol
 _atom_type_oxidation_number
  H+  1.0
  O2-  -2.0
loop_
 _atom_site_type_symbol
 _atom_site_label
 _atom_site_symmetry_multiplicity
 _atom_site_fract_x
 _atom_site_fract_y
 _atom_site_fract_z
 _atom_site_occupancy
  H+  H0  1  0.33152508  0.90024610  0.72584415  1
  H+  H1  1  0.24997418  0.85500088  0.64772564  1
  H+  H2  1  0.61993420  0.74639294  0.67411555  1
  H+  H3  1  0.69869224  0.33592954  0.65211889  1
  H+  H4  1  0.62156319  0.89348250  0.65530480  1
  H+  H5  1  0.15187425  0.61026629  0.33455062  1
  H+  H6  1  0.13339462  0.11227437  0.19868845  1
  H+  H7  1  0.11316586  0.23058250  0.00278906  1
  H+  H8  1  0.27967633  0.89643464  0.32325534  1
  H+  H9  1  0.11941674  0.76988370  0.83424862  1
  H+  H10  1  0.10899545  0.38358054  0.00574980  1
  H+  H11  1  0.38514640  0.35915289  0.66055861  1
  H+  H12  1  0.04035816  0.14052244  0.81437065  1
  H+  H13  1  0.47224565  0.36267777  0.50297556  1
  H+  H14  1  0.47809278  0.12411239  0.17080390  1
  H+  H15  1  0.14558087  0.76239803  0.16955040  1
  H+  H16  1  0.36827720  0.39201746  0.49348257  1
  H+  H17  1  0.85910289  0.74224580  0.33357845  1
  H+  H18  1  0.86351122  0.13521724  1.00531993  1
  H+  H19  1  0.37188819  0.64431888  0.49430564  1
  H+  H20  1  0.71413711  0.35411090  0.50401415  1
  H+  H21  1  0.34998072  0.11340215  0.81918416  1
  H+  H22  1  0.42396106  0.34098796  0.26412394  1
  H+  H23  1  0.52982438  0.40113192  0.33632436  1
  H+  H24  1  0.63278644  0.61174515  0.84475541  1
  H+  H25  1  0.26471059  0.63025652  0.82606526  1
  H+  H26  1  0.53144156  0.37672975  0.82654611  1
  H+  H27  1  0.39052342  0.52777524  0.17525927  1
  H+  H28  1  0.39470607  0.36797916  0.32497683  1
  H+  H29  1  0.62608819  0.85324972  0.00947177  1
  H+  H30  1  0.39206979  0.85655632  0.64835705  1
  H+  H31  1  0.58179428  0.16765762  0.38872065  1
  H+  H32  1  0.36525370  0.72491954  0.66918916  1
  H+  H33  1  0.61030404  0.12920619  1.00311397  1
  H+  H34  1  0.46784244  0.85514155  0.00245052  1
  H+  H35  1  0.50921971  0.37936745  -0.00226055  1
  H+  H36  1  0.43668863  0.84654766  0.55191667  1
  H+  H37  1  0.90006762  0.65056332  0.64790758  1
  H+  H38  1  0.66146901  0.82961665  0.23932376  1
  H+  H39  1  0.50609386  0.85352945  0.77475580  1
  H+  H40  1  0.58909273  0.13663747  0.48495360  1
  H+  H41  1  0.07716860  0.66390580  0.76500263  1
  H+  H42  1  0.35693533  0.22490221  0.48872762  1
  H+  H43  1  0.14044447  0.87155778  0.31400371  1
  H+  H44  1  0.76382718  0.13054471  0.15551835  1
  H+  H45  1  0.64931130  0.78479830  0.51145416  1
  H+  H46  1  1.10155988  0.42565262  0.73190154  1
  H+  H47  1  0.39713400  0.25167428  0.83791309  1
  H+  H48  1  0.39121717  0.61667714  0.66478254  1
  H+  H49  1  0.85940375  0.73102468  0.02710906  1
  H+  H50  1  0.60258076  0.96576289  0.03590659  1
  H+  H51  1  0.24882227  0.85677031  0.16529623  1
  H+  H52  1  0.38833356  0.02764926  0.31515006  1
  H+  H53  1  0.85821771  0.47127198  1.00916850  1
  H+  H54  1  0.36553570  0.96489044  0.66652918  1
  H+  H55  1  0.59482694  0.22903317  0.48439539  1
  H+  H56  1  0.96330910  0.35229244  0.17579978  1
  H+  H57  1  0.61443777  0.49243627  0.33537590  1
  H+  H58  1  0.62541297  0.52298475  0.49947014  1
  H+  H59  1  0.22198588  0.11426350  0.19930062  1
  H+  H60  1  0.61131349  0.64366387  0.49862902  1
  H+  H61  1  0.62375294  0.85094089  0.18121090  1
  H+  H62  1  1.00246954  0.88283012  0.49400768  1
  H+  H63  1  0.12929395  1.01380277  0.83683231  1
  H+  H64  1  0.38288028  0.09364297  0.65514062  1
  H+  H65  1  0.14347086  0.27815853  0.84439168  1
  H+  H66  1  0.48375738  0.61219059  0.17588454  1
  H+  H67  1  0.51438741  0.87513530  0.33603801  1
  H+  H68  1  0.62308584  0.50524604  0.65898290  1
  H+  H69  1  -0.01935297  0.36220894  0.32452887  1
  H+  H70  1  0.86144500  0.88461857  0.16016802  1
  H+  H71  1  1.02209912  0.64042998  0.82742413  1
  H+  H72  1  0.24082767  0.61116341  0.33144915  1
  H+  H73  1  0.52890841  0.13724244  0.32789611  1
  H+  H74  1  0.38191024  0.61380114  0.84238029  1
  H+  H75  1  0.63043210  0.02476066  0.64138770  1
  H+  H76  1  0.37724074  1.02196658  0.49398624  1
  H+  H77  1  0.85248366  -0.00546926  0.66543867  1
  H+  H78  1  0.39629052  0.52515061  0.32846680  1
  H+  H79  1  0.97535504  0.36083159  0.99158368  1
  H+  H80  1  0.93649879  0.08453236  0.65531217  1
  H+  H81  1  0.99698649  0.66872919  0.64561620  1
  H+  H82  1  0.72578393  0.85516835  0.84923615  1
  H+  H83  1  1.02785807  0.88743263  0.32684074  1
  H+  H84  1  0.62945689  0.00916239  0.31617079  1
  H+  H85  1  0.11896765  0.13094360  0.49160945  1
  H+  H86  1  0.72311726  0.60973187  1.00191092  1
  H+  H87  1  0.88862920  0.62220383  0.84728575  1
  H+  H88  1  0.17248800  0.86929435  0.63288010  1
  H+  H89  1  0.12550436  0.72967970  0.66718262  1
  H+  H90  1  0.90616017  0.27270498  0.50540881  1
  H+  H91  1  0.08021069  0.64791626  0.29045301  1
  H+  H92  1  0.39227537  0.86259026  0.31355369  1
  H+  H93  1  0.40305983  0.06234277  0.59339400  1
  H+  H94  1  0.09034804  0.66132345  0.41961310  1
  H+  H95  1  0.36271426  0.48069961  0.82369648  1
  H+  H96  1  0.24683611  0.25674449  0.71877749  1
  H+  H97  1  0.61144639  0.72505233  0.84018215  1
  H+  H98  1  0.84428001  0.95433500  0.83617526  1
  H+  H99  1  0.37533839  0.48215018  0.67283809  1
  H+  H100  1  0.38283066  0.24697724  1.00267885  1
  H+  H101  1  0.65964683  1.06758261  0.21733592  1
  H+  H102  1  0.61583822  0.13396630  0.66605208  1
  H+  H103  1  0.13162170  0.03221766  0.66367010  1
  H+  H104  1  0.64509141  0.67893087  0.69585335  1
  H+  H105  1  0.38940514  0.11094237  0.98338329  1
  H+  H106  1  1.01783804  0.89321319  1.01963339  1
  H+  H107  1  0.17985548  0.82469500  0.54752929  1
  H+  H108  1  0.25144928  0.64443549  0.17922244  1
  H+  H109  1  0.63176734  0.52243191  0.84090097  1
  H+  H110  1  0.85210628  0.63849662  0.47814404  1
  H+  H111  1  0.35828543  0.62997065  1.01038116  1
  H+  H112  1  0.79890914  0.41363589  0.84685886  1
  H+  H113  1  0.73555782  0.11238419  1.00475980  1
  H+  H114  1  0.36188210  0.23754133  0.16866009  1
  H+  H115  1  0.60792454  0.25567361  0.65217297  1
  H+  H116  1  0.37815273  0.73581619  0.48592680  1
  H+  H117  1  0.48181911  0.85930275  0.64448636  1
  H+  H118  1  0.82940932  0.15404205  0.43275876  1
  H+  H119  1  0.97733964  0.86962006  0.16984243  1
  H+  H120  1  0.76159518  0.63355904  0.48550330  1
  H+  H121  1  0.47184435  0.61538106  0.84450039  1
  H+  H122  1  0.16041902  0.57754574  0.89900925  1
  H+  H123  1  0.27001339  0.87532438  -0.00034370  1
  H+  H124  1  0.90144401  0.54043220  0.85645457  1
  H+  H125  1  0.87967627  1.02349272  -0.00315614  1
  H+  H126  1  0.11895756  0.88510840  0.48545041  1
  H+  H127  1  0.10445578  0.90131697  0.69464760  1
  H+  H128  1  0.39111581  0.12191036  0.32141390  1
  H+  H129  1  0.81860816  0.67944283  0.39371494  1
  H+  H130  1  0.85809334  0.35979713  0.49367648  1
  H+  H131  1  0.61045588  0.21845719  -0.00094039  1
  H+  H132  1  0.89727527  0.61265610  0.14762831  1
  H+  H133  1  0.77981613  0.13450785  0.82083336  1
  H+  H134  1  0.61846830  0.72202789  0.16442250  1
  H+  H135  1  0.14664030  0.36731083  0.33162853  1
  H+  H136  1  0.14305177  0.78315813  0.31525709  1
  H+  H137  1  0.88751033  0.61576419  1.01021687  1
  H+  H138  1  0.71819765  0.11363330  0.64501444  1
  H+  H139  1  0.02875983  0.38365131  0.82023786  1
  H+  H140  1  0.75513097  0.62819759  0.67267381  1
  H+  H141  1  0.88128179  0.77185556  0.84638186  1
  H+  H142  1  0.03438500  0.39793443  0.49029837  1
  H+  H143  1  0.77195706  0.88500953  0.16395750  1
  H+  H144  1  0.13048697  0.60799312  0.83929037  1
  H+  H145  1  0.82509059  0.66269413  0.77134484  1
  H+  H146  1  0.89653373  0.24439278  0.34833008  1
  H+  H147  1  0.60616887  0.39269272  0.48670401  1
  H+  H148  1  0.47071546  0.60596849  0.99796242  1
  H+  H149  1  0.88037294  1.02289841  0.16689598  1
  H+  H150  1  0.33649674  -0.04808952  0.82323018  1
  H+  H151  1  0.22675216  0.11162956  1.00403864  1
  H+  H152  1  1.00815843  0.88785321  0.83853422  1
  H+  H153  1  0.12073789  0.47130046  0.33562461  1
  H+  H154  1  0.89390670  0.53706431  0.51297116  1
  H+  H155  1  0.60212144  0.37617975  0.67084929  1
  H+  H156  1  0.88979321  0.11035329  0.50497348  1
  H+  H157  1  0.64683273  0.26296547  0.31055963  1
  H+  H158  1  0.97777296  0.85824400  0.65233070  1
  H+  H159  1  0.36846824  0.48171541  0.49471636  1
  H+  H160  1  0.02419487  0.63172875  0.01418611  1
  H+  H161  1  0.77120668  0.38212116  0.15347641  1
  H+  H162  1  0.10741691  -0.01964408  1.01563240  1
  H+  H163  1  0.84544915  0.88152612  0.69478770  1
  H+  H164  1  0.38861388  0.37131395  0.17074133  1
  H+  H165  1  0.22626638  0.36174279  -0.00214263  1
  H+  H166  1  0.87359808  0.85733707  1.00334990  1
  H+  H167  1  0.11401686  0.47628473  0.82395635  1
  H+  H168  1  0.68000241  0.84184475  0.59897889  1
  H+  H169  1  0.35832929  0.96753099  0.00114776  1
  H+  H170  1  0.73329441  0.46503217  0.89241706  1
  H+  H171  1  0.36280934  0.38269935  0.01350277  1
  H+  H172  1  0.42212610  0.21080627  0.04897118  1
  H+  H173  1  0.35538781  0.13481522  0.48845947  1
  H+  H174  1  0.63588223  0.09936126  0.31352999  1
  H+  H175  1  0.22850598  0.61692579  0.65842164  1
  H+  H176  1  0.14731653  0.62175153  0.50161380  1
  H+  H177  1  0.88984990  0.77934983  0.15597601  1
  H+  H178  1  1.03367155  0.13689592  0.48762560  1
  H+  H179  1  0.14114950  0.39627494  0.66880467  1
  H+  H180  1  0.22252824  0.60583969  -0.00584866  1
  H+  H181  1  0.47976816  0.62148197  0.51002354  1
  H+  H182  1  0.77748771  0.63804129  0.12395310  1
  H+  H183  1  0.12692512  0.64191712  0.16479220  1
  H+  H184  1  0.13414657  0.60654679  -0.00546730  1
  H+  H185  1  0.13100638  0.10141207  0.29770099  1
  H+  H186  1  0.62948542  0.35458188  -0.00429356  1
  H+  H187  1  0.47142306  0.35568392  0.66129877  1
  H+  H188  1  0.91112756  0.32290506  0.27115433  1
  H+  H189  1  0.07350697  0.15962157  0.24493622  1
  H+  H190  1  0.69095985  0.36970118  0.91557285  1
  H+  H191  1  0.13800786  0.27914099  0.18768032  1
  H+  H192  1  0.88215789  0.10689429  0.32404436  1
  H+  H193  1  0.77358968  0.06456855  0.46383931  1
  H+  H194  1  0.27758760  0.88467395  0.47591642  1
  H+  H195  1  0.38847728  0.77247127  0.32083626  1
  H+  H196  1  0.28651158  0.39743257  0.33996640  1
  H+  H197  1  0.10673680  0.63442538  0.66799212  1
  H+  H198  1  0.86924724  0.22286523  0.82137386  1
  H+  H199  1  0.84027944  0.71957087  0.67229417  1
  H+  H200  1  0.87314371  0.26544745  0.17629193  1
  H+  H201  1  0.03204791  0.63622314  0.15936688  1
  H+  H202  1  0.17653053  0.26626607  0.68367613  1
  H+  H203  1  0.60733259  0.46428904  0.00255179  1
  H+  H204  1  0.36604035  0.21867104  0.66890868  1
  H+  H205  1  0.78356032  0.30978435  0.44834568  1
  H+  H206  1  0.90275171  0.88417635  0.49267791  1
  H+  H207  1  0.64040429  1.01975117  0.84307867  1
  H+  H208  1  1.02813959  0.63795944  0.47670013  1
  H+  H209  1  0.60409097  0.22259825  0.83236086  1
  H+  H210  1  0.33504436  0.86343926  0.82955163  1
  H+  H211  1  0.60810011  0.62993928  1.01115336  1
  H+  H212  1  0.56617764  0.07005895  0.80150990  1
  H+  H213  1  0.72554288  0.86890889  0.66716440  1
  H+  H214  1  0.86874009  0.52299139  0.67812578  1
  H+  H215  1  0.48264374  0.62215742  0.66468908  1
  H+  H216  1  0.73603102  0.63300616  0.31362714  1
  H+  H217  1  0.92460808  0.32354180  0.89810829  1
  H+  H218  1  0.10326106  0.97649268  0.17645819  1
  H+  H219  1  0.38016373  0.89901547  0.15319693  1
  H+  H220  1  0.68350887  0.09516305  0.49006495  1
  H+  H221  1  0.76076104  0.45286410  0.37259873  1
  H+  H222  1  0.13254291  0.48972918  0.66852023  1
  H+  H223  1  0.74275921  0.86721763  0.50860156  1
  H+  H224  1  0.27465350  0.39211443  0.16506528  1
  H+  H225  1  0.35891426  0.46996871  0.01058805  1
  H+  H226  1  0.87154042  0.85500598  0.84682397  1
  H+  H227  1  0.63068142  0.85838511  0.33278112  1
  H+  H228  1  0.89372860  0.07116878  0.25972575  1
  H+  H229  1  0.16371747  0.28661013  0.32982623  1
  H+  H230  1  0.87630222  0.11160101  0.16661926  1
  H+  H231  1  0.46211164  0.11349693  0.49747002  1
  H+  H232  1  0.45260465  0.85675177  0.85393417  1
  H+  H233  1  0.17112564  0.58682510  0.59754256  1
  H+  H234  1  0.38188596  0.65115964  0.16348775  1
  H+  H235  1  0.83243441  0.41782706  0.68484997  1
  H+  H236  1  0.37921743  0.85741321  1.00057232  1
  H+  H237  1  0.37368908  0.63762888  0.33802967  1
  H+  H238  1  0.91460499  0.04667488  0.77488782  1
  H+  H239  1  0.23221389  0.10423390  0.82685936  1
  H+  H240  1  0.87632685  0.98077077  0.48424511  1
  H+  H241  1  0.59732328  0.20791307  0.86488898  1
  H+  H242  1  0.37692397  0.23156282  0.33271482  1
  H+  H243  1  0.23768963  0.62500454  0.50518885  1
  H+  H244  1  0.52170235  0.63362459  0.34443076  1
  H+  H245  1  0.76713157  0.88466020  1.01391641  1
  H+  H246  1  0.66490196  0.64265562  0.27572687  1
  H+  H247  1  0.44293783  0.06284217  0.82531693  1
  H+  H248  1  0.86300389  0.22564403  0.00326069  1
  H+  H249  1  0.23693953  0.36147490  0.51220783  1
  H+  H250  1  0.64769950  0.61071684  0.15814504  1
  H+  H251  1  0.63130705  0.35511047  0.16001504  1
  H+  H252  1  0.12169665  0.48693362  0.48763221  1
  H+  H253  1  0.02593896  0.16011220  0.69497397  1
  H+  H254  1  0.47422949  0.10493687  0.98230650  1
  H+  H255  1  0.88845289  0.25232717  0.65141125  1
  H+  H256  1  0.83540807  0.11157975  0.66600282  1
  H+  H257  1  0.63647303  0.85508960  0.85439407  1
  H+  H258  1  0.89811636  0.35864439  0.84197213  1
  H+  H259  1  0.63037677  0.40433033  0.82747054  1
  H+  H260  1  0.24568270  0.38506359  0.65959404  1
  H+  H261  1  0.60714382  0.71880527  0.01357393  1
  H+  H262  1  0.27893946  0.12822553  0.66648634  1
  H+  H263  1  0.35695308  0.71853096  0.01065417  1
  H+  H264  1  0.85630700  -0.02617179  0.33394276  1
  H+  H265  1  0.63421542  0.77147162  0.33255072  1
  H+  H266  1  0.38775537  0.13051653  0.17788595  1
  H+  H267  1  0.90376271  0.51863000  0.66181428  1
  H+  H268  1  0.88556519  0.35970098  0.98911336  1
  H+  H269  1  0.16768217  0.13356861  0.66241616  1
  H+  H270  1  1.04172959  0.14487097  0.66844997  1
  H+  H271  1  0.47627049  0.36664756  0.16539488  1
  H+  H272  1  0.20671544  0.85687229  0.83196260  1
  H+  H273  1  0.14165143  0.76994595  0.48686931  1
  H+  H274  1  0.96770714  0.11101755  0.99070241  1
  H+  H275  1  0.60434914  0.58082602  0.64653886  1
  H+  H276  1  0.22900916  0.11187074  0.50085609  1
  H+  H277  1  0.95184784  0.76994801  0.61996802  1
  H+  H278  1  0.76806775  0.63353152  0.83156215  1
  H+  H279  1  0.57781036  0.42746785  0.42850921  1
  H+  H280  1  0.63053982  0.10126540  0.16114526  1
  H+  H281  1  0.12374111  0.97799501  0.48835144  1
  H+  H282  1  0.55108023  0.95580225  0.49648474  1
  H+  H283  1  0.88665136  0.33724853  0.65342529  1
  H+  H284  1  0.14303116  0.76189113  -0.00979319  1
  H+  H285  1  0.10821988  0.47197570  1.00523835  1
  H+  H286  1  0.41991875  0.37309329  0.94249895  1
  H+  H287  1  0.10059551  0.37907040  0.16243842  1
  H+  H288  1  0.57330828  0.40352247  0.08837911  1
  H+  H289  1  0.17801529  0.34998818  0.23714395  1
  H+  H290  1  0.64831058  0.32815062  0.55960473  1
  H+  H291  1  0.93247258  0.84441574  0.55460884  1
  H+  H292  1  0.82061990  0.15612507  0.72438389  1
  H+  H293  1  0.89341509  0.55851770  0.36120936  1
  H+  H294  1  0.41835055  0.58843979  0.56792655  1
  H+  H295  1  0.40341850  0.06478769  0.89162495  1
  H+  H296  1  0.14294126  0.11660708  0.99497811  1
  H+  H297  1  0.17023800  0.33758348  0.93652642  1
  H+  H298  1  0.51745428  0.94801128  0.78021320  1
  H+  H299  1  0.90659828  0.06867379  0.56246320  1
  H+  H300  1  0.07972024  0.16780975  0.05942748  1
  H+  H301  1  0.42719071  0.58622828  0.26870830  1
  H+  H302  1  0.73443579  0.35206553  0.30618367  1
  H+  H303  1  0.09086600  0.66336540  0.06932804  1
  H+  H304  1  0.56689455  0.15687321  0.09456284  1
  H+  H305  1  0.59122423  0.92948611  0.71042677  1
  H+  H306  1  0.58214150  0.41197338  0.73280548  1
  H+  H307  1  0.32836522  0.90483199  0.09464377  1
  H+  H308  1  0.88940353  0.87046094  0.31794887  1
  H+  H309  1  0.89171407  0.52383866  0.16133337  1
  H+  H310  1  0.77070234  0.88221760  0.34047608  1
  H+  H311  1  0.72209248  0.35779188  1.00044905  1
  H+  H312  1  0.42075101  0.09624803  0.24288504  1
  H+  H313  1  0.92574597  0.32392398  0.56778808  1
  H+  H314  1  0.34990917  0.72039731  0.83254728  1
  H+  H315  1  0.17923099  0.83380994  0.22839558  1
  H+  H316  1  0.39707231  0.82111788  0.91401768  1
  H+  H317  1  0.54905162  0.88963298  0.08254508  1
  H+  H318  1  0.66491159  0.32323914  0.21752433  1
  H+  H319  1  0.11975217  0.17277107  0.39816369  1
  H+  H320  1  0.84280805  0.91830740  0.42439455  1
  H+  H321  1  0.34494727  0.42415379  0.39972041  1
  H+  H322  1  0.63938103  0.08036068  0.55391044  1
  H+  H323  1  0.44193624  0.79164650  0.15495578  1
  H+  H324  1  0.27551598  0.39214466  0.82314686  1
  H+  H325  1  0.89747744  0.64784793  0.35185407  1
  H+  H326  1  0.52511465  0.07724961  0.74103921  1
  H+  H327  1  0.65946265  0.57666003  0.56068999  1
  H+  H328  1  0.08804797  0.41709234  0.39662492  1
  H+  H329  1  0.13987289  0.36526669  0.83927187  1
  H+  H330  1  0.83052666  0.91733736  0.07059469  1
  H+  H331  1  0.85886439  0.38002364  0.16080631  1
  H+  H332  1  0.60900046  0.63204453  0.35455757  1
  H+  H333  1  0.58541532  0.66314462  0.10412468  1
  H+  H334  1  0.08772357  0.91571703  0.38499395  1
  H+  H335  1  0.18042884  0.34034104  0.60096965  1
  H+  H336  1  0.34015798  0.92498032  0.38173429  1
  H+  H337  1  0.32912499  0.15204598  0.75912277  1
  H+  H338  1  0.33936566  0.42369222  0.73342389  1
  H+  H339  1  0.82208023  0.42675841  0.40419812  1
  H+  H340  1  0.83196746  0.40878266  0.06626064  1
  H+  H341  1  0.17027734  0.07972950  0.56164290  1
  H+  H342  1  0.83097917  0.16784236  0.09976729  1
  H+  H343  1  0.14221717  0.11483753  0.83519109  1
  H+  H344  1  0.18863125  0.60033094  0.23566934  1
  H+  H345  1  0.60512109  0.22187711  0.15089618  1
  H+  H346  1  0.15109588  0.26967322  0.51429657  1
  H+  H347  1  0.58127917  0.67650220  0.44195719  1
  H+  H348  1  0.86045680  0.44671502  0.78858088  1
  H+  H349  1  0.33206757  0.67017205  0.73199400  1
  H+  H350  1  0.69015132  0.57885259  0.20680129  1
  H+  H351  1  0.34401443  0.66853178  0.39726133  1
  H+  H352  1  0.81321192  0.90361827  0.76728473  1
  H+  H353  1  0.94905935  0.21071491  0.38718995  1
  H+  H354  1  0.16409039  0.82148614  0.93104905  1
  H+  H355  1  0.61336713  0.46930829  0.14364295  1
  H+  H356  1  0.02006198  0.65234107  0.34168036  1
  H+  H357  1  0.66914851  0.58373368  0.93936318  1
  H+  H358  1  0.12685652  0.18955231  0.77305893  1
  H+  H359  1  0.09610203  0.88320257  0.83111440  1
  H+  H360  1  0.37184222  0.89559199  0.47669794  1
  H+  H361  1  0.65897195  0.82788667  0.94869984  1
  H+  H362  1  0.93399691  0.62158483  0.55345489  1
  H+  H363  1  0.06011072  0.92390122  0.74530436  1
  H+  H364  1  0.55914422  0.89891675  0.40104127  1
  H+  H365  1  0.41153450  0.57891330  0.93815862  1
  H+  H366  1  0.34703085  0.67506779  0.10388586  1
  H+  H367  1  0.58134534  0.67536155  0.77704760  1
  H+  H368  1  0.07862959  0.92701357  0.11192302  1
  H+  H369  1  0.41375120  0.32966669  0.56327083  1
  H+  H370  1  0.33958427  0.16837940  0.38952601  1
  H+  H371  1  0.91798657  0.59643836  0.94686406  1
  H+  H372  1  0.33182739  0.41941774  0.10432246  1
  H+  H373  1  0.79208562  0.33510971  0.72656470  1
  H+  H374  1  0.06632170  0.40150821  0.10270464  1
  H+  H375  1  0.01311717  0.13732632  0.18844726  1
  H+  H376  1  0.89817660  0.11215488  0.81138965  1
  H+  H377  1  0.63673730  0.19381464  0.72349461  1
  H+  H378  1  0.43536464  0.30128644  0.90029439  1
  H+  H379  1  0.90254219  0.82266521  0.94650241  1
  H+  H380  1  0.31998207  0.16941759  0.11503868  1
  H+  H381  1  0.67248673  0.03740292  0.96073704  1
  H+  H382  1  0.65772468  0.09890516  0.88357152  1
  H+  H383  1  0.91358024  0.83447184  0.25830362  1
  O2-  O384  1  0.07558530  0.16828403  0.20034787  1
  O2-  O385  1  0.09415960  0.16544654  0.47419264  1
  O2-  O386  1  0.10483156  0.17256747  0.81555443  1
  O2-  O387  1  0.06027928  0.39719633  0.14738960  1
  O2-  O388  1  0.09054194  0.42871630  0.46986851  1
  O2-  O389  1  0.08899665  0.41765474  0.80475534  1
  O2-  O390  1  0.09433010  0.66984521  0.14715953  1
  O2-  O391  1  0.08969120  0.66543021  0.46416384  1
  O2-  O392  1  0.08110075  0.66498136  0.81013191  1
  O2-  O393  1  0.07122863  0.91928263  0.15727640  1
  O2-  O394  1  0.08923101  0.91716958  0.47279794  1
  O2-  O395  1  0.06789264  0.91822540  0.81998635  1
  O2-  O396  1  0.32970351  0.17354789  0.15911131  1
  O2-  O397  1  0.32511777  0.16502272  0.47263047  1
  O2-  O398  1  0.32239398  0.14721175  0.80484947  1
  O2-  O399  1  0.33561969  0.42305617  0.14989577  1
  O2-  O400  1  0.33837609  0.42238667  0.47775947  1
  O2-  O401  1  0.33328624  0.42315225  0.80419744  1
  O2-  O402  1  0.36104133  0.68968138  0.14792643  1
  O2-  O403  1  0.34237856  0.67406312  0.47618214  1
  O2-  O404  1  0.32567120  0.66376880  0.81163867  1
  O2-  O405  1  0.32831508  0.90199286  0.14003816  1
  O2-  O406  1  0.33787967  0.92139102  0.46143551  1
  O2-  O407  1  0.30953995  0.89252332  0.80597302  1
  O2-  O408  1  0.56736912  0.15934343  0.13968525  1
  O2-  O409  1  0.56304231  0.16975594  0.46746507  1
  O2-  O410  1  0.51158453  0.04153311  0.77863261  1
  O2-  O411  1  0.57633546  0.40725137  0.13436940  1
  O2-  O412  1  0.57454394  0.42259599  0.47473943  1
  O2-  O413  1  0.58960644  0.41970352  0.80912501  1
  O2-  O414  1  0.59099378  0.66152436  0.14955779  1
  O2-  O415  1  0.58301280  0.67759482  0.48731202  1
  O2-  O416  1  0.57988113  0.66626718  0.82157062  1
  O2-  O417  1  0.49791524  0.84876383  0.15306934  1
  O2-  O418  1  0.52598315  0.89358374  0.48670786  1
  O2-  O419  1  0.54209867  0.91072320  0.79195832  1
  O2-  O420  1  0.82778636  0.16438394  0.14492172  1
  O2-  O421  1  0.80029650  0.12577219  0.47276902  1
  O2-  O422  1  0.83790495  0.16378824  0.80297188  1
  O2-  O423  1  0.83292516  0.41243892  0.14097194  1
  O2-  O424  1  0.81130051  0.36379555  0.47082398  1
  O2-  O425  1  0.85838207  0.43057038  0.83103772  1
  O2-  O426  1  0.83872684  0.67366819  0.10916094  1
  O2-  O427  1  0.81942812  0.66682438  0.46679324  1
  O2-  O428  1  0.82884670  0.66339658  0.81648101  1
  O2-  O429  1  0.83053994  0.91580167  0.14646973  1
  O2-  O430  1  0.84953046  0.91970631  0.47082456  1
  O2-  O431  1  0.81258517  0.89607012  0.81938667  1
  O2-  O432  1  0.16262486  0.08185427  0.21481684  1
  O2-  O433  1  0.16775782  0.07666443  0.51653886  1
  O2-  O434  1  0.17007804  0.07820986  0.84487626  1
  O2-  O435  1  0.17255638  0.34279138  0.19192546  1
  O2-  O436  1  0.18256177  0.32589558  0.53503122  1
  O2-  O437  1  0.17185527  0.33898348  0.85780513  1
  O2-  O438  1  0.19052863  0.61365865  0.19189789  1
  O2-  O439  1  0.17770062  0.59475817  0.52143727  1
  O2-  O440  1  0.15980167  0.57633368  0.85316059  1
  O2-  O441  1  0.18322984  0.82563185  0.18275027  1
  O2-  O442  1  0.17257001  0.83011614  0.50325817  1
  O2-  O443  1  0.14688757  0.83079599  0.84819679  1
  O2-  O444  1  0.41926927  0.10001487  0.19174563  1
  O2-  O445  1  0.40245084  0.07928382  0.51419809  1
  O2-  O446  1  0.39124030  0.05606856  0.84664440  1
  O2-  O447  1  0.41775216  0.33884504  0.18445913  1
  O2-  O448  1  0.41153913  0.33041380  0.51808921  1
  O2-  O449  1  0.44056822  0.30695791  0.85579112  1
  O2-  O450  1  0.42395057  0.58787032  0.19143511  1
  O2-  O451  1  0.41768011  0.58868746  0.52270631  1
  O2-  O452  1  0.41127441  0.58361263  0.85897007  1
  O2-  O453  1  0.47975806  0.91253329  0.16967548  1
  O2-  O454  1  0.43530132  0.85258331  0.50621486  1
  O2-  O455  1  0.39309610  0.82121610  0.86771203  1
  O2-  O456  1  0.66571958  0.07555240  0.17220879  1
  O2-  O457  1  0.62658047  0.07185851  0.50925034  1
  O2-  O458  1  0.66264477  0.08178860  0.84220543  1
  O2-  O459  1  0.66210656  0.32394567  0.17146315  1
  O2-  O460  1  0.65334465  0.33358634  0.51439484  1
  O2-  O461  1  0.71355439  0.40718949  0.87701795  1
  O2-  O462  1  0.68198106  0.58056526  0.16250208  1
  O2-  O463  1  0.65791948  0.58333455  0.51614048  1
  O2-  O464  1  0.66389330  0.58161012  0.85849678  1
  O2-  O465  1  0.66060543  0.82781520  0.19345058  1
  O2-  O466  1  0.68612180  0.84341174  0.52841590  1
  O2-  O467  1  0.66523927  0.82517382  0.86956537  1
  O2-  O468  1  0.90759850  0.08250271  0.18320765  1
  O2-  O469  1  0.92138691  0.08146222  0.51859199  1
  O2-  O470  1  0.93066067  0.08047533  0.81228067  1
  O2-  O471  1  0.90287742  0.32546564  0.19251995  1
  O2-  O472  1  0.92502906  0.33001297  0.52136912  1
  O2-  O473  1  0.92511260  0.32377180  0.85204806  1
  O2-  O474  1  0.92482806  0.58631705  0.17080403  1
  O2-  O475  1  0.92695494  0.59947211  0.51082182  1
  O2-  O476  1  0.92580037  0.60183930  0.86670875  1
  O2-  O477  1  0.91152944  0.83289806  0.17941518  1
  O2-  O478  1  0.93823039  0.85640898  0.50941638  1
  O2-  O479  1  0.90798178  0.83120091  0.86285995  1
  O2-  O480  1  0.09131457  0.11660067  0.31853526  1
  O2-  O481  1  0.17244643  0.08622079  0.64281889  1
  O2-  O482  1  0.17118811  0.08336980  0.98374085  1
  O2-  O483  1  0.18501517  0.34614501  0.31488104  1
  O2-  O484  1  0.18261661  0.35139925  0.64802346  1
  O2-  O485  1  0.16587010  0.33303155  0.98181040  1
  O2-  O486  1  0.17910539  0.57974722  0.31683355  1
  O2-  O487  1  0.16777128  0.58335957  0.64346208  1
  O2-  O488  1  0.16331809  0.57628563  0.97658995  1
  O2-  O489  1  0.17433933  0.84295179  0.29938289  1
  O2-  O490  1  0.19002708  0.82651042  0.62805552  1
  O2-  O491  1  0.17827117  0.82113953  0.97427462  1
  O2-  O492  1  0.42063408  0.09019438  0.30195242  1
  O2-  O493  1  0.40460288  0.05706635  0.63841782  1
  O2-  O494  1  0.41340085  0.07574126  0.96743031  1
  O2-  O495  1  0.42608213  0.33913089  0.30936351  1
  O2-  O496  1  0.41129544  0.32481276  0.64557105  1
  O2-  O497  1  0.42219805  0.34518779  0.97986757  1
  O2-  O498  1  0.42772294  0.58692877  0.31438488  1
  O2-  O499  1  0.42344459  0.58856513  0.64911142  1
  O2-  O500  1  0.40994505  0.57632604  0.98359227  1
  O2-  O501  1  0.42345663  0.83160211  0.30489890  1
  O2-  O502  1  0.42106026  0.82640627  0.63025850  1
  O2-  O503  1  0.40828174  0.82440217  0.98601548  1
  O2-  O504  1  0.66019718  0.06564523  0.29594878  1
  O2-  O505  1  0.65775034  0.08706126  0.62942877  1
  O2-  O506  1  0.67180815  0.07480069  0.99238632  1
  O2-  O507  1  0.67610168  0.32010219  0.29001612  1
  O2-  O508  1  0.63965985  0.31616666  0.63728448  1
  O2-  O509  1  0.66402788  0.32788102  0.98027787  1
  O2-  O510  1  0.67691131  0.59972423  0.29272026  1
  O2-  O511  1  0.64972692  0.56636900  0.64253963  1
  O2-  O512  1  0.66455612  0.57981818  0.98458301  1
  O2-  O513  1  0.66343196  0.83084608  0.31603605  1
  O2-  O514  1  0.66863818  0.84018461  0.64503183  1
  O2-  O515  1  0.65832469  0.82540192  0.99395936  1
  O2-  O516  1  0.89346454  0.06414214  0.30474465  1
  O2-  O517  1  0.87723450  0.05056293  0.64053101  1
  O2-  O518  1  0.90606159  0.08276177  0.98020517  1
  O2-  O519  1  0.91800979  0.32581225  0.31645966  1
  O2-  O520  1  0.92195014  0.31358922  0.63857704  1
  O2-  O521  1  0.91563860  0.32951967  0.97363772  1
  O2-  O522  1  0.93295137  0.62154827  0.36359227  1
  O2-  O523  1  0.95190476  0.67348906  0.62183944  1
  O2-  O524  1  0.91434087  0.58487191  0.99133980  1
  O2-  O525  1  0.91813733  0.83826380  0.30370063  1
  O2-  O526  1  0.93369479  0.81393040  0.62512381  1
  O2-  O527  1  0.90028121  0.82176198  0.99158938  1
  O2-  O528  1  0.08154605  0.16802968  0.01516496  1
  O2-  O529  1  0.14904423  0.18893726  0.35736763  1
  O2-  O530  1  0.18647231  0.22375122  0.70728171  1
  O2-  O531  1  0.07505099  0.41079565  0.01891703  1
  O2-  O532  1  0.08814344  0.41105818  0.35077594  1
  O2-  O533  1  0.10890291  0.42867029  0.68569216  1
  O2-  O534  1  0.08632984  0.65878561  0.02387127  1
  O2-  O535  1  0.08447215  0.67158924  0.33101290  1
  O2-  O536  1  0.08336225  0.67127314  0.68235291  1
  O2-  O537  1  0.07596208  0.92419538  0.03682480  1
  O2-  O538  1  0.08864511  0.91411538  0.34034411  1
  O2-  O539  1  0.06716953  0.92575684  0.69947591  1
  O2-  O540  1  0.37047546  0.19155543  0.02447526  1
  O2-  O541  1  0.34868483  0.16999685  0.34499532  1
  O2-  O542  1  0.33784822  0.15807860  0.68424233  1
  O2-  O543  1  0.32823350  0.41025768  0.02716760  1
  O2-  O544  1  0.34779867  0.42555685  0.35416225  1
  O2-  O545  1  0.34190829  0.42125438  0.68675453  1
  O2-  O546  1  0.32662347  0.65836650  0.02638584  1
  O2-  O547  1  0.34085984  0.66599614  0.35193548  1
  O2-  O548  1  0.33268980  0.66584141  0.68658503  1
  O2-  O549  1  0.33069833  0.90853253  0.01778900  1
  O2-  O550  1  0.34116793  0.92768738  0.33643896  1
  O2-  O551  1  0.33878737  0.90227527  0.68077405  1
  O2-  O552  1  0.57613876  0.15716134  0.01233887  1
  O2-  O553  1  0.58833077  0.16419127  0.34404437  1
  O2-  O554  1  0.59269478  0.16421265  0.69263982  1
  O2-  O555  1  0.57431976  0.40271536  0.01367922  1
  O2-  O556  1  0.58703079  0.43667789  0.35604454  1
  O2-  O557  1  0.57682843  0.41058671  0.68717560  1
  O2-  O558  1  0.57585730  0.65750510  0.02732985  1
  O2-  O559  1  0.58125905  0.66583219  0.36354029  1
  O2-  O560  1  0.59549842  0.68727710  0.69440123  1
  O2-  O561  1  0.56922944  0.90275655  0.03950638  1
  O2-  O562  1  0.57273960  0.90261193  0.35745527  1
  O2-  O563  1  0.58878949  0.92476889  0.66588026  1
  O2-  O564  1  0.83227704  0.16622951  0.02034677  1
  O2-  O565  1  0.89056352  0.19240250  0.37419184  1
  O2-  O566  1  0.81475016  0.15152292  0.67915926  1
  O2-  O567  1  0.82831493  0.40934188  0.02018425  1
  O2-  O568  1  0.81339027  0.45086916  0.36613449  1
  O2-  O569  1  0.79728880  0.35461111  0.68451574  1
  O2-  O570  1  0.83039189  0.66822799  0.04210239  1
  O2-  O571  1  0.82325683  0.68081691  0.34763448  1
  O2-  O572  1  0.81420337  0.66134068  0.68976097  1
  O2-  O573  1  0.82918030  0.91607704  0.02481633  1
  O2-  O574  1  0.83245942  0.91389680  0.35260020  1
  O2-  O575  1  0.81704342  0.91277750  0.70811530  1
