# generated using pymatgen
data_H2O
_symmetry_space_group_name_H-M   'P 1'
_cell_length_a   17.96433856
_cell_length_b   17.97278861
_cell_length_c   21.98278312
_cell_angle_alpha   89.99585456
_cell_angle_beta   90.01215986
_cell_angle_gamma   120.00909709
_symmetry_Int_Tables_number   1
_chemical_formula_structural   H2O
_chemical_formula_sum   'H384 O192'
_cell_volume   6146.10783776
_cell_formula_units_Z   192
loop_
 _symmetry_equiv_pos_site_id
 _symmetry_equiv_pos_as_xyz
  1  'x, y, z'
loop_
 _atom_type_symbol
 _atom_type_oxidation_number
  H+  1.0
  O2-  -2.0
loop_
 _atom_site_type_symbol
 _atom_site_label
 _atom_site_symmetry_multiplicity
 _atom_site_fract_x
 _atom_site_fract_y
 _atom_site_fract_z
 _atom_site_occupancy
  H+  H0  1  0.11899857  0.64468401  0.81822700  1
  H+  H1  1  0.01640640  0.62331670  0.00231250  1
  H+  H2  1  0.73276672  0.62166449  0.83550521  1
  H+  H3  1  0.88666301  0.98275165  0.48630107  1
  H+  H4  1  0.85054830  0.74237632  0.34445865  1
  H+  H5  1  0.88609555  0.58860986  0.65429281  1
  H+  H6  1  0.35568845  0.19486367  0.42585908  1
  H+  H7  1  0.36158411  0.72745877  0.00827940  1
  H+  H8  1  0.01297503  0.63930590  0.15702403  1
  H+  H9  1  0.10557631  0.89942362  0.32746228  1
  H+  H10  1  0.44804407  0.44656836  0.00740133  1
  H+  H11  1  0.89129296  0.76222714  0.49013573  1
  H+  H12  1  0.15965504  0.10096108  0.50304480  1
  H+  H13  1  0.61117210  0.84301872  0.32584095  1
  H+  H14  1  0.51335261  0.61586390  0.34307021  1
  H+  H15  1  0.16115780  0.87409288  0.80539931  1
  H+  H16  1  0.39095035  0.62209393  0.84460412  1
  H+  H17  1  0.11018524  0.35080538  0.36309323  1
  H+  H18  1  0.64169884  0.53526503  0.84021130  1
  H+  H19  1  0.38883865  0.83868962  0.67295637  1
  H+  H20  1  0.88803311  0.00073023  0.31652011  1
  H+  H21  1  0.25035897  0.87016585  0.33856149  1
  H+  H22  1  0.89094918  0.56125803  0.31887020  1
  H+  H23  1  0.11399908  0.22028958  0.84573185  1
  H+  H24  1  0.30043584  0.18362012  0.32900164  1
  H+  H25  1  0.89066273  0.36742519  0.50912485  1
  H+  H26  1  0.40132597  0.53635058  1.00873670  1
  H+  H27  1  -0.03093972  0.84830410  -0.01515770  1
  H+  H28  1  0.09421724  0.59460996  0.17221904  1
  H+  H29  1  0.89250232  0.12920420  1.00807138  1
  H+  H30  1  0.38699466  0.43207594  0.64087983  1
  H+  H31  1  0.44886417  0.34077053  0.34153295  1
  H+  H32  1  0.36126047  0.95662044  0.66766236  1
  H+  H33  1  0.12732714  0.48504126  0.99088504  1
  H+  H34  1  0.17066775  0.83250292  0.58850038  1
  H+  H35  1  0.37341257  1.01140377  0.18407897  1
  H+  H36  1  0.81497317  0.13251647  0.42435464  1
  H+  H37  1  0.10567989  0.26243506  0.43590727  1
  H+  H38  1  0.52476561  0.63476407  0.16218478  1
  H+  H39  1  0.64343736  0.77982673  -0.00394707  1
  H+  H40  1  0.39029861  0.10870429  1.00350195  1
  H+  H41  1  0.97779001  0.59645383  0.65117301  1
  H+  H42  1  0.15897040  0.04344781  0.32323139  1
  H+  H43  1  0.88534876  0.35973122  -0.00903527  1
  H+  H44  1  0.12922539  0.20384109  0.47467734  1
  H+  H45  1  0.47994382  0.10976072  -0.00007853  1
  H+  H46  1  0.89286596  0.85519060  0.82994630  1
  H+  H47  1  0.86161036  0.32255515  0.33736546  1
  H+  H48  1  0.63036771  0.73153473  0.66896303  1
  H+  H49  1  0.40557780  0.33920353  0.66888336  1
  H+  H50  1  0.71197294  0.08967868  0.32649062  1
  H+  H51  1  0.87714649  0.34851014  0.83703360  1
  H+  H52  1  0.63064971  0.60335418  0.16928397  1
  H+  H53  1  0.58058659  0.18754352  0.34439202  1
  H+  H54  1  0.36856490  0.88445925  1.01061708  1
  H+  H55  1  0.39164457  0.62847775  0.50278846  1
  H+  H56  1  0.62152626  0.88452013  0.82657782  1
  H+  H57  1  0.62421568  0.89898619  0.15490658  1
  H+  H58  1  0.14629194  0.54039027  0.50856318  1
  H+  H59  1  0.84987722  0.10523588  0.33851107  1
  H+  H60  1  0.12435517  0.77767246  0.31973730  1
  H+  H61  1  0.38435371  0.26397802  0.18169325  1
  H+  H62  1  0.57491885  -0.09948555  0.42942185  1
  H+  H63  1  0.87673324  0.61587373  0.16376685  1
  H+  H64  1  0.36042683  -0.00585962  0.33466503  1
  H+  H65  1  0.86768250  0.97276863  0.82213136  1
  H+  H66  1  0.37298687  0.10376120  0.19098990  1
  H+  H67  1  0.73653519  0.34413561  0.65483966  1
  H+  H68  1  0.41222566  0.83891328  0.27306391  1
  H+  H69  1  0.10853008  0.71861859  0.66039950  1
  H+  H70  1  0.31818548  0.35146928  0.31843682  1
  H+  H71  1  0.96082739  0.85792946  0.16417690  1
  H+  H72  1  0.37721119  0.50319428  0.50608680  1
  H+  H73  1  0.66363550  1.03757587  0.16341327  1
  H+  H74  1  0.09883288  0.21030318  -0.00723784  1
  H+  H75  1  0.72121931  0.85338024  0.18526299  1
  H+  H76  1  0.61642083  -0.03842305  0.66879021  1
  H+  H77  1  0.94990483  0.50752443  0.39195258  1
  H+  H78  1  0.27961490  0.88523873  0.43791838  1
  H+  H79  1  0.63372395  0.09989436  0.65772143  1
  H+  H80  1  0.61094433  0.21789144  0.82109313  1
  H+  H81  1  0.76314683  0.62656519  0.15186189  1
  H+  H82  1  0.73940757  0.09265534  1.02993408  1
  H+  H83  1  0.11030335  0.60689182  0.32821305  1
  H+  H84  1  0.48234891  0.09370606  0.64900460  1
  H+  H85  1  0.85409208  0.11653149  0.49133791  1
  H+  H86  1  0.53532001  0.65182384  0.66920838  1
  H+  H87  1  0.61406433  0.38313783  0.49498185  1
  H+  H88  1  0.81741632  0.91847725  0.08739255  1
  H+  H89  1  0.48616146  0.86284917  0.83822901  1
  H+  H90  1  0.22878720  0.60253930  0.66681188  1
  H+  H91  1  0.50679961  0.87082520  0.33938984  1
  H+  H92  1  0.10620721  0.87631112  1.02472847  1
  H+  H93  1  0.38712997  0.03274456  0.85458758  1
  H+  H94  1  0.47332901  0.85314756  -0.00301069  1
  H+  H95  1  0.32297083  0.90922903  0.90380099  1
  H+  H96  1  0.77026455  0.37827601  0.00636706  1
  H+  H97  1  0.27036165  0.12929368  0.16730446  1
  H+  H98  1  0.52383025  0.39386461  0.85139869  1
  H+  H99  1  0.25878827  0.36439399  0.27091447  1
  H+  H100  1  0.87904759  0.13444243  0.82493137  1
  H+  H101  1  0.94650474  0.83241449  0.62335352  1
  H+  H102  1  0.63141191  0.14619694  0.15787659  1
  H+  H103  1  0.38319505  0.10731815  0.49720052  1
  H+  H104  1  0.12429322  0.88876485  0.67016908  1
  H+  H105  1  0.88042592  0.76087431  -0.01908485  1
  H+  H106  1  0.37183047  0.50555691  0.31724334  1
  H+  H107  1  0.41636438  0.55288691  0.64144726  1
  H+  H108  1  0.11083397  0.96609543  0.01011182  1
  H+  H109  1  0.60299034  0.12019585  0.49751163  1
  H+  H110  1  0.28135055  0.88951655  0.83756482  1
  H+  H111  1  0.63986461  0.35365415  0.84246057  1
  H+  H112  1  0.98215680  0.13965717  0.50106711  1
  H+  H113  1  0.09167287  0.21252883  0.34500274  1
  H+  H114  1  1.13093755  0.98181447  0.66991029  1
  H+  H115  1  0.15343147  0.31481876  0.52307790  1
  H+  H116  1  0.09679349  0.48554354  0.68217438  1
  H+  H117  1  0.78027412  0.63239125  0.66907117  1
  H+  H118  1  0.87256290  0.22853344  0.82738601  1
  H+  H119  1  0.13074056  0.35422495  -0.03759405  1
  H+  H120  1  0.38644237  0.62222119  0.66479800  1
  H+  H121  1  0.13331644  0.76429802  1.02751617  1
  H+  H122  1  0.27936263  0.65591599  0.49699297  1
  H+  H123  1  0.22264030  0.11329418  0.85057346  1
  H+  H124  1  0.39157566  0.75278749  0.67699448  1
  H+  H125  1  0.24389889  0.10551686  0.65520523  1
  H+  H126  1  0.09402081  0.92516635  0.76621510  1
  H+  H127  1  0.07077385  0.91076191  0.10183386  1
  H+  H128  1  1.01873905  0.11932258  1.00533655  1
  H+  H129  1  0.61549152  0.33013099  -0.00400294  1
  H+  H130  1  0.87944616  0.90044657  0.67097415  1
  H+  H131  1  0.87161077  0.76939353  0.15765794  1
  H+  H132  1  0.12283404  0.41355724  0.50409811  1
  H+  H133  1  0.58507895  0.36769410  0.34372126  1
  H+  H134  1  0.91115443  0.31487329  0.27996720  1
  H+  H135  1  0.13659049  1.02076761  0.84278081  1
  H+  H136  1  0.52832668  0.38957072  0.49817289  1
  H+  H137  1  1.01992280  0.23829587  0.72994528  1
  H+  H138  1  0.15895448  0.78511453  0.80109581  1
  H+  H139  1  0.25260305  0.11393932  0.49448115  1
  H+  H140  1  0.41980606  0.80552909  0.17741244  1
  H+  H141  1  0.61463298  0.64342658  0.82398399  1
  H+  H142  1  0.78832993  0.89513177  0.66183635  1
  H+  H143  1  0.76401391  0.37499288  0.49246848  1
  H+  H144  1  0.88910091  0.19791995  0.08545404  1
  H+  H145  1  0.08150268  0.43126912  0.89279073  1
  H+  H146  1  0.87338840  0.14487692  0.17180898  1
  H+  H147  1  0.17279332  0.58527332  0.60517820  1
  H+  H148  1  0.77874934  0.63202736  0.49014909  1
  H+  H149  1  -0.02360730  0.60611377  0.83120257  1
  H+  H150  1  0.12856621  0.97173094  0.48656705  1
  H+  H151  1  0.19520938  0.34217045  0.35341710  1
  H+  H152  1  0.47787972  0.61803580  0.84360492  1
  H+  H153  1  0.71962378  0.60884319  0.32558583  1
  H+  H154  1  0.85403383  0.46395282  0.48377792  1
  H+  H155  1  0.91931011  0.35298707  0.57359141  1
  H+  H156  1  0.87301463  0.71532768  0.67786039  1
  H+  H157  1  0.87831094  0.45413700  0.66138793  1
  H+  H158  1  0.58515110  0.96075492  -0.00651345  1
  H+  H159  1  0.17777106  0.36150967  0.61100662  1
  H+  H160  1  0.88715569  0.53095127  0.16938537  1
  H+  H161  1  0.85423870  0.87678842  0.15845920  1
  H+  H162  1  0.75156431  0.10379473  0.49080194  1
  H+  H163  1  0.15607176  0.35519134  0.19832305  1
  H+  H164  1  0.62178342  0.08832570  0.32667173  1
  H+  H165  1  0.64157740  0.52054223  0.50612220  1
  H+  H166  1  0.23303284  0.61707613  0.99520667  1
  H+  H167  1  0.74576634  0.86735950  0.49086439  1
  H+  H168  1  0.14699538  0.62849463  0.50816768  1
  H+  H169  1  0.12311289  0.34670922  0.86914205  1
  H+  H170  1  0.63249666  0.76054488  0.18035993  1
  H+  H171  1  0.15897289  0.55686691  0.17239961  1
  H+  H172  1  0.39554879  0.22680318  0.02665087  1
  H+  H173  1  0.27064781  0.88816528  0.16088387  1
  H+  H174  1  0.02937667  0.40579036  0.50532479  1
  H+  H175  1  0.78642328  0.15028095  0.16860125  1
  H+  H176  1  0.36987889  0.97526278  0.01020363  1
  H+  H177  1  0.75866776  0.62088999  0.99936888  1
  H+  H178  1  0.03781027  0.43483162  0.18903963  1
  H+  H179  1  0.22530093  0.85215287  0.64881159  1
  H+  H180  1  0.08159136  0.66199727  0.75687759  1
  H+  H181  1  1.02354524  0.64915775  0.33442077  1
  H+  H182  1  0.35893887  0.00871320  0.49992691  1
  H+  H183  1  0.97023132  0.89199504  0.33595026  1
  H+  H184  1  0.89066209  0.60536025  0.49871033  1
  H+  H185  1  -0.04337120  0.38697208  0.67768030  1
  H+  H186  1  1.09692711  0.40968613  1.03980573  1
  H+  H187  1  0.39767809  0.87989234  0.18132935  1
  H+  H188  1  0.64365468  0.37220186  0.17340843  1
  H+  H189  1  0.03243492  0.88471585  0.82406229  1
  H+  H190  1  0.87796563  0.39567230  0.16047466  1
  H+  H191  1  0.14630082  0.11012754  1.00044315  1
  H+  H192  1  0.39080062  0.52485220  0.17272329  1
  H+  H193  1  0.84525043  -0.01380299  1.02201477  1
  H+  H194  1  0.37210163  0.39136841  0.16348656  1
  H+  H195  1  0.32591374  0.40869106  0.01454145  1
  H+  H196  1  0.39910287  0.86665523  0.84949527  1
  H+  H197  1  0.63615184  0.63496604  0.48914365  1
  H+  H198  1  0.15071083  0.53899909  0.83765963  1
  H+  H199  1  0.36772527  0.14878206  0.85028258  1
  H+  H200  1  0.11741017  0.22142212  0.16174202  1
  H+  H201  1  0.51240756  0.11742811  0.49484429  1
  H+  H202  1  0.59670397  0.53210411  0.97912743  1
  H+  H203  1  0.88525239  0.60136294  0.83311353  1
  H+  H204  1  0.91964721  0.82296005  0.88988283  1
  H+  H205  1  0.85408132  0.19746083  0.34287974  1
  H+  H206  1  0.37159916  0.73106780  0.82288459  1
  H+  H207  1  1.01299028  0.37363318  0.84601402  1
  H+  H208  1  0.11570964  0.63334590  0.66679957  1
  H+  H209  1  0.39612162  0.37477546  0.51767259  1
  H+  H210  1  0.98261469  0.11285159  0.84569127  1
  H+  H211  1  0.64087489  0.02070032  0.83233156  1
  H+  H212  1  0.51962340  0.37184444  0.16993707  1
  H+  H213  1  0.45457654  0.07897814  0.33457443  1
  H+  H214  1  0.60626492  0.62220237  0.33646808  1
  H+  H215  1  0.54360925  0.37924555  0.67744395  1
  H+  H216  1  0.53072605  0.86862606  0.67482150  1
  H+  H217  1  0.91403073  0.57342618  0.92674845  1
  H+  H218  1  0.89646444  0.27608324  0.18501509  1
  H+  H219  1  0.34085327  0.46347709  0.71035561  1
  H+  H220  1  0.60388796  0.46205236  0.15664463  1
  H+  H221  1  0.91891675  0.57045400  0.55636253  1
  H+  H222  1  0.63180366  0.51587986  0.32700196  1
  H+  H223  1  0.24808088  0.39828391  0.52699431  1
  H+  H224  1  0.33712625  0.66076745  0.76560960  1
  H+  H225  1  0.62625267  0.00296568  0.50679784  1
  H+  H226  1  0.38523858  0.38016453  0.85629171  1
  H+  H227  1  0.86805789  0.71991203  0.82200573  1
  H+  H228  1  0.15230823  0.12678349  0.31619372  1
  H+  H229  1  0.21636705  0.39332048  0.68721920  1
  H+  H230  1  0.12488911  0.29691831  0.67486344  1
  H+  H231  1  0.15971499  0.87350291  0.48750297  1
  H+  H232  1  0.51291133  0.36985427  0.01244399  1
  H+  H233  1  0.56414614  0.13232285  0.40392724  1
  H+  H234  1  0.97345484  0.10611455  0.16978399  1
  H+  H235  1  0.99502627  0.86945069  0.68221550  1
  H+  H236  1  0.88222949  0.51420263  0.98627674  1
  H+  H237  1  0.12078681  0.73224230  0.48362306  1
  H+  H238  1  0.72826447  0.35307948  0.83670247  1
  H+  H239  1  0.26883698  0.39629740  0.86395552  1
  H+  H240  1  0.85419124  0.96960596  0.16483554  1
  H+  H241  1  0.60045618  -0.04377435  0.33382153  1
  H+  H242  1  0.36328430  0.63167860  0.33696111  1
  H+  H243  1  0.68446836  0.31864521  0.33362907  1
  H+  H244  1  0.96704548  0.48586756  0.37196842  1
  H+  H245  1  0.64471000  0.52665922  0.65919853  1
  H+  H246  1  0.38089455  0.11478719  0.66049952  1
  H+  H247  1  0.38837326  0.29391242  0.87004691  1
  H+  H248  1  0.86649926  0.15085708  0.66658658  1
  H+  H249  1  0.72112968  0.11538049  0.04786589  1
  H+  H250  1  0.10727254  0.62478561  0.00467646  1
  H+  H251  1  0.37723150  0.23822464  0.49136000  1
  H+  H252  1  0.61405163  0.21255865  0.66849847  1
  H+  H253  1  0.81774689  0.41481327  0.33413961  1
  H+  H254  1  0.91182442  0.24991186  0.02264125  1
  H+  H255  1  0.86649446  0.46679474  0.82019856  1
  H+  H256  1  0.03745305  0.88285610  0.48575644  1
  H+  H257  1  0.88472012  0.89204707  0.48531790  1
  H+  H258  1  0.61502390  0.75145002  0.32701191  1
  H+  H259  1  1.00537173  0.37674236  0.35336869  1
  H+  H260  1  0.34850729  0.41731800  0.62015415  1
  H+  H261  1  0.41009869  0.25390093  0.66289938  1
  H+  H262  1  0.64321016  0.77532707  0.84071464  1
  H+  H263  1  0.64321766  0.73513188  0.48234386  1
  H+  H264  1  0.73443661  0.86240769  0.83764998  1
  H+  H265  1  0.60343711  0.42731384  0.89321932  1
  H+  H266  1  0.24064486  0.62696479  0.83506069  1
  H+  H267  1  0.52773207  0.65265088  0.01255779  1
  H+  H268  1  0.17472961  0.08206138  0.94150653  1
  H+  H269  1  0.51957061  0.85764271  0.48831280  1
  H+  H270  1  0.62767664  0.26082332  0.50510794  1
  H+  H271  1  0.31067953  0.67761910  0.16557019  1
  H+  H272  1  0.33825974  0.86577916  0.34695170  1
  H+  H273  1  0.29773606  0.56470255  0.71358387  1
  H+  H274  1  0.24321491  0.36262570  0.17366030  1
  H+  H275  1  0.65033350  0.86140462  0.65121362  1
  H+  H276  1  0.58875291  0.07994989  0.98019212  1
  H+  H277  1  0.29473438  0.15198943  0.01480125  1
  H+  H278  1  0.61555268  0.65018831  1.00760434  1
  H+  H279  1  0.83976885  0.40282741  0.76281049  1
  H+  H280  1  0.37817954  0.76693099  0.32665897  1
  H+  H281  1  0.13526579  0.10841488  0.16971114  1
  H+  H282  1  0.61373893  0.21510616  0.00538396  1
  H+  H283  1  0.10311525  0.96890363  0.16179745  1
  H+  H284  1  0.11289437  0.13207428  0.83207461  1
  H+  H285  1  0.13582741  0.77617848  0.16636302  1
  H+  H286  1  0.86509530  0.66349129  0.33102441  1
  H+  H287  1  0.42277573  0.59489190  0.94601368  1
  H+  H288  1  0.96614215  0.09617753  0.31589168  1
  H+  H289  1  0.65163189  0.81487919  0.25913508  1
  H+  H290  1  0.42474451  0.09567710  0.90916020  1
  H+  H291  1  0.18067349  0.59541461  0.93137057  1
  H+  H292  1  0.66364479  0.06695190  0.56512967  1
  H+  H293  1  0.61020163  0.88532517  0.00042456  1
  H+  H294  1  0.83218926  0.66280430  0.42744395  1
  H+  H295  1  0.71214877  0.39282332  0.22570517  1
  H+  H296  1  0.78864271  0.39357292  0.15566357  1
  H+  H297  1  0.53992425  0.34221055  0.07236734  1
  H+  H298  1  0.15649117  0.83552118  0.25960010  1
  H+  H299  1  0.19665561  0.91118308  0.93181028  1
  H+  H300  1  0.66028830  0.59714135  0.92934321  1
  H+  H301  1  0.30850866  0.89853746  0.72454132  1
  H+  H302  1  0.42686927  0.33269709  0.56980331  1
  H+  H303  1  0.29348250  0.43529738  0.77337905  1
  H+  H304  1  0.64156740  0.61495665  0.65921115  1
  H+  H305  1  0.07211626  0.19406132  0.74972475  1
  H+  H306  1  0.06165784  0.43912798  0.74561075  1
  H+  H307  1  0.62223052  0.28941577  0.27619246  1
  H+  H308  1  0.63585063  0.10575852  0.83153922  1
  H+  H309  1  0.18808411  0.07532436  0.59590835  1
  H+  H310  1  0.65078778  0.85792891  0.49103054  1
  H+  H311  1  0.91961645  0.60856743  0.25542749  1
  H+  H312  1  0.07346204  0.65545876  0.09872209  1
  H+  H313  1  0.06144558  0.12592098  0.38047718  1
  H+  H314  1  0.84669468  0.16907189  0.76066805  1
  H+  H315  1  0.12268482  0.56045397  0.26405883  1
  H+  H316  1  0.85667827  0.23560854  0.67620711  1
  H+  H317  1  0.34071564  0.43215831  0.45282445  1
  H+  H318  1  0.67105185  0.08141079  0.22851877  1
  H+  H319  1  0.97921751  0.36988145  0.98255434  1
  H+  H320  1  0.92572798  0.09626127  0.56108222  1
  H+  H321  1  0.36498995  0.63974630  0.01270430  1
  H+  H322  1  0.08341280  0.16707279  0.10004626  1
  H+  H323  1  0.41039106  0.32018540  0.24139272  1
  H+  H324  1  0.61253061  0.93240242  0.09016256  1
  H+  H325  1  0.35064203  0.13190220  0.72337369  1
  H+  H326  1  0.66361417  0.32217939  0.93587303  1
  H+  H327  1  0.63488599  0.23540211  0.15555901  1
  H+  H328  1  0.33807285  0.92278650  0.10538116  1
  H+  H329  1  0.91213373  0.07172058  0.22882138  1
  H+  H330  1  0.36089095  0.80001309  0.47559939  1
  H+  H331  1  0.10417376  0.50634586  0.33156859  1
  H+  H332  1  0.51953876  0.13352373  0.82496159  1
  H+  H333  1  0.57745250  0.15292820  0.72764445  1
  H+  H334  1  0.41758578  0.06335020  0.59028876  1
  H+  H335  1  0.35605342  0.43199035  0.10134832  1
  H+  H336  1  0.66031623  0.57162527  0.22706404  1
  H+  H337  1  0.09028226  0.93061826  0.39045901  1
  H+  H338  1  0.76104451  0.88796908  1.01515671  1
  H+  H339  1  0.89185379  1.03496862  0.65360607  1
  H+  H340  1  0.59599041  0.66030741  0.42436757  1
  H+  H341  1  0.33462759  0.66629385  0.39305974  1
  H+  H342  1  0.83829752  0.92062989  0.76002382  1
  H+  H343  1  0.68206133  0.83353527  0.59110600  1
  H+  H344  1  0.35758919  0.48877140  0.85224071  1
  H+  H345  1  0.39690376  0.61837912  0.17309083  1
  H+  H346  1  0.16062204  0.90923678  0.91323977  1
  H+  H347  1  0.02977738  0.64169373  0.48817362  1
  H+  H348  1  0.83341536  0.65461901  0.76531858  1
  H+  H349  1  0.90269508  0.31746684  0.89982418  1
  H+  H350  1  0.90625544  0.81859206  0.54758791  1
  H+  H351  1  0.08378848  0.67081853  0.39497734  1
  H+  H352  1  0.42932765  0.61196811  0.56349299  1
  H+  H353  1  0.65542917  0.35745469  0.66170065  1
  H+  H354  1  0.41845639  0.82662921  0.93568915  1
  H+  H355  1  0.61988447  0.05307190  0.91879761  1
  H+  H356  1  0.81611280  0.06062268  0.96694877  1
  H+  H357  1  0.47033778  0.41619945  0.94334677  1
  H+  H358  1  0.84816321  0.61985632  -0.00293680  1
  H+  H359  1  0.72494509  0.10625641  0.65878299  1
  H+  H360  1  0.57192402  0.41042597  0.40268315  1
  H+  H361  1  0.86746863  0.90763508  0.39244271  1
  H+  H362  1  0.91215929  0.08152933  0.90030677  1
  H+  H363  1  0.35084842  0.68287078  0.10032513  1
  H+  H364  1  0.83829244  0.41411280  0.06156942  1
  H+  H365  1  0.07135953  0.42467583  0.41003044  1
  H+  H366  1  0.80109340  0.37888553  0.40164553  1
  H+  H367  1  0.58421799  0.67307220  0.76553621  1
  H+  H368  1  0.41739755  0.57579404  0.26624359  1
  H+  H369  1  0.59215729  0.90697554  0.76380887  1
  H+  H370  1  0.22209035  0.85374710  0.02971861  1
  H+  H371  1  0.67173446  0.58355658  0.56492671  1
  H+  H372  1  0.17037682  0.08457815  0.22954286  1
  H+  H373  1  0.34663999  0.20123072  0.80107350  1
  H+  H374  1  0.97257201  0.12979032  0.66042382  1
  H+  H375  1  0.39452277  0.06008244  0.25800484  1
  H+  H376  1  0.82077120  0.65408223  0.09068561  1
  H+  H377  1  0.60699031  0.41940179  0.73344598  1
  H+  H378  1  0.68060961  0.83820642  0.93488249  1
  H+  H379  1  0.66337948  0.32064183  0.56398277  1
  H+  H380  1  0.34011304  0.15968750  0.11390477  1
  H+  H381  1  0.58719487  0.67210841  0.10349637  1
  H+  H382  1  0.58762725  0.16212516  0.06784529  1
  H+  H383  1  0.13049619  0.86213801  0.16728450  1
  O2-  O384  1  0.08168372  0.16248109  0.14512727  1
  O2-  O385  1  0.09097140  0.22769062  0.47507893  1
  O2-  O386  1  0.08401379  0.16642795  0.82114419  1
  O2-  O387  1  0.01503417  0.37183505  0.18847984  1
  O2-  O388  1  0.08836254  0.43648010  0.48539800  1
  O2-  O389  1  0.07729128  0.40861592  0.85170821  1
  O2-  O390  1  0.07394631  0.65935501  0.14454165  1
  O2-  O391  1  0.08907291  0.67107840  0.47038531  1
  O2-  O392  1  0.08428362  0.66942376  0.80212780  1
  O2-  O393  1  0.07104608  0.90810922  0.14765153  1
  O2-  O394  1  0.09632547  0.91302630  0.46842055  1
  O2-  O395  1  0.09406999  0.92156650  0.81157774  1
  O2-  O396  1  0.33416242  0.15858156  0.15927668  1
  O2-  O397  1  0.35109558  0.18140367  0.47023471  1
  O2-  O398  1  0.33657262  0.18241390  0.84336170  1
  O2-  O399  1  0.34272938  0.42197348  0.14829075  1
  O2-  O400  1  0.34549105  0.43680095  0.49703813  1
  O2-  O401  1  0.32208197  0.42603033  0.83931451  1
  O2-  O402  1  0.36397725  0.68975700  0.14565791  1
  O2-  O403  1  0.33817275  0.68246709  0.47633444  1
  O2-  O404  1  0.33849657  0.66855105  0.81196577  1
  O2-  O405  1  0.33346435  0.92234135  0.15089400  1
  O2-  O406  1  0.27997215  0.89268486  0.48367060  1
  O2-  O407  1  0.33828706  0.91998146  0.86068566  1
  O2-  O408  1  0.60141030  0.17606326  0.14153897  1
  O2-  O409  1  0.57370441  0.15066497  0.48159291  1
  O2-  O410  1  0.57642320  0.15865933  0.80428970  1
  O2-  O411  1  0.57713623  0.39890141  0.14939339  1
  O2-  O412  1  0.58801869  0.41827082  0.48115564  1
  O2-  O413  1  0.58828238  0.41911386  0.85000827  1
  O2-  O414  1  0.58676928  0.66655821  0.14911017  1
  O2-  O415  1  0.61161984  0.67105360  0.47006330  1
  O2-  O416  1  0.58183619  0.67222477  0.81099565  1
  O2-  O417  1  0.64471155  0.95016800  0.12959202  1
  O2-  O418  1  0.57892223  0.89782438  0.47499896  1
  O2-  O419  1  0.58891201  0.91092085  0.80895777  1
  O2-  O420  1  0.85058879  0.18353637  0.15975799  1
  O2-  O421  1  0.81296508  0.13385001  0.47202764  1
  O2-  O422  1  0.85245722  0.16892909  0.80706184  1
  O2-  O423  1  0.84952940  0.42531235  0.14166383  1
  O2-  O424  1  0.82176771  0.40200430  0.47216727  1
  O2-  O425  1  0.83515786  0.40443672  0.80774921  1
  O2-  O426  1  0.82359636  0.65793997  0.13643789  1
  O2-  O427  1  0.83813174  0.66138931  0.47286419  1
  O2-  O428  1  0.83338342  0.65713228  0.81071516  1
  O2-  O429  1  0.81935527  0.90908594  0.14907027  1
  O2-  O430  1  0.85544092  0.92327100  0.47020081  1
  O2-  O431  1  0.83733963  0.91397695  0.80513041  1
  O2-  O432  1  0.16559136  0.07791810  0.18429299  1
  O2-  O433  1  0.19378121  0.07415494  0.51243079  1
  O2-  O434  1  0.16031785  0.08043925  0.86016357  1
  O2-  O435  1  0.19006197  0.32653022  0.19944484  1
  O2-  O436  1  0.18726719  0.37160017  0.54354141  1
  O2-  O437  1  0.15804995  0.31957593  0.88273952  1
  O2-  O438  1  0.10805156  0.55055138  0.19298658  1
  O2-  O439  1  0.17918805  0.60083236  0.52426954  1
  O2-  O440  1  0.17926069  0.59888644  0.85151145  1
  O2-  O441  1  0.16404276  0.83507472  0.18345869  1
  O2-  O442  1  0.18896111  0.84168348  0.50361837  1
  O2-  O443  1  0.19763138  0.84816906  0.79603618  1
  O2-  O444  1  0.39855560  0.06841627  0.20748799  1
  O2-  O445  1  0.40223845  0.06757877  0.51302129  1
  O2-  O446  1  0.41896229  0.09576145  0.86322766  1
  O2-  O447  1  0.41609503  0.32487338  0.19662799  1
  O2-  O448  1  0.42410235  0.33966328  0.52524564  1
  O2-  O449  1  0.42244535  0.35746820  0.87153974  1
  O2-  O450  1  0.42335711  0.58522162  0.18952066  1
  O2-  O451  1  0.42035708  0.59768820  0.51913369  1
  O2-  O452  1  0.41949174  0.59106516  0.86254004  1
  O2-  O453  1  0.43312372  0.85789524  0.20016836  1
  O2-  O454  1  0.38693822  0.77205589  0.49870843  1
  O2-  O455  1  0.42629448  0.83072546  0.85528743  1
  O2-  O456  1  0.68414183  0.09472297  0.18465294  1
  O2-  O457  1  0.66127117  0.06472390  0.51912634  1
  O2-  O458  1  0.66698689  0.07920006  0.85030860  1
  O2-  O459  1  0.68630452  0.35533928  0.19073057  1
  O2-  O460  1  0.65960237  0.32207227  0.51867351  1
  O2-  O461  1  0.66867418  0.32086396  0.85338282  1
  O2-  O462  1  0.65922258  0.57008028  0.18186745  1
  O2-  O463  1  0.67332151  0.58286782  0.51906176  1
  O2-  O464  1  0.67159138  0.59733624  0.84988446  1
  O2-  O465  1  0.66062311  0.81937451  0.20080900  1
  O2-  O466  1  0.68470996  0.83041613  0.50423078  1
  O2-  O467  1  0.67652232  0.83522793  0.85723041  1
  O2-  O468  1  0.91214285  0.07577176  0.18334596  1
  O2-  O469  1  0.92453349  0.09509779  0.51524182  1
  O2-  O470  1  0.91913299  0.08398395  0.85538144  1
  O2-  O471  1  0.92305384  0.33780430  0.20317556  1
  O2-  O472  1  0.92979424  0.35146521  0.52974511  1
  O2-  O473  1  0.90523840  0.31587320  0.85369573  1
  O2-  O474  1  0.91178586  0.59165009  0.18335973  1
  O2-  O475  1  0.92136833  0.57439650  0.51093806  1
  O2-  O476  1  0.91602262  0.57038187  0.84616627  1
  O2-  O477  1  0.89785082  0.82947328  0.17257600  1
  O2-  O478  1  0.92337346  0.82429381  0.50511501  1
  O2-  O479  1  0.92295469  0.82445351  0.84346878  1
  O2-  O480  1  0.19058428  0.10338024  0.30658687  1
  O2-  O481  1  0.18393775  0.07799317  0.64055671  1
  O2-  O482  1  0.18188019  0.08545325  0.98654510  1
  O2-  O483  1  0.13515831  0.31266312  0.37081169  1
  O2-  O484  1  0.16580650  0.35608762  0.65778506  1
  O2-  O485  1  0.14330208  0.30824100  0.94902280  1
  O2-  O486  1  0.13006311  0.56542186  0.31035816  1
  O2-  O487  1  0.16797275  0.58066937  0.65030164  1
  O2-  O488  1  0.17375679  0.58471918  0.97625624  1
  O2-  O489  1  0.15331887  0.83791812  0.30532501  1
  O2-  O490  1  0.16501610  0.82766407  0.63330020  1
  O2-  O491  1  0.16020402  0.82534151  1.03962214  1
  O2-  O492  1  0.39468762  0.05437989  0.31843105  1
  O2-  O493  1  0.42046381  0.06141016  0.63569682  1
  O2-  O494  1  0.41889079  0.07963547  0.98354187  1
  O2-  O495  1  0.38864877  0.30706503  0.32468190  1
  O2-  O496  1  0.43953531  0.31625508  0.65063219  1
  O2-  O497  1  0.49732975  0.44253373  0.98263146  1
  O2-  O498  1  0.41295892  0.56744858  0.31170327  1
  O2-  O499  1  0.43638136  0.61428870  0.64054204  1
  O2-  O500  1  0.42427880  0.59865832  0.99107560  1
  O2-  O501  1  0.40562073  0.83060812  0.31877724  1
  O2-  O502  1  0.42517634  0.81313149  0.66457719  1
  O2-  O503  1  0.41234921  0.82526021  0.98090776  1
  O2-  O504  1  0.65330644  0.06060441  0.30887891  1
  O2-  O505  1  0.66641786  0.07221142  0.64153708  1
  O2-  O506  1  0.58256680  0.03059916  0.95597404  1
  O2-  O507  1  0.62307437  0.29438724  0.32063966  1
  O2-  O508  1  0.67530976  0.32005270  0.64296923  1
  O2-  O509  1  0.66448154  0.32331880  0.98105746  1
  O2-  O510  1  0.65939872  0.57522155  0.31006073  1
  O2-  O511  1  0.67268667  0.58572825  0.64233127  1
  O2-  O512  1  0.65164298  0.58838873  0.97414874  1
  O2-  O513  1  0.64274598  0.81195785  0.31075464  1
  O2-  O514  1  0.68541007  0.83532645  0.63603899  1
  O2-  O515  1  0.67772322  0.84079262  0.98048172  1
  O2-  O516  1  0.90393675  0.06087853  0.30511749  1
  O2-  O517  1  0.91740624  0.09600186  0.63857348  1
  O2-  O518  1  0.87344715  0.07442776  0.98051132  1
  O2-  O519  1  0.90366688  0.30466328  0.32510464  1
  O2-  O520  1  0.89672655  0.35234428  0.65802400  1
  O2-  O521  1  0.91718029  0.33140605  0.97383256  1
  O2-  O522  1  0.92500475  0.61842146  0.30143731  1
  O2-  O523  1  0.91644531  0.55985968  0.63713706  1
  O2-  O524  1  0.91213755  0.57514051  0.97213531  1
  O2-  O525  1  0.90645422  0.85325987  0.33121440  1
  O2-  O526  1  0.93385022  0.83548834  0.66602549  1
  O2-  O527  1  0.91316554  0.81913273  0.96315684  1
  O2-  O528  1  0.07834266  0.15731062  0.01740187  1
  O2-  O529  1  0.07022144  0.14926746  0.33933504  1
  O2-  O530  1  0.05357679  0.21430651  0.71273699  1
  O2-  O531  1  0.09359289  0.41952730  -0.00355431  1
  O2-  O532  1  0.06714678  0.41659901  0.36437300  1
  O2-  O533  1  0.05418581  0.42955547  0.70192540  1
  O2-  O534  1  0.07368307  0.64941716  0.02290614  1
  O2-  O535  1  0.08337434  0.66905394  0.34892452  1
  O2-  O536  1  0.07902172  0.65931315  0.67761710  1
  O2-  O537  1  0.07238441  0.90732734  0.02557142  1
  O2-  O538  1  0.08474811  0.93662944  0.34583962  1
  O2-  O539  1  0.09954068  0.92228223  0.68878116  1
  O2-  O540  1  0.34953331  0.16778875  0.03625434  1
  O2-  O541  1  0.35887613  0.21936068  0.34770745  1
  O2-  O542  1  0.35578736  0.14904529  0.68082673  1
  O2-  O543  1  0.37741073  0.45125456  0.03567379  1
  O2-  O544  1  0.28543028  0.38183445  0.31194860  1
  O2-  O545  1  0.28644794  0.44982441  0.72946021  1
  O2-  O546  1  0.33115449  0.66789350  0.02687791  1
  O2-  O547  1  0.33457607  0.66440847  0.34824311  1
  O2-  O548  1  0.32033773  0.62299020  0.69739274  1
  O2-  O549  1  0.33955512  0.91545354  0.02697775  1
  O2-  O550  1  0.30503367  0.89324609  0.36254508  1
  O2-  O551  1  0.32457715  0.89637855  0.68227807  1
  O2-  O552  1  0.57886450  0.15622376  0.02224062  1
  O2-  O553  1  0.55964243  0.12766717  0.35850651  1
  O2-  O554  1  0.58087683  0.15139754  0.68191610  1
  O2-  O555  1  0.52193118  0.32279767  0.03007097  1
  O2-  O556  1  0.56259846  0.40530729  0.35757505  1
  O2-  O557  1  0.60545423  0.41628641  0.68906843  1
  O2-  O558  1  0.58969977  0.68293386  0.02652061  1
  O2-  O559  1  0.57576042  0.65110495  0.35539111  1
  O2-  O560  1  0.59504073  0.67206632  0.68536347  1
  O2-  O561  1  0.57434615  0.90739456  0.01827502  1
  O2-  O562  1  0.56978675  0.89651137  0.35136794  1
  O2-  O563  1  0.59446658  0.90213833  0.68390716  1
  O2-  O564  1  0.92029609  0.20744681  0.04604108  1
  O2-  O565  1  0.82114675  0.13592474  0.35672819  1
  O2-  O566  1  0.83565746  0.17547508  0.68969608  1
  O2-  O567  1  0.83308083  0.40956097  0.01639833  1
  O2-  O568  1  0.78924009  0.36109555  0.35680421  1
  O2-  O569  1  0.84873391  0.39435465  0.68019986  1
  O2-  O570  1  0.81917055  0.65035565  0.01394971  1
  O2-  O571  1  0.82604967  0.67952829  0.35209617  1
  O2-  O572  1  0.83903729  0.65281113  0.68587357  1
  O2-  O573  1  0.81929455  0.92535946  0.03763477  1
  O2-  O574  1  0.86610112  0.90441803  0.34703980  1
  O2-  O575  1  0.84776037  0.93147556  0.67919317  1
