# generated using pymatgen
data_H2O
_symmetry_space_group_name_H-M   'P 1'
_cell_length_a   17.99667548
_cell_length_b   17.99675616
_cell_length_c   22.00876366
_cell_angle_alpha   89.99468636
_cell_angle_beta   90.02028754
_cell_angle_gamma   119.98596511
_symmetry_Int_Tables_number   1
_chemical_formula_structural   H2O
_chemical_formula_sum   'H384 O192'
_cell_volume   6174.10725798
_cell_formula_units_Z   192
loop_
 _symmetry_equiv_pos_site_id
 _symmetry_equiv_pos_as_xyz
  1  'x, y, z'
loop_
 _atom_type_symbol
 _atom_type_oxidation_number
  H+  1.0
  O2-  -2.0
loop_
 _atom_site_type_symbol
 _atom_site_label
 _atom_site_symmetry_multiplicity
 _atom_site_fract_x
 _atom_site_fract_y
 _atom_site_fract_z
 _atom_site_occupancy
  H+  H0  1  0.38772311  0.41352412  0.44573319  1
  H+  H1  1  0.37210474  0.59528915  1.01822395  1
  H+  H2  1  0.14386130  0.67014111  0.33609077  1
  H+  H3  1  0.61796980  0.74972949  -0.02156013  1
  H+  H4  1  0.12510257  0.39938542  0.00326291  1
  H+  H5  1  0.38552196  0.85313250  0.83807929  1
  H+  H6  1  0.63552489  0.49906464  0.99426561  1
  H+  H7  1  0.10528961  0.13163024  0.82337035  1
  H+  H8  1  0.77868322  0.15053948  0.83198425  1
  H+  H9  1  0.14028295  1.02013825  0.32152964  1
  H+  H10  1  0.27037321  0.88933520  0.48993439  1
  H+  H11  1  0.12466351  0.91765401  0.66053660  1
  H+  H12  1  0.79851216  0.39734698  0.99045154  1
  H+  H13  1  0.35127973  0.14379983  0.64444537  1
  H+  H14  1  0.29632448  0.41082809  0.67049788  1
  H+  H15  1  0.18738480  0.32689610  0.99353035  1
  H+  H16  1  0.90918600  0.66481166  0.33346852  1
  H+  H17  1  0.38734596  0.76771334  0.17653230  1
  H+  H18  1  0.28312058  0.39074924  0.82187626  1
  H+  H19  1  0.06752439  0.38575020  0.49833945  1
  H+  H20  1  0.47530231  0.85785556  0.17452610  1
  H+  H21  1  0.41583878  0.52240299  0.55306624  1
  H+  H22  1  0.91782712  0.19218800  0.70108013  1
  H+  H23  1  0.39203616  0.71676742  0.34224174  1
  H+  H24  1  0.87731909  0.30033744  0.83425452  1
  H+  H25  1  0.47212792  0.58888026  0.90036566  1
  H+  H26  1  0.61077122  0.14627187  0.66662119  1
  H+  H27  1  -0.00295248  0.37308287  -0.00149063  1
  H+  H28  1  0.72142937  0.87422186  0.17054042  1
  H+  H29  1  0.53584419  0.63608856  0.65599314  1
  H+  H30  1  0.04039312  0.56171849  0.03987499  1
  H+  H31  1  0.33638565  0.65699115  0.43729686  1
  H+  H32  1  0.12076182  0.82852409  0.85112686  1
  H+  H33  1  0.67619740  0.56291471  0.34893027  1
  H+  H34  1  0.14584545  0.61079164  0.49894824  1
  H+  H35  1  0.63427398  0.03607007  0.66513293  1
  H+  H36  1  0.86946009  0.52621565  0.50672971  1
  H+  H37  1  0.62099738  0.73914211  0.50214589  1
  H+  H38  1  0.14842120  0.52215362  0.98694051  1
  H+  H39  1  0.20768262  0.09825403  0.82455524  1
  H+  H40  1  0.38719008  1.03176929  0.65066808  1
  H+  H41  1  0.18719238  0.80404338  -0.05858231  1
  H+  H42  1  0.36893487  0.71977583  0.00803074  1
  H+  H43  1  0.47640559  0.62405358  0.17833657  1
  H+  H44  1  0.77365722  0.89773968  0.83242226  1
  H+  H45  1  0.89489308  0.61746373  -0.00862660  1
  H+  H46  1  0.46515593  0.36276105  0.32291177  1
  H+  H47  1  0.87220807  0.79432572  0.33620859  1
  H+  H48  1  0.87718292  0.33356384  0.33605736  1
  H+  H49  1  0.14692823  0.60815896  0.98763008  1
  H+  H50  1  0.58837285  0.60773719  0.98153422  1
  H+  H51  1  0.89714091  0.11301123  0.18948997  1
  H+  H52  1  0.47329973  0.36760887  1.00094640  1
  H+  H53  1  0.13760646  0.64428284  0.15575407  1
  H+  H54  1  0.51806546  0.87679959  1.00441623  1
  H+  H55  1  0.81758810  0.70941788  0.08467328  1
  H+  H56  1  0.89071144  0.51586941  0.83708798  1
  H+  H57  1  0.66344865  0.84785984  0.23137145  1
  H+  H58  1  0.65092295  0.75846355  0.64991060  1
  H+  H59  1  0.86208933  0.98588902  0.15977960  1
  H+  H60  1  0.60015887  0.55391025  0.31295651  1
  H+  H61  1  0.13274370  0.04988597  0.64671434  1
  H+  H62  1  0.37576208  0.27619259  0.32741492  1
  H+  H63  1  0.11570360  0.36555772  0.32578864  1
  H+  H64  1  0.85420429  0.08373319  0.65251428  1
  H+  H65  1  0.48289589  0.11348779  -0.01521172  1
  H+  H66  1  0.54114825  0.31112965  0.03930440  1
  H+  H67  1  0.72777589  0.62571655  0.84410414  1
  H+  H68  1  0.07528223  0.19465141  0.00781496  1
  H+  H69  1  0.42221911  0.59598031  0.23981430  1
  H+  H70  1  0.23451733  0.60828313  0.16893590  1
  H+  H71  1  0.84884137  0.62117223  0.83092999  1
  H+  H72  1  0.37713664  0.77123645  0.65025696  1
  H+  H73  1  0.63128752  0.48482758  0.66875899  1
  H+  H74  1  0.83707981  0.37791972  0.50564505  1
  H+  H75  1  0.60742159  0.48102907  0.49546682  1
  H+  H76  1  0.13857109  0.48357527  0.48878393  1
  H+  H77  1  0.02892620  0.38484282  0.66704888  1
  H+  H78  1  0.64547737  0.12851304  0.82758967  1
  H+  H79  1  0.87013743  0.15576651  0.83857007  1
  H+  H80  1  0.60323145  0.86941297  1.00522473  1
  H+  H81  1  0.11054932  1.01423319  0.49547379  1
  H+  H82  1  0.49387724  0.37769343  0.16992074  1
  H+  H83  1  0.88846889  0.79411793  0.50287854  1
  H+  H84  1  -0.02153055  0.12199639  0.84393217  1
  H+  H85  1  0.97825416  0.86065996  0.98933847  1
  H+  H86  1  0.75745422  0.85999739  -0.00171867  1
  H+  H87  1  0.12866711  0.10973915  0.16339105  1
  H+  H88  1  0.89792112  0.11497200  0.34059636  1
  H+  H89  1  0.52111006  0.89358437  0.83014338  1
  H+  H90  1  0.39257692  0.28928831  0.65855313  1
  H+  H91  1  0.83684148  0.94539723  -0.02153364  1
  H+  H92  1  0.85544685  0.96882849  0.67744560  1
  H+  H93  1  0.14006125  0.51882727  0.83381335  1
  H+  H94  1  0.36901331  -0.03522716  0.14977569  1
  H+  H95  1  0.58626132  0.89859256  0.67971353  1
  H+  H96  1  0.12869734  0.73174948  0.49161787  1
  H+  H97  1  0.54046893  0.13271879  0.81970335  1
  H+  H98  1  0.37674734  0.84361349  0.99414911  1
  H+  H99  1  0.21770186  0.10915223  0.16709284  1
  H+  H100  1  0.36512786  0.01517403  0.32820279  1
  H+  H101  1  0.48688694  0.37397395  0.66452549  1
  H+  H102  1  0.87178859  0.21644500  0.17379425  1
  H+  H103  1  0.98181864  0.85860590  0.17822328  1
  H+  H104  1  0.73977737  0.31131837  0.35987082  1
  H+  H105  1  0.41187780  -0.00075668  0.84958769  1
  H+  H106  1  0.14312074  0.83184059  0.70203852  1
  H+  H107  1  0.17369992  0.37010973  0.49865050  1
  H+  H108  1  0.62084625  0.21309164  0.15280214  1
  H+  H109  1  0.42122987  0.15623744  0.87201360  1
  H+  H110  1  0.86829146  0.99238716  0.34236635  1
  H+  H111  1  0.27205334  0.87141795  0.85432810  1
  H+  H112  1  0.00670625  0.89132480  0.34728797  1
  H+  H113  1  0.74139978  0.61676604  0.66024328  1
  H+  H114  1  0.39889158  0.52406363  0.85220108  1
  H+  H115  1  0.80518242  0.37174549  0.82903126  1
  H+  H116  1  0.30576814  0.05519201  0.99292783  1
  H+  H117  1  0.47813281  0.07505374  1.00199141  1
  H+  H118  1  0.52156059  0.64198110  0.81445688  1
  H+  H119  1  0.48753313  0.10691263  0.15836618  1
  H+  H120  1  0.03232716  0.13434993  0.11963161  1
  H+  H121  1  0.61739963  0.26867617  0.49932961  1
  H+  H122  1  0.94420558  0.09077390  0.64824341  1
  H+  H123  1  0.87764097  0.64851999  0.30756153  1
  H+  H124  1  0.37654893  0.25706513  0.84668571  1
  H+  H125  1  0.13036873  0.91948301  0.00294887  1
  H+  H126  1  0.88548336  0.85211752  0.98757225  1
  H+  H127  1  0.65842743  0.35556809  0.15616992  1
  H+  H128  1  0.89529838  0.28313144  0.66201731  1
  H+  H129  1  0.27823724  0.63301380  0.00657208  1
  H+  H130  1  0.12526591  0.61889950  0.82318135  1
  H+  H131  1  0.61000627  0.75931649  0.35515302  1
  H+  H132  1  0.13494274  0.10598088  0.58601792  1
  H+  H133  1  0.93278159  0.34054971  0.50004343  1
  H+  H134  1  1.01744428  0.37604391  0.33969602  1
  H+  H135  1  0.36589963  0.87522682  0.16100527  1
  H+  H136  1  0.02918968  0.14641137  0.35922473  1
  H+  H137  1  0.26614480  0.15361602  0.64204298  1
  H+  H138  1  0.15847685  0.88102975  0.29914204  1
  H+  H139  1  0.74534729  0.69719260  0.12939659  1
  H+  H140  1  0.11901724  0.88511583  0.15430289  1
  H+  H141  1  0.76716001  0.89123459  0.48239211  1
  H+  H142  1  0.75249260  0.38359447  0.49731390  1
  H+  H143  1  0.09018606  0.13666510  0.66514367  1
  H+  H144  1  0.37617016  0.12108595  0.87913801  1
  H+  H145  1  0.07969533  0.86886519  0.36155826  1
  H+  H146  1  0.83258097  0.62968039  0.20518906  1
  H+  H147  1  0.06670057  0.21064672  0.66536176  1
  H+  H148  1  0.66062078  0.07473619  0.22364910  1
  H+  H149  1  0.16574178  0.57535947  0.58967653  1
  H+  H150  1  0.11789133  0.38349954  0.67034761  1
  H+  H151  1  0.02099415  0.39758241  0.82060293  1
  H+  H152  1  0.64930241  0.28018464  0.83259739  1
  H+  H153  1  0.47645636  0.55244634  0.30327747  1
  H+  H154  1  0.65620254  0.15397594  0.00111586  1
  H+  H155  1  0.65463757  0.82313191  0.92902202  1
  H+  H156  1  0.02948395  0.14889025  0.52996725  1
  H+  H157  1  0.86306923  0.89343929  0.48116082  1
  H+  H158  1  -0.01463583  0.35751108  0.17729557  1
  H+  H159  1  0.62595162  0.35914142  0.32474634  1
  H+  H160  1  0.14670565  0.89343688  0.50827677  1
  H+  H161  1  0.64719546  0.36806447  0.65418962  1
  H+  H162  1  1.01035262  0.59209375  0.31417679  1
  H+  H163  1  0.65767204  0.08691170  0.56307915  1
  H+  H164  1  0.86949083  0.47392814  0.66407807  1
  H+  H165  1  0.14294203  0.27691415  0.83485135  1
  H+  H166  1  1.00170321  0.60862679  0.15989134  1
  H+  H167  1  0.60520741  0.64633820  0.15622416  1
  H+  H168  1  0.90844348  0.58372264  0.56532247  1
  H+  H169  1  0.61292803  0.46286234  0.35391935  1
  H+  H170  1  0.52194879  0.87965784  0.49817156  1
  H+  H171  1  0.72667759  0.11998033  0.66047345  1
  H+  H172  1  0.33619398  0.25969366  0.84728902  1
  H+  H173  1  0.89600401  0.27952847  0.99440056  1
  H+  H174  1  0.30425249  0.91860350  1.00348211  1
  H+  H175  1  0.87360780  0.21562301  0.34704570  1
  H+  H176  1  0.60987115  0.98620575  0.82693679  1
  H+  H177  1  0.50181467  0.40167417  0.84713330  1
  H+  H178  1  0.75676699  0.65879987  0.36324161  1
  H+  H179  1  0.09252089  0.69463908  0.82619664  1
  H+  H180  1  0.66472975  0.37076131  -0.00803322  1
  H+  H181  1  0.63576919  0.01706308  0.16367518  1
  H+  H182  1  0.37454725  0.64114030  0.84476606  1
  H+  H183  1  0.61107055  0.64560139  0.81864909  1
  H+  H184  1  0.14228139  0.36484069  0.83191432  1
  H+  H185  1  0.46011391  0.86652533  0.65808353  1
  H+  H186  1  0.35964161  0.97552430  0.48653640  1
  H+  H187  1  0.90022968  0.80662001  0.62822004  1
  H+  H188  1  0.83714385  0.62246683  0.17199406  1
  H+  H189  1  0.84548711  0.20476547  0.50183086  1
  H+  H190  1  0.63900493  0.61967493  0.50919646  1
  H+  H191  1  0.98835739  0.11568077  0.19126272  1
  H+  H192  1  0.94286781  0.07762053  1.00615998  1
  H+  H193  1  0.63951619  0.87204775  0.50509654  1
  H+  H194  1  0.91740749  0.51587575  0.15738418  1
  H+  H195  1  0.50858123  0.13067140  0.33112016  1
  H+  H196  1  0.85475392  0.71556947  0.82824384  1
  H+  H197  1  1.03509671  0.91059019  0.67011366  1
  H+  H198  1  0.12154729  0.62415846  0.66585358  1
  H+  H199  1  0.17100149  0.57983128  0.89400479  1
  H+  H200  1  0.30246283  0.14770332  0.43131804  1
  H+  H201  1  0.87816841  0.85302935  0.83781871  1
  H+  H202  1  0.88075045  0.79993203  0.17025355  1
  H+  H203  1  0.58026400  0.38973730  0.19647722  1
  H+  H204  1  0.23465461  0.60990506  0.50298053  1
  H+  H205  1  0.38292352  0.86090146  0.49754460  1
  H+  H206  1  0.65784943  0.84920628  0.65065450  1
  H+  H207  1  0.84860930  0.49782200  0.33604901  1
  H+  H208  1  0.88213463  0.16240821  1.00614132  1
  H+  H209  1  0.49471598  0.62937229  0.34306569  1
  H+  H210  1  0.36933840  0.61888594  0.34373994  1
  H+  H211  1  0.15032892  0.13756943  0.99270370  1
  H+  H212  1  0.25324177  0.71281682  0.27897866  1
  H+  H213  1  0.85589661  0.89702406  0.33592448  1
  H+  H214  1  0.34498500  0.45444092  0.04494331  1
  H+  H215  1  0.62396021  0.51926363  0.16492672  1
  H+  H216  1  0.78831186  0.15167196  1.00399621  1
  H+  H217  1  0.23164016  0.86485221  0.66888329  1
  H+  H218  1  0.12953198  0.74906617  0.33179631  1
  H+  H219  1  0.88068727  0.72160143  0.69451667  1
  H+  H220  1  0.35004005  0.37061054  0.13995848  1
  H+  H221  1  0.61822094  0.08572046  0.31636375  1
  H+  H222  1  0.78168214  0.38393320  0.65926530  1
  H+  H223  1  0.35987194  0.14792889  0.34871366  1
  H+  H224  1  0.39244117  0.76778749  0.84099189  1
  H+  H225  1  0.11348598  0.37959345  0.15787855  1
  H+  H226  1  0.33405740  0.16481414  0.09997309  1
  H+  H227  1  0.89762557  0.88478136  0.66032700  1
  H+  H228  1  0.30843830  0.39018887  0.52592994  1
  H+  H229  1  0.86487396  0.72087650  -0.00414466  1
  H+  H230  1  0.67302777  0.28604050  0.98938616  1
  H+  H231  1  0.37561595  0.26660243  0.17325214  1
  H+  H232  1  0.79235719  0.37852877  0.14468669  1
  H+  H233  1  0.81013806  0.49496639  0.35268312  1
  H+  H234  1  0.47372554  0.12203562  0.65007786  1
  H+  H235  1  0.60811690  0.88333036  0.15986451  1
  H+  H236  1  0.43481992  0.07298127  0.21929116  1
  H+  H237  1  0.53405619  0.65092363  0.51549247  1
  H+  H238  1  0.61306713  0.35634741  0.50624374  1
  H+  H239  1  0.77725891  0.62926377  1.00134140  1
  H+  H240  1  0.89709497  0.35459552  0.17085034  1
  H+  H241  1  0.65131727  0.61538742  0.65740164  1
  H+  H242  1  0.11931061  0.47253378  0.16037514  1
  H+  H243  1  0.78394937  0.12754635  0.16884650  1
  H+  H244  1  0.40295843  0.53144051  0.64568019  1
  H+  H245  1  0.14100678  0.51810320  0.65141481  1
  H+  H246  1  0.51312343  0.13551823  0.48382825  1
  H+  H247  1  0.61948138  0.12305228  0.15171966  1
  H+  H248  1  0.13447062  0.73459428  0.15398540  1
  H+  H249  1  0.84726825  0.18218476  0.74634661  1
  H+  H250  1  0.90580743  0.37954744  -0.01123557  1
  H+  H251  1  0.51214122  0.84179824  0.32221022  1
  H+  H252  1  0.36724500  0.39226318  0.35527529  1
  H+  H253  1  0.89548625  0.60974136  0.66792387  1
  H+  H254  1  0.12376131  0.71504432  0.67132931  1
  H+  H255  1  0.26461814  0.13978011  0.00533257  1
  H+  H256  1  0.36732824  0.13535543  0.15715756  1
  H+  H257  1  0.41196342  0.41417778  0.84258682  1
  H+  H258  1  0.36921800  0.10502724  0.49717087  1
  H+  H259  1  0.78091630  0.87238799  0.68026406  1
  H+  H260  1  0.35941223  0.72083477  0.49272678  1
  H+  H261  1  0.60940977  0.36974205  0.82552498  1
  H+  H262  1  0.72437892  0.89507984  0.32936220  1
  H+  H263  1  0.98454867  0.61642015  0.99021474  1
  H+  H264  1  0.86432081  0.65039964  0.50194905  1
  H+  H265  1  0.27829194  0.63705142  0.65273318  1
  H+  H266  1  0.38482805  0.36687540  1.00436458  1
  H+  H267  1  0.63819718  1.00290570  -0.00969919  1
  H+  H268  1  0.62732621  0.11111366  0.50164143  1
  H+  H269  1  0.12131349  0.25520323  0.16588315  1
  H+  H270  1  0.26671376  0.89324712  0.32529526  1
  H+  H271  1  0.98359222  0.60892830  0.66055724  1
  H+  H272  1  0.91296882  0.57755947  0.89410518  1
  H+  H273  1  0.76601829  0.11413450  0.49442574  1
  H+  H274  1  0.26522607  0.64770273  0.31904200  1
  H+  H275  1  0.36717681  0.63609860  0.16796270  1
  H+  H276  1  0.36044788  0.21608143  1.00104371  1
  H+  H277  1  0.38360246  0.40654895  0.67522513  1
  H+  H278  1  0.14519774  -0.03233185  0.82861631  1
  H+  H279  1  0.12791739  0.27361525  0.33056466  1
  H+  H280  1  0.61208508  0.23535470  0.66444958  1
  H+  H281  1  0.63260031  0.78162923  0.82932962  1
  H+  H282  1  0.23112471  0.86013918  0.16586342  1
  H+  H283  1  0.60166346  0.21118277  0.32693388  1
  H+  H284  1  0.60794800  0.97162897  0.49992387  1
  H+  H285  1  0.35978672  0.88578699  0.66578536  1
  H+  H286  1  0.19093295  0.28743931  0.65146190  1
  H+  H287  1  0.10989517  0.68304024  0.42901435  1
  H+  H288  1  0.17957314  0.59253769  0.22753452  1
  H+  H289  1  0.23575376  0.06745709  0.47110167  1
  H+  H290  1  0.68193537  0.34083741  0.89160098  1
  H+  H291  1  0.15955913  0.84656906  0.56494108  1
  H+  H292  1  0.31482878  0.87784236  0.06379253  1
  H+  H293  1  0.07109234  0.16301155  0.76695880  1
  H+  H294  1  0.26925509  0.14002281  0.33647697  1
  H+  H295  1  0.58347401  0.55652652  0.24369289  1
  H+  H296  1  0.91861761  0.32667948  0.27215013  1
  H+  H297  1  0.94276528  0.11228764  0.93913597  1
  H+  H298  1  0.17730674  0.28235634  0.50654434  1
  H+  H299  1  0.18431443  0.36077344  0.92804874  1
  H+  H300  1  0.64249745  0.01118551  0.31109111  1
  H+  H301  1  0.77619801  0.65183385  0.50300813  1
  H+  H302  1  0.57485303  0.16296663  0.42625048  1
  H+  H303  1  0.91563824  0.84293830  0.27221441  1
  H+  H304  1  0.88512360  0.48959784  -0.00614871  1
  H+  H305  1  0.08176513  0.41626876  0.76272605  1
  H+  H306  1  0.93211446  0.87481221  0.54773793  1
  H+  H307  1  0.09319259  0.65243631  0.06898002  1
  H+  H308  1  0.26638168  0.93518519  0.81097292  1
  H+  H309  1  0.66286755  0.33031063  0.59306738  1
  H+  H310  1  0.29113515  0.00621185  0.93158349  1
  H+  H311  1  0.69640314  0.67133483  0.88914185  1
  H+  H312  1  0.57003922  0.39996308  0.40799929  1
  H+  H313  1  0.56547838  0.38680168  0.08477877  1
  H+  H314  1  0.96151847  0.55313239  0.25311839  1
  H+  H315  1  0.16794573  0.07500364  0.25987907  1
  H+  H316  1  0.67170445  0.58519480  0.56454183  1
  H+  H317  1  0.08999693  0.41032665  0.39415848  1
  H+  H318  1  0.52105613  0.32073936  0.79096305  1
  H+  H319  1  0.32454449  0.92294720  0.38917309  1
  H+  H320  1  0.12236545  0.92026549  0.76684406  1
  H+  H321  1  0.62441208  0.17846040  0.06188309  1
  H+  H322  1  0.28707116  0.63852240  0.82998220  1
  H+  H323  1  0.37091767  0.64710964  0.64616561  1
  H+  H324  1  0.58731691  0.69648561  0.41303642  1
  H+  H325  1  0.36592051  0.08609284  0.27817142  1
  H+  H326  1  0.63244742  0.87012830  0.83594173  1
  H+  H327  1  0.39601453  0.32985482  0.23144683  1
  H+  H328  1  0.66138162  0.09290576  0.89038310  1
  H+  H329  1  0.57569542  0.90763346  0.09914320  1
  H+  H330  1  0.16531560  0.08517061  0.89192410  1
  H+  H331  1  0.72187965  0.39599459  0.30717000  1
  H+  H332  1  0.50230449  0.60977573  -0.00580765  1
  H+  H333  1  0.60724695  0.73480613  0.16133809  1
  H+  H334  1  0.29892824  0.13970590  0.73213869  1
  H+  H335  1  0.59910019  0.42239555  0.72683904  1
  H+  H336  1  0.09012951  0.41908535  0.06705303  1
  H+  H337  1  0.13286980  0.03943325  0.99357048  1
  H+  H338  1  0.80195016  0.36038730  0.41507491  1
  H+  H339  1  0.50981743  0.40690715  0.49157121  1
  H+  H340  1  0.44303420  0.39079767  0.91201207  1
  H+  H341  1  0.21637366  0.16660572  0.48715120  1
  H+  H342  1  0.82745497  0.92277595  0.41581854  1
  H+  H343  1  0.70964321  0.59192227  0.19505359  1
  H+  H344  1  0.34212224  0.13843542  0.79424406  1
  H+  H345  1  0.20947420  0.34463109  0.16626072  1
  H+  H346  1  0.93170045  0.08519346  0.28151984  1
  H+  H347  1  0.12525144  0.19980647  0.06887056  1
  H+  H348  1  0.43783392  0.81740481  0.27270878  1
  H+  H349  1  0.67381538  0.33050340  0.22222833  1
  H+  H350  1  0.58617022  0.66509969  0.72031661  1
  H+  H351  1  0.14717064  0.32119569  0.26175909  1
  H+  H352  1  0.95166722  0.16266906  0.51644985  1
  H+  H353  1  0.58725871  0.17731461  0.75606414  1
  H+  H354  1  0.88837841  0.03519443  0.84964017  1
  H+  H355  1  0.84204956  0.15602472  0.40677407  1
  H+  H356  1  0.10714021  0.17819910  0.40804479  1
  H+  H357  1  0.34219133  0.92316824  0.72700800  1
  H+  H358  1  0.90382845  0.32435606  0.57006495  1
  H+  H359  1  0.85109682  0.40985921  0.08492248  1
  H+  H360  1  0.83724204  0.92565879  0.77634900  1
  H+  H361  1  0.82981061  0.65302999  0.74472909  1
  H+  H362  1  0.08621461  0.92213386  0.06488861  1
  H+  H363  1  0.91350917  0.82278592  0.89224639  1
  H+  H364  1  0.36990469  0.53715353  0.96516332  1
  H+  H365  1  0.11404695  0.97254483  0.15555491  1
  H+  H366  1  0.68636810  0.84352736  0.55726064  1
  H+  H367  1  0.33809687  0.66398632  0.10560506  1
  H+  H368  1  0.34884958  0.43225737  0.76452233  1
  H+  H369  1  0.89390099  0.37140848  0.65533196  1
  H+  H370  1  0.38727211  0.48640469  0.36894169  1
  H+  H371  1  0.71659591  0.04416862  0.94619284  1
  H+  H372  1  0.47075548  0.05259072  0.90464183  1
  H+  H373  1  0.41593113  0.82437915  0.93449597  1
  H+  H374  1  0.17494758  0.83213293  0.22823138  1
  H+  H375  1  0.09365716  0.65159891  0.75633467  1
  H+  H376  1  0.40847006  0.83339398  0.55921987  1
  H+  H377  1  0.41160373  0.08659843  0.55473188  1
  H+  H378  1  0.10350118  0.95725561  0.43735024  1
  H+  H379  1  0.18726434  0.33938869  0.59508859  1
  H+  H380  1  0.56807296  0.93138228  0.74075397  1
  H+  H381  1  0.66073385  0.56050307  0.93607721  1
  H+  H382  1  0.82997406  0.92874449  0.09876827  1
  H+  H383  1  0.82073710  0.70336278  0.41853285  1
  O2-  O384  1  0.08973033  0.16638976  0.13681643  1
  O2-  O385  1  0.10150687  0.10157542  0.52341666  1
  O2-  O386  1  0.07854415  0.16708638  0.81184341  1
  O2-  O387  1  0.08694306  0.41361072  0.14219784  1
  O2-  O388  1  0.11772450  0.42177683  0.47369731  1
  O2-  O389  1  0.08125263  0.41776337  0.80830515  1
  O2-  O390  1  0.11019571  0.67484414  0.13598772  1
  O2-  O391  1  0.11350011  0.67603924  0.47385018  1
  O2-  O392  1  0.08806946  0.64398048  0.80306530  1
  O2-  O393  1  0.08655816  0.91297348  0.13843489  1
  O2-  O394  1  0.13281463  0.97789603  0.47722600  1
  O2-  O395  1  0.14617153  0.91944056  0.80723963  1
  O2-  O396  1  0.33686615  0.16634784  0.14532400  1
  O2-  O397  1  0.28678857  0.12650165  0.47427066  1
  O2-  O398  1  0.28686879  0.11365023  0.77388250  1
  O2-  O399  1  0.31506658  0.39450717  0.12246359  1
  O2-  O400  1  0.37132942  0.41894198  0.53632703  1
  O2-  O401  1  0.34541758  0.42529521  0.81022584  1
  O2-  O402  1  0.33503644  0.66524662  0.15064717  1
  O2-  O403  1  0.32972514  0.65894595  0.48198216  1
  O2-  O404  1  0.34980025  0.67197674  0.82371363  1
  O2-  O405  1  0.33607899  0.90291002  0.13983306  1
  O2-  O406  1  0.32904881  0.91468263  0.47248757  1
  O2-  O407  1  0.30753651  0.91734222  0.82415937  1
  O2-  O408  1  0.58995810  0.15524986  0.13436819  1
  O2-  O409  1  0.57501002  0.16594678  0.47147881  1
  O2-  O410  1  0.59523131  0.17826944  0.80159675  1
  O2-  O411  1  0.55961606  0.40664933  0.16097915  1
  O2-  O412  1  0.56948505  0.41928765  0.48358023  1
  O2-  O413  1  0.56109334  0.37742310  0.80741193  1
  O2-  O414  1  0.57344726  0.67528678  0.14494733  1
  O2-  O415  1  0.58855180  0.67606672  0.49260744  1
  O2-  O416  1  0.58081320  0.67236010  0.79792701  1
  O2-  O417  1  0.57568451  0.91198336  0.14410579  1
  O2-  O418  1  0.58515579  0.90975193  0.49142165  1
  O2-  O419  1  0.58049726  0.92560437  0.81197533  1
  O2-  O420  1  0.84664184  0.15527487  0.16207782  1
  O2-  O421  1  0.82833611  0.14725322  0.48545743  1
  O2-  O422  1  0.84082406  0.18549577  0.82087725  1
  O2-  O423  1  0.85181628  0.40471109  0.12994853  1
  O2-  O424  1  0.81373059  0.41048546  0.48431757  1
  O2-  O425  1  0.86523502  0.40137278  0.81412286  1
  O2-  O426  1  0.80087511  0.74051002  0.11356506  1
  O2-  O427  1  0.83808154  0.68762461  0.49212021  1
  O2-  O428  1  0.81943396  0.65305302  0.81524285  1
  O2-  O429  1  0.81462282  0.93432329  0.14039441  1
  O2-  O430  1  0.82832855  0.92155688  0.46489494  1
  O2-  O431  1  0.83566125  0.92919863  0.82162250  1
  O2-  O432  1  0.15724301  0.07688716  0.18023130  1
  O2-  O433  1  0.16635943  0.17670726  0.48819839  1
  O2-  O434  1  0.15262267  0.07235686  0.84792829  1
  O2-  O435  1  0.15129599  0.31682422  0.18411562  1
  O2-  O436  1  0.20095999  0.34203613  0.52150404  1
  O2-  O437  1  0.17678972  0.33897328  0.84605334  1
  O2-  O438  1  0.17272595  0.57826393  0.18335330  1
  O2-  O439  1  0.17101049  0.57550681  0.51551567  1
  O2-  O440  1  0.17040953  0.58041610  0.84808455  1
  O2-  O441  1  0.17057466  0.83040952  0.18030322  1
  O2-  O442  1  0.16518696  0.85190748  0.52083581  1
  O2-  O443  1  0.10822738  0.77384632  0.87252602  1
  O2-  O444  1  0.42745673  0.07810380  0.17563622  1
  O2-  O445  1  0.40903964  0.08398190  0.50938615  1
  O2-  O446  1  0.47175377  0.04073379  0.86146330  1
  O2-  O447  1  0.39974433  0.32828372  0.18565821  1
  O2-  O448  1  0.40662497  0.39440301  0.48535062  1
  O2-  O449  1  0.46264784  0.41896110  0.86951158  1
  O2-  O450  1  0.41658118  0.59355559  0.19525966  1
  O2-  O451  1  0.43559618  0.58469358  0.56174940  1
  O2-  O452  1  0.43074946  0.58341823  0.86862569  1
  O2-  O453  1  0.41621882  0.82799066  0.19258838  1
  O2-  O454  1  0.41277656  0.83116421  0.51431667  1
  O2-  O455  1  0.42104988  0.83111847  0.85461651  1
  O2-  O456  1  0.66698402  0.07840498  0.17743068  1
  O2-  O457  1  0.65558699  0.07996673  0.51845749  1
  O2-  O458  1  0.67067752  0.09451327  0.84612398  1
  O2-  O459  1  0.68070046  0.32365071  0.17791005  1
  O2-  O460  1  0.64590601  0.32740150  0.51791493  1
  O2-  O461  1  0.67913274  0.34138911  0.84636658  1
  O2-  O462  1  0.65635453  0.58136354  0.17550788  1
  O2-  O463  1  0.66793765  0.58584157  0.51937445  1
  O2-  O464  1  0.67417101  0.61826004  0.86576135  1
  O2-  O465  1  0.66106558  0.83932193  0.18672034  1
  O2-  O466  1  0.67811616  0.84443712  0.51290651  1
  O2-  O467  1  0.66148381  0.83825414  0.85019844  1
  O2-  O468  1  0.92806837  0.08139926  0.20431512  1
  O2-  O469  1  1.00615999  0.18737029  0.53838603  1
  O2-  O470  1  0.92066362  0.09623499  0.86408085  1
  O2-  O471  1  0.92541481  0.32742617  0.19317891  1
  O2-  O472  1  0.88276222  0.31366413  0.52633333  1
  O2-  O473  1  0.90753741  0.36150075  0.84766774  1
  O2-  O474  1  0.94306806  0.57292910  0.17652406  1
  O2-  O475  1  0.89851430  0.58614752  0.52140079  1
  O2-  O476  1  0.90112000  0.57273776  0.84981762  1
  O2-  O477  1  0.92702200  0.82937070  0.20073624  1
  O2-  O478  1  0.91664483  0.85839849  0.50502686  1
  O2-  O479  1  0.90310505  0.81647112  0.84767852  1
  O2-  O480  1  0.18091127  0.07634505  0.30395579  1
  O2-  O481  1  0.15367617  0.10905241  0.63204627  1
  O2-  O482  1  0.16877443  0.09722541  0.97512765  1
  O2-  O483  1  0.15035024  0.33029471  0.30706610  1
  O2-  O484  1  0.18511546  0.33706861  0.64124317  1
  O2-  O485  1  0.19291761  0.37730736  0.97151845  1
  O2-  O486  1  0.22129135  0.65418585  0.29430761  1
  O2-  O487  1  0.16773713  0.57800833  0.63587654  1
  O2-  O488  1  0.17937543  0.58151933  0.96958705  1
  O2-  O489  1  0.18109413  0.84212109  0.29612827  1
  O2-  O490  1  0.16714752  0.83065390  0.66250031  1
  O2-  O491  1  0.19197116  0.79323747  0.89808621  1
  O2-  O492  1  0.39921819  0.08361937  0.31222415  1
  O2-  O493  1  0.41411043  0.09031675  0.63327527  1
  O2-  O494  1  0.28026886  -0.00311499  0.97504074  1
  O2-  O495  1  0.40518288  0.33482047  0.30819002  1
  O2-  O496  1  0.42466218  0.35283107  0.66105571  1
  O2-  O497  1  0.42021314  0.35184095  0.97761285  1
  O2-  O498  1  0.44378626  0.57758774  0.32323266  1
  O2-  O499  1  0.43684825  0.59236496  0.62835070  1
  O2-  O500  1  0.39027273  0.55186143  1.00700683  1
  O2-  O501  1  0.44830754  0.80916267  0.31567500  1
  O2-  O502  1  0.40246595  0.83510804  0.63959932  1
  O2-  O503  1  0.41614359  0.82202673  0.97972022  1
  O2-  O504  1  0.65358438  0.06711228  0.29444152  1
  O2-  O505  1  0.66735193  0.09417610  0.64631668  1
  O2-  O506  1  0.67958467  0.05924393  0.96911111  1
  O2-  O507  1  0.66563713  0.34453273  0.30122803  1
  O2-  O508  1  0.67118108  0.33233941  0.63829472  1
  O2-  O509  1  0.69398430  0.34513774  0.97035479  1
  O2-  O510  1  0.55313734  0.52968133  0.28166768  1
  O2-  O511  1  0.68234760  0.58552269  0.64306282  1
  O2-  O512  1  0.66026557  0.55868479  0.98126407  1
  O2-  O513  1  0.66452837  0.86236018  0.31203606  1
  O2-  O514  1  0.68861118  0.82088089  0.63669757  1
  O2-  O515  1  0.65240599  0.81336708  0.97388866  1
  O2-  O516  1  0.93049862  0.08367998  0.32705182  1
  O2-  O517  1  0.88249630  0.05203873  0.63941126  1
  O2-  O518  1  0.95437790  0.12878087  0.98347792  1
  O2-  O519  1  0.92118898  0.32239408  0.31727455  1
  O2-  O520  1  0.92646734  0.33984245  0.64188528  1
  O2-  O521  1  0.93516164  0.34380353  0.98017745  1
  O2-  O522  1  0.97023848  0.53707784  0.29463876  1
  O2-  O523  1  0.92304756  0.58101936  0.64687361  1
  O2-  O524  1  0.92526372  0.58852367  0.97336041  1
  O2-  O525  1  0.91214460  0.85190759  0.31737766  1
  O2-  O526  1  0.93525814  0.86793598  0.63584559  1
  O2-  O527  1  0.91914198  0.82557852  0.97272412  1
  O2-  O528  1  0.13319746  0.21135159  0.02269217  1
  O2-  O529  1  0.08663964  0.19426893  0.37184401  1
  O2-  O530  1  0.05109326  0.15588302  0.68482337  1
  O2-  O531  1  0.08743398  0.42144031  0.02100554  1
  O2-  O532  1  0.08149950  0.40520128  0.34941438  1
  O2-  O533  1  0.08857886  0.41418084  0.68478937  1
  O2-  O534  1  0.07337373  0.62171967  0.02730465  1
  O2-  O535  1  0.10543745  0.69048131  0.35158588  1
  O2-  O536  1  0.09360721  0.65515509  0.68658455  1
  O2-  O537  1  0.08540812  0.92943903  0.01891010  1
  O2-  O538  1  0.06752973  0.91589840  0.36378652  1
  O2-  O539  1  0.09576303  0.94138314  0.68489059  1
  O2-  O540  1  0.32501495  0.16022662  0.02072401  1
  O2-  O541  1  0.32630626  0.17665277  0.35829097  1
  O2-  O542  1  0.32431185  0.17639332  0.66034606  1
  O2-  O543  1  0.32641970  0.39360568  0.05641876  1
  O2-  O544  1  0.35737659  0.42697491  0.38588763  1
  O2-  O545  1  0.35543951  0.44262699  0.68699300  1
  O2-  O546  1  0.33617984  0.66074412  0.02600592  1
  O2-  O547  1  0.34756042  0.65659026  0.35698128  1
  O2-  O548  1  0.33972114  0.67383462  0.66383776  1
  O2-  O549  1  0.30491094  0.86738651  0.01910329  1
  O2-  O550  1  0.32768122  0.93255840  0.34474720  1
  O2-  O551  1  0.33450854  0.92152292  0.68284837  1
  O2-  O552  1  0.64800644  0.19842609  0.01993881  1
  O2-  O553  1  0.56877632  0.15447919  0.34559248  1
  O2-  O554  1  0.57822252  0.17445077  0.68058943  1
  O2-  O555  1  0.56379056  0.37308659  0.04047444  1
  O2-  O556  1  0.57483720  0.39995306  0.36227806  1
  O2-  O557  1  0.59974400  0.42304250  0.68212283  1
  O2-  O558  1  0.55553055  0.63583299  -0.03090921  1
  O2-  O559  1  0.58501105  0.69916626  0.36826065  1
  O2-  O560  1  0.59449389  0.66434545  0.67541038  1
  O2-  O561  1  0.57962905  0.90659748  0.01844716  1
  O2-  O562  1  0.61984471  0.90547203  0.33503971  1
  O2-  O563  1  0.56439106  0.93482187  0.69455631  1
  O2-  O564  1  0.84858117  0.19155728  0.01434736  1
  O2-  O565  1  0.84784670  0.15580725  0.36179660  1
  O2-  O566  1  0.85921878  0.18206770  0.70127966  1
  O2-  O567  1  0.85878346  0.42697341  0.00642767  1
  O2-  O568  1  0.79321700  0.32295199  0.37911074  1
  O2-  O569  1  0.84163482  0.41179476  0.67433786  1
  O2-  O570  1  0.83737623  0.66267717  0.01534947  1
  O2-  O571  1  0.80255955  0.71506299  0.37847138  1
  O2-  O572  1  0.84059145  0.66040978  0.69869121  1
  O2-  O573  1  0.82047562  0.89764057  0.00626964  1
  O2-  O574  1  0.82671092  0.92828266  0.35295189  1
  O2-  O575  1  0.83858319  0.91152149  0.69786849  1
