# generated using pymatgen
data_H2O
_symmetry_space_group_name_H-M   'P 1'
_cell_length_a   17.99094510
_cell_length_b   17.99149464
_cell_length_c   22.01466004
_cell_angle_alpha   89.97344217
_cell_angle_beta   90.00086410
_cell_angle_gamma   120.00484828
_symmetry_Int_Tables_number   1
_chemical_formula_structural   H2O
_chemical_formula_sum   'H384 O192'
_cell_volume   6170.81544202
_cell_formula_units_Z   192
loop_
 _symmetry_equiv_pos_site_id
 _symmetry_equiv_pos_as_xyz
  1  'x, y, z'
loop_
 _atom_type_symbol
 _atom_type_oxidation_number
  H+  1.0
  O2-  -2.0
loop_
 _atom_site_type_symbol
 _atom_site_label
 _atom_site_symmetry_multiplicity
 _atom_site_fract_x
 _atom_site_fract_y
 _atom_site_fract_z
 _atom_site_occupancy
  H+  H0  1  0.89149212  0.86534834  0.17270986  1
  H+  H1  1  0.73200223  0.11237699  0.17175192  1
  H+  H2  1  0.23130678  0.36060459  0.67181086  1
  H+  H3  1  0.39765163  0.62083484  0.99201845  1
  H+  H4  1  0.64477482  0.76219494  0.17758594  1
  H+  H5  1  0.91763794  0.55283376  0.66876782  1
  H+  H6  1  0.63380476  0.35456291  0.50645284  1
  H+  H7  1  0.73648282  0.10770676  0.49183791  1
  H+  H8  1  0.88951137  0.86029412  0.66393020  1
  H+  H9  1  0.36579253  0.47348734  0.16348000  1
  H+  H10  1  0.88355186  0.36420217  0.99433051  1
  H+  H11  1  0.88811105  0.86705808  0.84320482  1
  H+  H12  1  0.10291051  0.47976074  0.01200752  1
  H+  H13  1  0.58789404  0.13976432  0.68157009  1
  H+  H14  1  0.02580643  0.63739333  -0.00407137  1
  H+  H15  1  0.01325759  0.12607668  0.33428975  1
  H+  H16  1  0.89977780  0.41197271  0.68608915  1
  H+  H17  1  0.63533973  0.85892143  0.99708107  1
  H+  H18  1  0.87575581  0.10998629  0.99500811  1
  H+  H19  1  0.38634093  0.52053758  0.50588548  1
  H+  H20  1  0.11118092  0.63932007  0.15331904  1
  H+  H21  1  0.76943032  0.63358359  0.66651926  1
  H+  H22  1  0.47741755  0.10949398  0.17015061  1
  H+  H23  1  0.37525671  0.26403384  0.84935204  1
  H+  H24  1  0.03144795  0.71630886  0.44614111  1
  H+  H25  1  0.85566721  0.71494164  0.16081086  1
  H+  H26  1  0.14185755  0.61711346  0.84026198  1
  H+  H27  1  -0.00493720  0.87174275  0.17334826  1
  H+  H28  1  0.59687068  0.41748331  0.72561281  1
  H+  H29  1  0.86924870  0.23650853  0.83742381  1
  H+  H30  1  0.27697641  0.63519556  0.82778275  1
  H+  H31  1  0.35745789  0.86600473  0.67366726  1
  H+  H32  1  0.74630356  0.53661511  0.79037218  1
  H+  H33  1  0.58565484  0.16286190  0.10075199  1
  H+  H34  1  0.39387132  0.61652784  0.83820677  1
  H+  H35  1  0.02955286  0.63992122  0.82429449  1
  H+  H36  1  0.97904801  0.86287687  0.99537986  1
  H+  H37  1  0.39489569  0.10864208  0.50649167  1
  H+  H38  1  0.43163175  0.45936408  0.44445444  1
  H+  H39  1  0.88034165  0.23825465  0.68078934  1
  H+  H40  1  0.49390297  0.12601468  0.67957871  1
  H+  H41  1  0.77489356  0.14319528  0.34138125  1
  H+  H42  1  0.36571497  0.22764334  0.33726946  1
  H+  H43  1  0.21927581  0.35020977  0.31687818  1
  H+  H44  1  0.39080993  0.11170384  0.32454000  1
  H+  H45  1  0.76861081  0.87947583  0.48941036  1
  H+  H46  1  0.36542866  0.63507816  0.67248098  1
  H+  H47  1  1.02623122  0.89560615  0.49800949  1
  H+  H48  1  0.61498324  0.13314702  0.16028435  1
  H+  H49  1  0.48341795  0.10893463  0.51062735  1
  H+  H50  1  0.27984564  0.64190999  0.67173398  1
  H+  H51  1  0.31665410  0.15045115  0.77790182  1
  H+  H52  1  0.20731841  0.13596909  0.51538821  1
  H+  H53  1  0.87139674  0.73791304  0.31788708  1
  H+  H54  1  0.11051664  0.13898467  0.83495571  1
  H+  H55  1  0.64003420  0.78758097  0.83796630  1
  H+  H56  1  0.69364826  0.58624705  0.84429127  1
  H+  H57  1  0.98247284  0.36744542  0.66004879  1
  H+  H58  1  0.89118471  0.13521645  0.84614564  1
  H+  H59  1  0.85524912  0.97008954  0.00762121  1
  H+  H60  1  0.61292394  0.26479489  0.17753248  1
  H+  H61  1  0.85726471  0.61960320  1.00814797  1
  H+  H62  1  0.47415038  0.36286799  0.65468460  1
  H+  H63  1  0.10930229  0.97332940  0.82632214  1
  H+  H64  1  1.05435676  0.40873841  0.36899302  1
  H+  H65  1  0.36938922  -0.02704079  0.15788274  1
  H+  H66  1  0.87314379  0.47338391  0.16300017  1
  H+  H67  1  0.13360298  0.24368998  0.68058069  1
  H+  H68  1  0.36533180  0.88152071  0.49288871  1
  H+  H69  1  0.36784058  0.97308916  0.00674531  1
  H+  H70  1  0.86741133  0.48487786  0.00028014  1
  H+  H71  1  0.18698925  0.08497704  1.06189018  1
  H+  H72  1  0.61390911  0.98188066  0.82721778  1
  H+  H73  1  0.66004652  0.78475865  0.32693887  1
  H+  H74  1  0.38206957  0.49337870  1.00140298  1
  H+  H75  1  0.84897265  0.41949289  0.10224235  1
  H+  H76  1  0.98530041  0.12987615  0.84650199  1
  H+  H77  1  0.36975259  -0.11375718  0.33502445  1
  H+  H78  1  0.39385408  0.77070366  0.32046452  1
  H+  H79  1  1.03303101  0.69498229  0.66217512  1
  H+  H80  1  -0.01689587  0.86549002  0.84108253  1
  H+  H81  1  0.14192252  0.53804012  0.16849590  1
  H+  H82  1  0.13627130  0.61270967  0.99372687  1
  H+  H83  1  0.61664842  0.22803910  0.00808783  1
  H+  H84  1  0.62136178  0.13208060  0.48724377  1
  H+  H85  1  0.89158060  0.86748894  -0.00861945  1
  H+  H86  1  0.47892214  0.86155973  0.84035955  1
  H+  H87  1  0.88713695  0.60008745  0.83712414  1
  H+  H88  1  0.62788555  0.52378636  0.32970085  1
  H+  H89  1  0.86382011  0.96917533  0.68256883  1
  H+  H90  1  0.11471162  0.12724116  0.16129388  1
  H+  H91  1  0.36865860  0.99773669  0.66103362  1
  H+  H92  1  0.34149075  0.10856770  0.68547917  1
  H+  H93  1  1.02738288  0.63468648  0.33530779  1
  H+  H94  1  0.62636282  0.85270493  0.49149514  1
  H+  H95  1  0.60531646  0.26296669  0.65926178  1
  H+  H96  1  0.88849889  0.51951121  0.33112248  1
  H+  H97  1  0.86325127  0.13392800  0.49837892  1
  H+  H98  1  0.85508611  0.61789956  0.34085308  1
  H+  H99  1  0.12224989  0.01441288  0.66206829  1
  H+  H100  1  0.37571640  1.01340407  0.84296608  1
  H+  H101  1  0.11343632  0.12766823  0.51613032  1
  H+  H102  1  0.88086415  0.01991086  0.51147244  1
  H+  H103  1  0.97756154  0.36289702  0.18068016  1
  H+  H104  1  0.13529778  0.36683964  0.83296278  1
  H+  H105  1  0.86578475  0.97019440  0.16192391  1
  H+  H106  1  0.37004069  -0.02762543  0.49351786  1
  H+  H107  1  0.77888676  0.87701984  0.69044434  1
  H+  H108  1  0.86174960  0.22388631  0.49937544  1
  H+  H109  1  0.82740872  0.65733683  0.43508902  1
  H+  H110  1  0.37943882  0.35988058  0.32199164  1
  H+  H111  1  0.61983518  0.88189824  0.15933169  1
  H+  H112  1  0.14444313  0.39728717  0.99106128  1
  H+  H113  1  0.62860336  0.26602241  0.84609714  1
  H+  H114  1  0.76982229  0.87897135  0.00974699  1
  H+  H115  1  0.11519935  0.25618211  0.52793590  1
  H+  H116  1  0.14738781  0.88019542  0.50816419  1
  H+  H117  1  0.89168243  0.93644983  0.32712572  1
  H+  H118  1  0.72099635  0.35403763  0.84827086  1
  H+  H119  1  0.62063101  0.62183083  0.16988959  1
  H+  H120  1  0.47550887  0.61212108  0.65453730  1
  H+  H121  1  0.60717836  0.45760077  0.82148285  1
  H+  H122  1  0.23037454  0.86350789  0.99932944  1
  H+  H123  1  0.96987158  0.61822408  0.51090032  1
  H+  H124  1  0.86539910  0.38904276  0.34758272  1
  H+  H125  1  0.88378379  0.85663638  0.50703756  1
  H+  H126  1  0.63691996  0.27584769  0.33106304  1
  H+  H127  1  0.39535187  0.76980823  0.65882724  1
  H+  H128  1  0.61835682  0.36776514  0.65774319  1
  H+  H129  1  0.76593633  0.62443070  0.16959601  1
  H+  H130  1  0.61816666  0.63340796  0.01479534  1
  H+  H131  1  0.22481080  0.60956094  0.99538333  1
  H+  H132  1  0.36279959  0.47595043  0.67358944  1
  H+  H133  1  0.60125949  0.13312596  0.82945096  1
  H+  H134  1  0.62538891  0.89202418  0.32925855  1
  H+  H135  1  1.02346673  0.39188480  0.82823398  1
  H+  H136  1  0.47495821  0.85580657  0.50059669  1
  H+  H137  1  0.22821162  0.86806008  0.33250280  1
  H+  H138  1  0.11335248  0.48079276  0.82747025  1
  H+  H139  1  0.33796598  0.66083267  0.06403070  1
  H+  H140  1  0.11725549  0.72243433  0.00585084  1
  H+  H141  1  0.77455009  0.38754139  0.34536959  1
  H+  H142  1  0.59205598  0.37887061  0.16142411  1
  H+  H143  1  0.86196042  0.64017244  0.67260490  1
  H+  H144  1  0.37724084  0.35605332  0.17248228  1
  H+  H145  1  0.27693000  0.39239882  0.82689842  1
  H+  H146  1  0.41689644  0.07548207  0.93783769  1
  H+  H147  1  0.10062554  0.21038700  0.01454796  1
  H+  H148  1  0.51653864  0.38432509  0.33966327  1
  H+  H149  1  0.23946603  0.61612407  0.32475563  1
  H+  H150  1  0.61813322  0.47576589  0.66348018  1
  H+  H151  1  0.77752097  0.39763521  1.00408557  1
  H+  H152  1  0.76655899  0.13261304  0.00585895  1
  H+  H153  1  0.58563700  0.91410009  0.06499782  1
  H+  H154  1  0.86675117  0.13684831  0.15791360  1
  H+  H155  1  0.62286941  0.64076328  0.33502411  1
  H+  H156  1  0.38193110  0.35624147  0.84384263  1
  H+  H157  1  0.61942183  0.22104160  0.49522668  1
  H+  H158  1  0.41698734  0.82905391  0.93592119  1
  H+  H159  1  0.54649752  0.66151309  0.32662293  1
  H+  H160  1  0.11037168  0.96241468  0.02238277  1
  H+  H161  1  0.63530952  0.36412620  0.33197020  1
  H+  H162  1  0.10618793  0.38865664  0.16541315  1
  H+  H163  1  0.14003913  0.54002843  0.65947193  1
  H+  H164  1  0.10651468  -0.00914231  0.50197947  1
  H+  H165  1  0.60624841  -0.02208536  0.67034088  1
  H+  H166  1  0.36445594  0.13407711  0.16061251  1
  H+  H167  1  0.52474635  0.13546481  0.33684544  1
  H+  H168  1  0.37973864  0.25638451  0.50901736  1
  H+  H169  1  0.34681285  0.12496071  0.83885986  1
  H+  H170  1  0.73233184  0.85256400  0.17204501  1
  H+  H171  1  0.62793979  0.38139828  0.81705752  1
  H+  H172  1  0.12318462  0.70856981  0.73895896  1
  H+  H173  1  0.01608125  0.38731159  0.01127198  1
  H+  H174  1  0.88762740  0.35732080  0.17840156  1
  H+  H175  1  0.60540032  0.71632301  0.48883507  1
  H+  H176  1  0.11804399  0.39589210  0.67509918  1
  H+  H177  1  0.36262460  0.72078521  0.00511117  1
  H+  H178  1  0.92684697  0.84122317  0.90815792  1
  H+  H179  1  0.27844824  0.13649178  0.33373127  1
  H+  H180  1  0.85758432  0.72042631  0.49344373  1
  H+  H181  1  0.27329804  0.64518440  0.48765300  1
  H+  H182  1  0.14327227  0.10860217  0.31530959  1
  H+  H183  1  0.22918604  0.86781169  0.50227575  1
  H+  H184  1  0.01611011  0.87476341  0.67483780  1
  H+  H185  1  0.89426247  0.28508569  0.33696189  1
  H+  H186  1  0.41216050  0.57384464  0.24105009  1
  H+  H187  1  0.70104773  0.16244325  0.62041560  1
  H+  H188  1  0.63400952  0.60792009  0.65384032  1
  H+  H189  1  0.48858326  0.62188244  0.99565223  1
  H+  H190  1  0.52277601  0.88252306  0.00690875  1
  H+  H191  1  0.37531536  0.72592679  0.15546178  1
  H+  H192  1  0.14103354  0.76903872  0.15959172  1
  H+  H193  1  0.83722865  0.91683665  0.43588913  1
  H+  H194  1  0.64819300  0.87812081  0.84356152  1
  H+  H195  1  0.47030066  0.61024232  0.50538592  1
  H+  H196  1  0.76425783  0.61902949  0.34067210  1
  H+  H197  1  0.78355173  0.88423721  0.83698753  1
  H+  H198  1  0.57830857  0.65866353  0.43004181  1
  H+  H199  1  0.63925544  0.11410802  0.32494577  1
  H+  H200  1  0.72302127  0.11873402  0.84184148  1
  H+  H201  1  0.38291574  0.38265880  0.48851120  1
  H+  H202  1  0.91236837  0.33245250  0.60583774  1
  H+  H203  1  0.87772957  0.60811296  0.51194014  1
  H+  H204  1  0.39103308  0.77088233  0.83967854  1
  H+  H205  1  0.42307255  0.34132917  0.92648041  1
  H+  H206  1  0.15059857  0.61426168  0.32247625  1
  H+  H207  1  0.13473121  0.25842310  0.32475580  1
  H+  H208  1  0.36931225  0.63424464  0.16072052  1
  H+  H209  1  0.46179294  1.10480462  0.84403375  1
  H+  H210  1  0.11505270  0.23194043  0.83252440  1
  H+  H211  1  0.40330004  0.06343951  0.60431381  1
  H+  H212  1  0.07963115  0.90998566  0.76819680  1
  H+  H213  1  -0.03614672  0.10641973  -0.00181850  1
  H+  H214  1  0.29750192  0.14652802  0.00533136  1
  H+  H215  1  0.88290719  0.76877794  0.66156891  1
  H+  H216  1  0.15603911  0.07326061  0.90075219  1
  H+  H217  1  0.44261961  0.57003470  0.34234579  1
  H+  H218  1  0.61916642  0.66510373  0.80625780  1
  H+  H219  1  0.43227223  0.59408199  0.89690203  1
  H+  H220  1  0.35961128  0.22157827  0.16115160  1
  H+  H221  1  0.08308890  0.42864198  0.46563134  1
  H+  H222  1  -0.03171383  0.11309180  0.52018104  1
  H+  H223  1  0.34785293  0.47130817  0.32709414  1
  H+  H224  1  0.36911992  0.47860258  0.82898239  1
  H+  H225  1  0.61971683  -0.02158003  0.33128386  1
  H+  H226  1  0.60122215  0.47251492  0.16079006  1
  H+  H227  1  0.47754885  0.60551916  0.18443621  1
  H+  H228  1  0.63562306  0.36425401  1.00001217  1
  H+  H229  1  0.62971590  0.60336386  0.50206276  1
  H+  H230  1  0.39598200  0.11041784  -0.00152938  1
  H+  H231  1  0.39906025  0.38478838  -0.01103655  1
  H+  H232  1  0.04215409  0.27274611  0.20656230  1
  H+  H233  1  0.41249891  0.32899263  0.26535164  1
  H+  H234  1  0.13638539  0.62447490  0.50010081  1
  H+  H235  1  0.13917814  0.78068352  0.33060705  1
  H+  H236  1  0.22803171  0.86212794  0.84390488  1
  H+  H237  1  0.85947137  0.47295206  0.50064915  1
  H+  H238  1  0.97380429  0.10027189  0.17400149  1
  H+  H239  1  0.72816067  0.60104944  0.00688834  1
  H+  H240  1  0.48090805  0.86113198  0.31805645  1
  H+  H241  1  0.12206734  0.89837794  0.34686379  1
  H+  H242  1  0.22943132  0.10450626  0.16927058  1
  H+  H243  1  0.88559926  0.36533428  0.84821122  1
  H+  H244  1  0.59967646  0.57191866  0.86452646  1
  H+  H245  1  0.38632121  0.85831004  0.99508244  1
  H+  H246  1  0.14718334  0.85828467  0.17393637  1
  H+  H247  1  0.25816056  0.11701327  0.68425922  1
  H+  H248  1  0.36911836  0.62994898  0.33512756  1
  H+  H249  1  0.10727665  0.75202326  0.49285691  1
  H+  H250  1  0.87020086  0.82291976  0.32741641  1
  H+  H251  1  0.78744644  0.89538506  0.33258605  1
  H+  H252  1  0.79816834  0.14470360  0.68564843  1
  H+  H253  1  0.36295244  0.88031283  0.83079166  1
  H+  H254  1  0.60927989  0.10968932  0.59458825  1
  H+  H255  1  0.86887321  0.22738854  0.16167851  1
  H+  H256  1  0.27523838  0.08690001  0.47491889  1
  H+  H257  1  0.39734553  0.86269968  0.16700059  1
  H+  H258  1  0.72626144  0.36005843  0.51095867  1
  H+  H259  1  0.35673599  0.63469600  0.49171903  1
  H+  H260  1  0.31927192  0.40549429  0.38505194  1
  H+  H261  1  0.92944955  0.59348190  0.90314729  1
  H+  H262  1  0.86423330  0.47700798  0.84263248  1
  H+  H263  1  0.38555764  0.76801878  0.50412364  1
  H+  H264  1  0.87944280  0.03775008  0.32924773  1
  H+  H265  1  0.96903764  0.35594302  0.51882734  1
  H+  H266  1  0.10945888  -0.02876631  0.16520642  1
  H+  H267  1  0.09512382  0.86070091  0.68056793  1
  H+  H268  1  0.20745866  0.34756829  0.52136059  1
  H+  H269  1  0.13929159  0.86320167  0.84369268  1
  H+  H270  1  0.12956421  0.10221465  0.01807684  1
  H+  H271  1  0.29128650  0.40788946  0.00056707  1
  H+  H272  1  0.28189972  0.88159078  0.15399799  1
  H+  H273  1  0.89421010  0.10434527  0.67037324  1
  H+  H274  1  0.11962136  0.13594365  0.68028244  1
  H+  H275  1  0.61233098  0.96511318  0.47659195  1
  H+  H276  1  0.46592523  0.35693367  0.17207505  1
  H+  H277  1  0.63217592  0.02047648  0.99219871  1
  H+  H278  1  0.49157144  0.37866852  0.99314610  1
  H+  H279  1  0.88440199  0.60615203  0.17805492  1
  H+  H280  1  0.64154557  0.87698098  0.65548972  1
  H+  H281  1  0.11696174  0.72982413  0.83304281  1
  H+  H282  1  0.51907523  0.37240203  0.49731484  1
  H+  H283  1  0.61783390  0.72943389  0.65710967  1
  H+  H284  1  0.09608284  0.37886113  0.52024743  1
  H+  H285  1  0.52225530  0.88509253  0.66907949  1
  H+  H286  1  1.07198779  0.66134627  0.09608555  1
  H+  H287  1  0.14654797  0.02227748  0.32537218  1
  H+  H288  1  0.34869902  0.16800371  0.06672573  1
  H+  H289  1  0.17081100  0.07468584  0.22927397  1
  H+  H290  1  0.66124536  0.08406048  0.89940882  1
  H+  H291  1  0.90159239  0.06539834  0.60708828  1
  H+  H292  1  0.68451333  0.83642409  0.26398680  1
  H+  H293  1  0.87762400  0.35398196  0.51396486  1
  H+  H294  1  0.61883821  0.72328758  0.01449020  1
  H+  H295  1  0.84655159  0.17718833  0.77770034  1
  H+  H296  1  0.26079007  0.83996068  0.68614237  1
  H+  H297  1  0.11149633  0.87402679  0.01671017  1
  H+  H298  1  0.07880354  0.42079938  0.10671412  1
  H+  H299  1  0.64356316  0.32631455  0.23565084  1
  H+  H300  1  0.65035083  0.32237238  0.59585693  1
  H+  H301  1  0.33887717  0.41890060  0.73445096  1
  H+  H302  1  0.83057397  0.41512945  0.44042794  1
  H+  H303  1  0.57447240  0.41066824  0.40024145  1
  H+  H304  1  0.41027461  0.57809168  0.59893074  1
  H+  H305  1  0.91880918  0.09502862  0.90930498  1
  H+  H306  1  0.57842496  0.90426076  0.41902587  1
  H+  H307  1  0.66505999  0.57964748  0.26704393  1
  H+  H308  1  0.72016076  0.60545941  0.50326298  1
  H+  H309  1  0.16798714  0.58456216  0.90024828  1
  H+  H310  1  0.82637269  0.64090760  0.07214427  1
  H+  H311  1  0.91336107  0.82264060  0.23446157  1
  H+  H312  1  0.58338502  0.67905108  0.71885419  1
  H+  H313  1  0.79865965  0.62897091  0.76211325  1
  H+  H314  1  0.52808896  0.13689675  0.00603003  1
  H+  H315  1  0.64496613  0.02146783  0.17277170  1
  H+  H316  1  0.13670714  0.49950259  0.36819264  1
  H+  H317  1  0.66726312  0.83086127  0.93845713  1
  H+  H318  1  0.41874957  0.08087361  0.22970333  1
  H+  H319  1  0.95445651  0.67656645  0.95820184  1
  H+  H320  1  0.09563715  0.93719659  0.40282044  1
  H+  H321  1  0.67175851  0.06034633  0.54580771  1
  H+  H322  1  0.13095156  0.30559185  0.24032771  1
  H+  H323  1  0.66285147  0.33437095  0.93981733  1
  H+  H324  1  0.38662491  0.36400122  0.65639906  1
  H+  H325  1  0.08913294  0.66664912  0.39199876  1
  H+  H326  1  0.33198180  0.15514942  0.42542159  1
  H+  H327  1  0.58672398  0.92100920  0.76876765  1
  H+  H328  1  0.72614399  0.90118008  0.61863745  1
  H+  H329  1  0.83687237  0.41939628  0.78401305  1
  H+  H330  1  0.07129816  0.12827855  0.38962087  1
  H+  H331  1  0.33579779  0.66447317  0.76776895  1
  H+  H332  1  0.17035918  0.35060605  0.89422523  1
  H+  H333  1  0.52365750  0.64855549  0.81857679  1
  H+  H334  1  0.92266082  0.59548024  0.60365803  1
  H+  H335  1  0.95475750  0.48548812  0.73191271  1
  H+  H336  1  0.34582519  0.42307609  0.10134920  1
  H+  H337  1  0.67309846  0.08648339  0.26619336  1
  H+  H338  1  0.65058082  0.82350728  0.55349361  1
  H+  H339  1  0.97615410  0.61198004  0.17505028  1
  H+  H340  1  0.22090775  0.10968608  0.84448929  1
  H+  H341  1  0.66433502  0.57145289  0.94828549  1
  H+  H342  1  0.42227479  0.82887473  0.59818917  1
  H+  H343  1  0.91434146  0.82719650  0.56584075  1
  H+  H344  1  0.91666524  0.57788557  0.27024359  1
  H+  H345  1  0.16523383  0.32420029  0.61371997  1
  H+  H346  1  0.34402550  0.91671372  0.39619858  1
  H+  H347  1  0.83432476  0.16908388  0.40167082  1
  H+  H348  1  0.60655799  0.46446502  0.49601073  1
  H+  H349  1  0.84357334  0.91116958  0.77798999  1
  H+  H350  1  0.56424991  0.16423834  0.77432251  1
  H+  H351  1  0.66205417  0.57676130  0.59441899  1
  H+  H352  1  0.63400599  0.11129419  0.99317338  1
  H+  H353  1  0.34473759  0.67036206  0.39271823  1
  H+  H354  1  0.07417425  0.90274395  0.10788728  1
  H+  H355  1  0.83855955  0.91090753  0.10145473  1
  H+  H356  1  0.57203711  0.41105698  0.06941802  1
  H+  H357  1  0.69572752  0.52401661  0.21221378  1
  H+  H358  1  0.39206071  0.02263326  0.32530323  1
  H+  H359  1  0.82876154  0.16407833  0.06489535  1
  H+  H360  1  0.92452786  0.34296787  0.27865439  1
  H+  H361  1  0.07099987  0.15346340  0.07486437  1
  H+  H362  1  0.41056987  0.32093184  0.56736882  1
  H+  H363  1  0.23133446  0.62404417  0.16007407  1
  H+  H364  1  0.91257981  0.08054738  0.23213788  1
  H+  H365  1  0.09380467  0.17251620  0.74311166  1
  H+  H366  1  0.53215046  0.88444687  0.15954674  1
  H+  H367  1  0.06149668  0.18777224  0.46135474  1
  H+  H368  1  0.14979393  0.08090228  0.60567792  1
  H+  H369  1  0.61251427  0.47657363  0.01292755  1
  H+  H370  1  0.88661920  0.12950501  0.32640031  1
  H+  H371  1  0.87975373  0.27219783  0.99628969  1
  H+  H372  1  0.58255091  0.16289701  0.39700241  1
  H+  H373  1  0.22196222  0.46149619  0.95244172  1
  H+  H374  1  0.33947285  0.91351917  0.06610869  1
  H+  H375  1  0.16958736  0.83570661  0.94059846  1
  H+  H376  1  0.42363146  0.83119247  0.22706386  1
  H+  H377  1  0.59159213  0.65431813  0.11184926  1
  H+  H378  1  0.09785555  0.20913845  0.16533785  1
  H+  H379  1  0.16955071  0.60225419  0.55996099  1
  H+  H380  1  0.15492800  0.63630962  0.66169119  1
  H+  H381  1  0.33020093  0.90411874  0.77043312  1
  H+  H382  1  0.91965632  0.33559749  0.90504447  1
  H+  H383  1  0.08588737  0.42578628  0.73184889  1
  O2-  O384  1  0.07832643  0.15101936  0.14590476  1
  O2-  O385  1  0.06413045  0.17214515  0.50331391  1
  O2-  O386  1  0.08130881  0.17016363  0.81863704  1
  O2-  O387  1  0.08090669  0.42376865  0.15191691  1
  O2-  O388  1  0.06416992  0.40791434  0.50854554  1
  O2-  O389  1  0.08280998  0.42065974  0.81087915  1
  O2-  O390  1  0.07390087  0.66491104  0.14128041  1
  O2-  O391  1  0.06112159  0.69576870  0.47235063  1
  O2-  O392  1  0.09151785  0.67309863  0.81157218  1
  O2-  O393  1  0.07215881  0.90822847  0.15386105  1
  O2-  O394  1  0.08734540  0.93241120  0.48579160  1
  O2-  O395  1  0.07991899  0.91183907  0.81394580  1
  O2-  O396  1  0.33082728  0.16093676  0.14485808  1
  O2-  O397  1  0.32551936  0.14408954  0.47118105  1
  O2-  O398  1  0.31675506  0.15574026  0.82398291  1
  O2-  O399  1  0.33862670  0.41472661  0.14555238  1
  O2-  O400  1  0.37753860  0.42906067  0.46665934  1
  O2-  O401  1  0.33790381  0.41842315  0.81370302  1
  O2-  O402  1  0.34388875  0.66577166  0.13983412  1
  O2-  O403  1  0.33511837  0.67124812  0.47447346  1
  O2-  O404  1  0.33782438  0.66412451  0.81324701  1
  O2-  O405  1  0.34449682  0.91369780  0.14118771  1
  O2-  O406  1  0.33801465  0.91372674  0.47599182  1
  O2-  O407  1  0.33107727  0.90908411  0.81559121  1
  O2-  O408  1  0.58130697  0.15994922  0.14601300  1
  O2-  O409  1  0.58632839  0.16021800  0.48086840  1
  O2-  O410  1  0.56826687  0.16267948  0.81932301  1
  O2-  O411  1  0.56685369  0.41333516  0.14285794  1
  O2-  O412  1  0.57928236  0.40378730  0.48141925  1
  O2-  O413  1  0.62129763  0.42491913  0.79234922  1
  O2-  O414  1  0.59395258  0.65573262  0.15711471  1
  O2-  O415  1  0.57481703  0.65495989  0.47524471  1
  O2-  O416  1  0.58075788  0.68718723  0.79730350  1
  O2-  O417  1  0.59322176  0.91523769  0.14422238  1
  O2-  O418  1  0.57821913  0.90353342  0.46490510  1
  O2-  O419  1  0.58725458  0.92056845  0.81377033  1
  O2-  O420  1  0.83784273  0.16814586  0.14303680  1
  O2-  O421  1  0.83452444  0.16481102  0.48030134  1
  O2-  O422  1  0.84152339  0.17444869  0.82312358  1
  O2-  O423  1  0.85004689  0.41434510  0.14668205  1
  O2-  O424  1  0.82730818  0.41233064  0.48619477  1
  O2-  O425  1  0.82915470  0.41433444  0.82857663  1
  O2-  O426  1  0.82683228  0.65374483  0.15074840  1
  O2-  O427  1  0.82564788  0.65869343  0.48060309  1
  O2-  O428  1  0.77963524  0.59753787  0.80183222  1
  O2-  O429  1  0.84083517  0.90938535  0.14716216  1
  O2-  O430  1  0.83133927  0.91165488  0.48062505  1
  O2-  O431  1  0.84422930  0.90914682  0.82336711  1
  O2-  O432  1  0.16736195  0.07303862  0.18311879  1
  O2-  O433  1  0.14859007  0.09763811  0.52909946  1
  O2-  O434  1  0.15680568  0.07965344  0.85668581  1
  O2-  O435  1  0.10234074  0.29317086  0.19719860  1
  O2-  O436  1  0.15414734  0.32105522  0.54451142  1
  O2-  O437  1  0.16571490  0.33726750  0.84990951  1
  O2-  O438  1  0.17024203  0.60121675  0.17044070  1
  O2-  O439  1  0.17611770  0.60712237  0.51537114  1
  O2-  O440  1  0.16999018  0.58437220  0.85465284  1
  O2-  O441  1  0.18156621  0.83029093  0.17075321  1
  O2-  O442  1  0.17012323  0.84181039  0.51912059  1
  O2-  O443  1  0.16815892  0.83292354  0.86070827  1
  O2-  O444  1  0.41614497  0.08047484  0.18435889  1
  O2-  O445  1  0.42284627  0.07899695  0.52569677  1
  O2-  O446  1  0.40174295  0.07293475  0.85977018  1
  O2-  O447  1  0.40571997  0.32314133  0.18804392  1
  O2-  O448  1  0.41239658  0.31717881  0.52092837  1
  O2-  O449  1  0.40916558  0.32531522  0.86244819  1
  O2-  O450  1  0.41604660  0.57840290  0.19487024  1
  O2-  O451  1  0.41052116  0.57984244  0.52191374  1
  O2-  O452  1  0.42980628  0.59075827  0.85131482  1
  O2-  O453  1  0.42847412  0.83274634  0.18155028  1
  O2-  O454  1  0.41782724  0.82867597  0.52082888  1
  O2-  O455  1  0.41873263  0.83082423  0.85572821  1
  O2-  O456  1  0.67234290  0.08166949  0.18834252  1
  O2-  O457  1  0.67219162  0.07127472  0.50225684  1
  O2-  O458  1  0.66167155  0.08643854  0.85356811  1
  O2-  O459  1  0.62677032  0.32217437  0.19246663  1
  O2-  O460  1  0.66413568  0.32551737  0.52462600  1
  O2-  O461  1  0.65925663  0.32705534  0.86034183  1
  O2-  O462  1  0.67645853  0.56429414  0.20101098  1
  O2-  O463  1  0.65935706  0.57314250  0.51848541  1
  O2-  O464  1  0.64110830  0.55289782  0.87026958  1
  O2-  O465  1  0.67330425  0.82452072  0.18930099  1
  O2-  O466  1  0.65647957  0.82258898  0.50904918  1
  O2-  O467  1  0.67456806  0.84384702  0.85824546  1
  O2-  O468  1  0.91247793  0.07351300  0.18703685  1
  O2-  O469  1  0.90356852  0.07737087  0.53033522  1
  O2-  O470  1  0.92392934  0.10421938  0.86252135  1
  O2-  O471  1  0.91721046  0.32625868  0.19537628  1
  O2-  O472  1  0.90407094  0.32126991  0.53091715  1
  O2-  O473  1  0.91930619  0.33631654  0.85922238  1
  O2-  O474  1  0.91735709  0.57915337  0.19386750  1
  O2-  O475  1  0.91110411  0.58147707  0.52821012  1
  O2-  O476  1  0.92419186  0.57906382  0.85346610  1
  O2-  O477  1  0.92377577  0.83534502  0.18816621  1
  O2-  O478  1  0.91470826  0.82640882  0.52040617  1
  O2-  O479  1  0.92326560  0.83723693  0.85961457  1
  O2-  O480  1  0.17724666  0.08141919  0.30340892  1
  O2-  O481  1  0.15065821  0.07626883  0.65114843  1
  O2-  O482  1  0.16653647  0.07527563  1.01987497  1
  O2-  O483  1  0.15727485  0.31465272  0.30505961  1
  O2-  O484  1  0.16820046  0.32520766  0.66057662  1
  O2-  O485  1  0.19344121  0.40150178  0.96544910  1
  O2-  O486  1  0.17700443  0.57798971  0.31804412  1
  O2-  O487  1  0.17601232  0.59958925  0.64413601  1
  O2-  O488  1  0.16492361  0.57946392  0.97901003  1
  O2-  O489  1  0.16630463  0.84341359  0.32421152  1
  O2-  O490  1  0.08753190  0.75125144  0.66851770  1
  O2-  O491  1  0.16857865  0.83374282  0.98592445  1
  O2-  O492  1  0.42282883  0.08339008  0.30957026  1
  O2-  O493  1  0.39938370  0.05946776  0.64957261  1
  O2-  O494  1  0.42415059  0.07749038  0.98290070  1
  O2-  O495  1  0.41315310  0.33078866  0.31110376  1
  O2-  O496  1  0.41566143  0.33496740  0.63786850  1
  O2-  O497  1  0.43025726  0.35377162  0.97403121  1
  O2-  O498  1  0.39804780  0.56355336  0.31427418  1
  O2-  O499  1  0.41325546  0.57956422  0.64456385  1
  O2-  O500  1  0.43047923  0.59330872  0.97552316  1
  O2-  O501  1  0.42010368  0.83150958  0.30451446  1
  O2-  O502  1  0.42489004  0.83092600  0.64394375  1
  O2-  O503  1  0.41702797  0.82748823  0.98121741  1
  O2-  O504  1  0.67215779  0.08549689  0.31184441  1
  O2-  O505  1  0.64724521  0.10822743  0.62588502  1
  O2-  O506  1  0.66351170  0.08067002  0.97619120  1
  O2-  O507  1  0.66844787  0.33680631  0.31731713  1
  O2-  O508  1  0.64223407  0.32266655  0.64212838  1
  O2-  O509  1  0.66846199  0.33662497  0.98497593  1
  O2-  O510  1  0.66183032  0.58420025  0.31479240  1
  O2-  O511  1  0.66331861  0.57626172  0.64025381  1
  O2-  O512  1  0.66463556  0.57579818  0.99310264  1
  O2-  O513  1  0.69044316  0.84420899  0.30961608  1
  O2-  O514  1  0.67656630  0.85245473  0.63768882  1
  O2-  O515  1  0.66656269  0.82845504  0.98373331  1
  O2-  O516  1  0.91363166  0.09529597  0.31046542  1
  O2-  O517  1  0.90195606  0.05876968  0.65225244  1
  O2-  O518  1  0.90643448  0.07988783  0.97815992  1
  O2-  O519  1  0.92461082  0.34600780  0.32376805  1
  O2-  O520  1  0.91916588  0.33605877  0.65176469  1
  O2-  O521  1  0.91359642  0.33249052  0.98112301  1
  O2-  O522  1  0.91733249  0.58019714  0.31602907  1
  O2-  O523  1  0.93124699  0.60766597  0.64860490  1
  O2-  O524  1  0.93765418  0.61619284  0.96335303  1
  O2-  O525  1  0.89483130  0.79784555  0.30065929  1
  O2-  O526  1  0.91681001  0.82893537  0.64562110  1
  O2-  O527  1  0.92481696  0.84302597  0.97233178  1
  O2-  O528  1  0.06778815  0.15092026  0.02825785  1
  O2-  O529  1  0.07377510  0.14382656  0.34697383  1
  O2-  O530  1  0.09986510  0.17652008  0.69745490  1
  O2-  O531  1  0.07644638  0.41899213  0.02694164  1
  O2-  O532  1  0.10605778  0.44475596  0.39271808  1
  O2-  O533  1  0.08739547  0.42676790  0.68635678  1
  O2-  O534  1  0.08465640  0.66035432  0.01654608  1
  O2-  O535  1  0.08918156  0.66765610  0.34733770  1
  O2-  O536  1  0.14762692  0.72817955  0.69658758  1
  O2-  O537  1  0.07785606  0.90063345  0.03386438  1
  O2-  O538  1  0.09734156  0.93615042  0.35793301  1
  O2-  O539  1  0.07679789  0.90271183  0.69068458  1
  O2-  O540  1  0.35527143  0.16841620  0.02165916  1
  O2-  O541  1  0.33761312  0.16644984  0.35197882  1
  O2-  O542  1  0.31366092  0.13768962  0.70507988  1
  O2-  O543  1  0.35118730  0.43103253  0.01434115  1
  O2-  O544  1  0.31987817  0.40544854  0.34045043  1
  O2-  O545  1  0.33322837  0.41557419  0.68921552  1
  O2-  O546  1  0.33424114  0.65922329  0.01815491  1
  O2-  O547  1  0.34919541  0.67221028  0.34775128  1
  O2-  O548  1  0.33954099  0.66915872  0.68860213  1
  O2-  O549  1  0.33540659  0.91154581  0.02028061  1
  O2-  O550  1  0.34387286  0.92024532  0.35099752  1
  O2-  O551  1  0.32030845  0.88771440  0.69075735  1
  O2-  O552  1  0.58884985  0.16675552  0.02138482  1
  O2-  O553  1  0.58571640  0.16585525  0.35206730  1
  O2-  O554  1  0.55460826  0.16708409  0.69409839  1
  O2-  O555  1  0.57666524  0.41301214  0.02325990  1
  O2-  O556  1  0.57710522  0.41579453  0.35520241  1
  O2-  O557  1  0.58894068  0.41450349  0.67908588  1
  O2-  O558  1  0.58668040  0.66296658  0.02969298  1
  O2-  O559  1  0.59876844  0.67883164  0.35028193  1
  O2-  O560  1  0.58609249  0.67121086  0.67419185  1
  O2-  O561  1  0.58464336  0.91443728  0.01949210  1
  O2-  O562  1  0.58976800  0.91642253  0.34387647  1
  O2-  O563  1  0.58411520  0.91896963  0.68441781  1
  O2-  O564  1  0.82820169  0.16299743  0.01928739  1
  O2-  O565  1  0.83570333  0.17342851  0.35638206  1
  O2-  O566  1  0.85662234  0.17957435  0.70061333  1
  O2-  O567  1  0.83974228  0.42556688  0.01519147  1
  O2-  O568  1  0.83362797  0.41823394  0.36316013  1
  O2-  O569  1  0.89990775  0.45925769  0.71048850  1
  O2-  O570  1  0.81913117  0.63840192  0.02732282  1
  O2-  O571  1  0.82481602  0.64867177  0.35639637  1
  O2-  O572  1  0.82603832  0.66476850  0.68765272  1
  O2-  O573  1  0.83116872  0.91114601  0.02418629  1
  O2-  O574  1  0.84566540  0.93039525  0.35372611  1
  O2-  O575  1  0.84012493  0.90892705  0.70086694  1
