# generated using pymatgen
data_H2O
_symmetry_space_group_name_H-M   'P 1'
_cell_length_a   17.99571791
_cell_length_b   17.98525121
_cell_length_c   21.99969545
_cell_angle_alpha   90.03730049
_cell_angle_beta   89.96266898
_cell_angle_gamma   119.97794810
_symmetry_Int_Tables_number   1
_chemical_formula_structural   H2O
_chemical_formula_sum   'H384 O192'
_cell_volume   6167.78639058
_cell_formula_units_Z   192
loop_
 _symmetry_equiv_pos_site_id
 _symmetry_equiv_pos_as_xyz
  1  'x, y, z'
loop_
 _atom_type_symbol
 _atom_type_oxidation_number
  H+  1.0
  O2-  -2.0
loop_
 _atom_site_type_symbol
 _atom_site_label
 _atom_site_symmetry_multiplicity
 _atom_site_fract_x
 _atom_site_fract_y
 _atom_site_fract_z
 _atom_site_occupancy
  H+  H0  1  0.64310074  0.26711941  0.83004515  1
  H+  H1  1  0.37603596  0.75925661  0.17256196  1
  H+  H2  1  0.96210844  0.88513661  0.83566011  1
  H+  H3  1  0.10556155  0.97279796  0.33502051  1
  H+  H4  1  0.61416017  0.13027567  0.49478953  1
  H+  H5  1  0.42997262  0.11565109  0.69231117  1
  H+  H6  1  0.71784779  0.89883914  0.32800953  1
  H+  H7  1  0.27783795  0.37655743  0.33896004  1
  H+  H8  1  0.31606475  0.79412415  0.14703698  1
  H+  H9  1  0.74221263  0.85767294  0.18719939  1
  H+  H10  1  0.87266027  0.15380090  0.00236510  1
  H+  H11  1  0.01431600  0.85967322  0.20052301  1
  H+  H12  1  0.60124953  0.46152528  1.00170139  1
  H+  H13  1  0.88906592  0.78957239  -0.00345357  1
  H+  H14  1  0.18701342  0.36983995  0.60690108  1
  H+  H15  1  0.39102785  0.87102291  0.83251185  1
  H+  H16  1  0.02344805  0.39115390  0.16968789  1
  H+  H17  1  0.83669582  0.65406036  0.41006083  1
  H+  H18  1  0.83832224  0.90625707  0.10668235  1
  H+  H19  1  0.87673013  0.62936375  0.16567332  1
  H+  H20  1  0.12429616  0.74029027  0.67044696  1
  H+  H21  1  0.13011214  0.09231698  0.16212413  1
  H+  H22  1  0.77999489  0.39106154  -0.00213812  1
  H+  H23  1  0.84942308  0.60308100  0.34387800  1
  H+  H24  1  0.85885805  0.89089950  0.42649470  1
  H+  H25  1  0.03216171  0.88157488  0.48944669  1
  H+  H26  1  0.63961654  0.89532481  0.17369170  1
  H+  H27  1  0.84055037  0.02754935  0.34527698  1
  H+  H28  1  0.91513032  0.29700438  0.84899255  1
  H+  H29  1  0.63275736  0.25826570  0.35728065  1
  H+  H30  1  0.76183877  0.61459465  0.35004509  1
  H+  H31  1  0.26084767  0.46884439  0.53607539  1
  H+  H32  1  0.37010748  0.89288115  0.48938117  1
  H+  H33  1  0.14072146  0.53522671  0.33051612  1
  H+  H34  1  0.38829807  0.86999883  0.65101286  1
  H+  H35  1  0.36035599  0.14209160  0.50537691  1
  H+  H36  1  0.89160420  0.35146021  0.50223012  1
  H+  H37  1  0.16763701  0.41218966  0.50998138  1
  H+  H38  1  0.62954568  0.03391985  0.32405569  1
  H+  H39  1  0.81480957  0.88014491  0.01144131  1
  H+  H40  1  0.65290733  0.63646489  0.18769704  1
  H+  H41  1  0.12712372  0.65387478  0.82651015  1
  H+  H42  1  0.36682106  0.47588144  0.82680999  1
  H+  H43  1  0.39879356  0.36693267  0.82704706  1
  H+  H44  1  0.10988534  0.13596745  0.81791813  1
  H+  H45  1  0.51962760  0.89224569  0.81925476  1
  H+  H46  1  0.02854269  0.13902703  0.53261545  1
  H+  H47  1  0.36619889  0.22252718  0.99330122  1
  H+  H48  1  0.37007418  0.52448092  0.16766914  1
  H+  H49  1  0.90019010  0.04546899  0.99541391  1
  H+  H50  1  0.94573306  0.03626113  0.65819842  1
  H+  H51  1  0.88947785  0.12051762  0.16700692  1
  H+  H52  1  0.57039518  0.69070245  0.01007037  1
  H+  H53  1  0.12256168  0.50953530  0.01572553  1
  H+  H54  1  0.16315177  0.62894026  0.99402482  1
  H+  H55  1  0.11322391  0.39474148  0.67422775  1
  H+  H56  1  0.87296184  0.49425044  0.32108044  1
  H+  H57  1  0.25038028  0.62901541  -0.00306931  1
  H+  H58  1  0.59843488  0.13225928  0.33808829  1
  H+  H59  1  0.38557152  -0.00318572  0.66857147  1
  H+  H60  1  0.81694853  0.92630335  0.67169941  1
  H+  H61  1  0.11140532  0.24118285  0.99911021  1
  H+  H62  1  0.18471427  0.79263158  0.34686020  1
  H+  H63  1  0.98975161  0.78194710  0.62483772  1
  H+  H64  1  0.16025721  0.88054460  0.66101858  1
  H+  H65  1  0.47297505  0.11903657  0.51403990  1
  H+  H66  1  0.47655210  0.88783874  0.98632322  1
  H+  H67  1  0.86280366  0.38194273  0.83911464  1
  H+  H68  1  0.61985676  0.35587397  0.16785094  1
  H+  H69  1  0.26479088  0.87818774  0.16567093  1
  H+  H70  1  0.66860103  0.08430514  0.93259096  1
  H+  H71  1  0.37862135  -0.01121758  0.81710521  1
  H+  H72  1  0.62645693  0.02089406  0.83300763  1
  H+  H73  1  0.63835753  0.26674245  0.99613063  1
  H+  H74  1  0.89663440  0.52949652  0.50413387  1
  H+  H75  1  0.54620686  0.87698613  0.17422076  1
  H+  H76  1  0.52236823  0.37055070  0.81845219  1
  H+  H77  1  0.98676602  0.38356203  0.99661065  1
  H+  H78  1  0.47708495  0.86369352  0.49898879  1
  H+  H79  1  0.07967090  0.43415561  0.10981085  1
  H+  H80  1  0.72287919  0.35992922  0.49922680  1
  H+  H81  1  0.04175553  0.49824279  0.05003072  1
  H+  H82  1  1.01504710  0.36869760  0.67245714  1
  H+  H83  1  0.37399166  0.60418612  0.84798914  1
  H+  H84  1  0.31633595  0.89616604  0.39191086  1
  H+  H85  1  0.39577852  0.12326963  0.82932111  1
  H+  H86  1  0.57881638  0.16002803  0.06392886  1
  H+  H87  1  0.12669763  0.33905723  0.31159339  1
  H+  H88  1  0.38410809  0.50512429  0.33502942  1
  H+  H89  1  0.14117168  0.25839580  0.30272360  1
  H+  H90  1  0.77577475  0.14163122  0.15949154  1
  H+  H91  1  0.16542744  0.88718498  0.82473635  1
  H+  H92  1  0.80359640  0.69541818  0.62821293  1
  H+  H93  1  0.93162769  0.70067780  0.75977966  1
  H+  H94  1  0.78605397  0.99295019  0.68897816  1
  H+  H95  1  0.62336910  0.86870132  0.31482107  1
  H+  H96  1  0.60985445  0.59118519  0.51388654  1
  H+  H97  1  0.05399161  0.90062265  0.67594279  1
  H+  H98  1  0.81434565  0.63951862  0.86753191  1
  H+  H99  1  0.76916473  0.15096414  0.34416041  1
  H+  H100  1  0.38603736  0.36575995  0.48980166  1
  H+  H101  1  0.84821997  0.40806461  0.43330408  1
  H+  H102  1  0.76871197  0.39471025  0.16591329  1
  H+  H103  1  0.59908153  0.45767999  0.66751370  1
  H+  H104  1  0.85493276  0.20188217  0.78550589  1
  H+  H105  1  0.61343280  0.13341882  0.00503943  1
  H+  H106  1  0.88025408  0.21024292  0.66077393  1
  H+  H107  1  0.81655765  0.10183780  0.72488110  1
  H+  H108  1  0.85460801  0.39170713  0.17157344  1
  H+  H109  1  0.35362442  0.44334398  0.00267830  1
  H+  H110  1  0.91920758  0.63019050  -0.00266749  1
  H+  H111  1  0.24483559  0.40742693  0.16614164  1
  H+  H112  1  0.88422285  0.85226419  0.50537976  1
  H+  H113  1  0.16080870  0.16425347  0.52766196  1
  H+  H114  1  0.36504790  0.22813709  0.81477700  1
  H+  H115  1  0.41185652  0.11348507  0.25480344  1
  H+  H116  1  0.47946918  0.34967980  -0.01966242  1
  H+  H117  1  0.24817905  0.64663280  0.18379094  1
  H+  H118  1  0.23748137  0.61895105  0.50375972  1
  H+  H119  1  0.61127453  0.37825338  0.34518177  1
  H+  H120  1  0.27558325  0.14770097  0.66662672  1
  H+  H121  1  0.38256917  0.21535585  0.31684005  1
  H+  H122  1  0.87391200  0.33188522  0.24822293  1
  H+  H123  1  0.89405909  0.37447337  -0.01068169  1
  H+  H124  1  0.29190819  0.38680161  0.48259412  1
  H+  H125  1  0.47177253  0.86133257  0.65156363  1
  H+  H126  1  0.37193757  0.72786742  0.49323211  1
  H+  H127  1  0.58792768  0.62533722  0.82190855  1
  H+  H128  1  0.79762790  0.60600995  0.84234157  1
  H+  H129  1  0.57420231  0.69498475  0.66642629  1
  H+  H130  1  0.38473777  0.35017674  0.32423496  1
  H+  H131  1  0.88808257  0.52416368  0.18181255  1
  H+  H132  1  0.62040929  0.72823124  0.16486877  1
  H+  H133  1  0.10401654  0.15652381  0.36757584  1
  H+  H134  1  0.23236236  0.35502720  0.83505870  1
  H+  H135  1  0.40416941  0.74379868  0.29441271  1
  H+  H136  1  0.92128126  0.45458157  0.61777747  1
  H+  H137  1  0.36872941  0.24075721  0.49614202  1
  H+  H138  1  0.26478709  0.89410256  0.00067117  1
  H+  H139  1  0.26808981  0.15195308  0.50748041  1
  H+  H140  1  0.59708615  0.71232517  0.49276672  1
  H+  H141  1  1.01157815  0.33340667  0.51907630  1
  H+  H142  1  0.69097037  0.59604114  0.84673964  1
  H+  H143  1  0.61197827  0.76246864  0.83496185  1
  H+  H144  1  0.87590334  0.02164424  0.84176335  1
  H+  H145  1  0.36709206  0.98062574  0.49132340  1
  H+  H146  1  0.87394855  0.24276283  1.00372022  1
  H+  H147  1  0.87795939  0.83983555  0.19452903  1
  H+  H148  1  0.64971779  0.10268673  0.65193630  1
  H+  H149  1  0.59693026  0.83200421  0.64758072  1
  H+  H150  1  0.38356150  0.50016864  0.49537521  1
  H+  H151  1  0.60911860  0.88264149  0.47715922  1
  H+  H152  1  0.90015793  0.55087439  0.66091581  1
  H+  H153  1  0.11019602  0.68888087  0.40352785  1
  H+  H154  1  0.98767506  0.63850685  0.66037863  1
  H+  H155  1  0.93414965  0.94560722  0.12843921  1
  H+  H156  1  0.41330656  0.33589210  0.55484140  1
  H+  H157  1  0.21622687  0.08737178  0.15682158  1
  H+  H158  1  0.36689074  0.63481323  0.49540745  1
  H+  H159  1  0.50492133  0.62174703  0.49713565  1
  H+  H160  1  0.41737611  0.83521239  0.55940815  1
  H+  H161  1  0.12203535  0.73992580  0.82148638  1
  H+  H162  1  0.12929408  0.52363775  0.65554744  1
  H+  H163  1  -0.01787988  0.12746122  0.31658547  1
  H+  H164  1  0.71612257  0.10697461  0.83337186  1
  H+  H165  1  0.23274280  0.12176847  0.82798844  1
  H+  H166  1  0.93862220  0.78546050  0.68145245  1
  H+  H167  1  0.87817133  0.43934227  0.60319763  1
  H+  H168  1  0.01890023  0.13311111  0.82109674  1
  H+  H169  1  0.42549331  0.09422512  0.88972030  1
  H+  H170  1  0.37838979  0.09951436  0.16143507  1
  H+  H171  1  0.13675967  0.12960386  0.30959748  1
  H+  H172  1  0.14075158  0.27114452  0.83395176  1
  H+  H173  1  0.21748471  0.35471510  0.98631309  1
  H+  H174  1  0.63110093  0.51073522  0.33304473  1
  H+  H175  1  0.81094900  0.64395330  0.01469331  1
  H+  H176  1  0.68331682  0.83831313  0.65764509  1
  H+  H177  1  0.85764441  0.29187037  0.37016499  1
  H+  H178  1  0.66591687  0.81692956  -0.00154588  1
  H+  H179  1  0.60130021  0.61159290  0.35129788  1
  H+  H180  1  0.68293906  0.57877355  0.65671061  1
  H+  H181  1  0.83495070  0.63033942  0.64467617  1
  H+  H182  1  0.51089876  0.37368414  0.48759425  1
  H+  H183  1  0.57460291  0.60619743  0.67285951  1
  H+  H184  1  0.39920507  0.54639597  0.56251146  1
  H+  H185  1  0.87432037  0.27500447  0.19181431  1
  H+  H186  1  0.44404264  0.57499046  1.00723500  1
  H+  H187  1  0.96648743  0.90429442  0.35889053  1
  H+  H188  1  0.28524582  0.41485517  0.66856618  1
  H+  H189  1  0.35110469  0.43216785  0.76147032  1
  H+  H190  1  0.13988140  0.61676961  0.65584573  1
  H+  H191  1  0.39218781  0.78133816  0.83705223  1
  H+  H192  1  0.88875022  0.79273882  0.82231586  1
  H+  H193  1  0.61247265  0.50357936  0.50886865  1
  H+  H194  1  0.47843786  0.11455845  0.98704188  1
  H+  H195  1  0.14682752  0.13468630  0.66632243  1
  H+  H196  1  0.11906788  0.49002766  0.48746617  1
  H+  H197  1  0.86540676  0.16937100  0.33727402  1
  H+  H198  1  0.36384761  0.14673655  0.65698809  1
  H+  H199  1  0.60491598  0.22051884  0.15882138  1
  H+  H200  1  0.86643554  0.95455181  0.48304231  1
  H+  H201  1  0.23897031  0.87001127  0.50756634  1
  H+  H202  1  0.56179790  0.64538254  0.07566959  1
  H+  H203  1  0.73183917  0.10729095  0.50122330  1
  H+  H204  1  0.06266194  0.23513557  0.54169937  1
  H+  H205  1  0.25080939  0.88099190  0.82742104  1
  H+  H206  1  0.14735545  0.55153461  0.83371913  1
  H+  H207  1  0.88237708  0.08362643  0.50140039  1
  H+  H208  1  0.87024642  0.48139449  -0.00095862  1
  H+  H209  1  0.43726281  0.56539260  0.66634575  1
  H+  H210  1  0.75639928  0.91948211  0.04003215  1
  H+  H211  1  0.16805626  0.55126132  0.18208016  1
  H+  H212  1  0.63723283  0.11297266  0.17203999  1
  H+  H213  1  0.68094471  0.33233923  0.40476028  1
  H+  H214  1  0.35290667  0.89322923  1.00018002  1
  H+  H215  1  0.88094129  0.64098222  0.48838680  1
  H+  H216  1  0.60661880  0.46162320  0.82125630  1
  H+  H217  1  0.38398995  0.28306853  0.64730272  1
  H+  H218  1  0.50952359  0.37071599  0.15527623  1
  H+  H219  1  0.70025204  0.85213643  0.84324113  1
  H+  H220  1  0.74316756  0.68942057  0.21972908  1
  H+  H221  1  0.88850241  0.20131708  0.49968686  1
  H+  H222  1  0.34922406  0.20831371  0.15066115  1
  H+  H223  1  0.86252351  0.47148248  0.83402405  1
  H+  H224  1  0.38691681  0.02783871  0.98571085  1
  H+  H225  1  0.68286433  0.99950928  0.01992815  1
  H+  H226  1  0.09067311  0.16666755  0.09775077  1
  H+  H227  1  0.63728408  0.26396988  0.50137024  1
  H+  H228  1  0.43405363  0.67021812  0.20521134  1
  H+  H229  1  0.58926879  0.58905931  0.99753395  1
  H+  H230  1  0.60175838  0.37473911  0.48892195  1
  H+  H231  1  0.11767658  0.99934141  0.83297428  1
  H+  H232  1  0.36436059  0.73078148  0.67233495  1
  H+  H233  1  0.94504237  0.59512841  0.93789225  1
  H+  H234  1  0.51548995  0.88804665  0.31766980  1
  H+  H235  1  0.10887304  0.91306330  0.00172233  1
  H+  H236  1  0.15547815  0.29930248  0.66167142  1
  H+  H237  1  0.60683818  -0.03627819  0.66195191  1
  H+  H238  1  0.11452939  0.72169062  0.18201665  1
  H+  H239  1  0.64316403  0.36043308  0.83257300  1
  H+  H240  1  0.63016467  0.25670805  0.65030262  1
  H+  H241  1  0.57009415  0.40018007  0.09735252  1
  H+  H242  1  0.61283808  0.37779586  0.00279182  1
  H+  H243  1  0.72751429  0.07939088  0.65289645  1
  H+  H244  1  0.89990331  0.60622510  0.84641835  1
  H+  H245  1  0.38787229  0.37374183  0.64444163  1
  H+  H246  1  0.37448792  0.35326215  0.17221392  1
  H+  H247  1  0.89165016  0.08836782  0.65931850  1
  H+  H248  1  0.24552533  0.09847918  0.30262156  1
  H+  H249  1  0.61637652  0.36771666  0.66703146  1
  H+  H250  1  0.03832195  0.64491711  0.49559340  1
  H+  H251  1  0.71853887  0.84407877  0.49671893  1
  H+  H252  1  0.28354885  0.63827395  0.67613761  1
  H+  H253  1  0.99233157  0.61504165  0.83711530  1
  H+  H254  1  0.09029368  0.79447696  0.96084412  1
  H+  H255  1  0.98164123  0.61327577  0.18588292  1
  H+  H256  1  0.61592018  0.14077285  0.82162048  1
  H+  H257  1  0.38005905  0.01248820  0.17397103  1
  H+  H258  1  0.36102677  0.13225579  -0.00452477  1
  H+  H259  1  0.03847860  0.41164322  0.28517599  1
  H+  H260  1  0.09563095  -0.05498039  0.17628894  1
  H+  H261  1  0.13662298  0.73215324  0.02052323  1
  H+  H262  1  0.12186480  0.88582358  0.49028954  1
  H+  H263  1  0.50049689  0.60556549  0.34810393  1
  H+  H264  1  0.28621501  0.65244483  0.82672208  1
  H+  H265  1  1.03236406  0.42525495  0.82353632  1
  H+  H266  1  0.83680393  0.88646186  0.82309394  1
  H+  H267  1  0.01841502  0.90947956  -0.00268103  1
  H+  H268  1  0.12711441  0.64443095  0.49625971  1
  H+  H269  1  0.38742040  0.34486135  -0.02315877  1
  H+  H270  1  0.68208325  0.60754962  0.98100215  1
  H+  H271  1  0.03191995  0.13718811  0.15623772  1
  H+  H272  1  0.37043112  0.74497521  0.00955821  1
  H+  H273  1  0.51521619  0.14691908  0.33702154  1
  H+  H274  1  1.04726225  0.16409616  0.66285163  1
  H+  H275  1  0.73523552  0.12690547  -0.01223427  1
  H+  H276  1  0.04737723  0.64569146  0.01374972  1
  H+  H277  1  0.89560231  0.03390559  0.17190745  1
  H+  H278  1  0.15151909  0.77961475  0.51089473  1
  H+  H279  1  0.91853086  0.39403340  0.51765361  1
  H+  H280  1  0.61458335  0.97359411  0.48252136  1
  H+  H281  1  0.28364300  0.63046984  0.34290229  1
  H+  H282  1  0.53026929  0.12808237  0.66021606  1
  H+  H283  1  0.13584331  0.04531485  0.97938984  1
  H+  H284  1  0.87399199  0.72711041  0.48601536  1
  H+  H285  1  0.87996861  0.75322299  0.18975425  1
  H+  H286  1  0.86155219  0.12871606  0.82467642  1
  H+  H287  1  0.75759365  0.33222587  0.67400357  1
  H+  H288  1  0.19241697  0.83784537  0.25125485  1
  H+  H289  1  0.89871789  0.83934084  0.93476934  1
  H+  H290  1  0.80754142  0.96383645  0.40086119  1
  H+  H291  1  0.17075480  0.84265264  0.91915340  1
  H+  H292  1  0.09049028  0.42535643  0.43068252  1
  H+  H293  1  0.99066489  0.13248150  0.99030885  1
  H+  H294  1  0.64768701  0.32588314  0.22784360  1
  H+  H295  1  0.17702888  0.34480490  0.22369376  1
  H+  H296  1  0.53112406  0.64284721  0.17344784  1
  H+  H297  1  0.91190192  0.05494562  0.56103118  1
  H+  H298  1  0.77752708  0.34790677  0.33332569  1
  H+  H299  1  0.74852894  0.36918295  0.83588964  1
  H+  H300  1  0.93288284  0.35374914  0.90832030  1
  H+  H301  1  0.07668134  0.90842233  0.86563815  1
  H+  H302  1  0.16123800  0.33151596  0.92777342  1
  H+  H303  1  0.42942665  0.59652977  0.24826648  1
  H+  H304  1  0.65788265  0.94987793  0.08290212  1
  H+  H305  1  0.53121054  0.14927080  0.81910405  1
  H+  H306  1  0.13988125  0.38411042  0.16794281  1
  H+  H307  1  0.92037089  0.10660420  0.26086893  1
  H+  H308  1  0.33234124  0.70721535  0.07365215  1
  H+  H309  1  0.87325642  0.84652456  0.33161394  1
  H+  H310  1  0.17567955  0.58737991  0.56320127  1
  H+  H311  1  0.34938658  0.66860899  0.39791900  1
  H+  H312  1  0.09085850  0.67840314  0.72922709  1
  H+  H313  1  0.57386636  0.15434241  0.43840760  1
  H+  H314  1  0.61965549  0.55924450  0.89708275  1
  H+  H315  1  0.19328318  0.59579786  0.27505595  1
  H+  H316  1  0.62273985  0.79416259  0.93313179  1
  H+  H317  1  0.33960579  0.48800546  0.10163385  1
  H+  H318  1  0.86787070  0.29156190  0.66171002  1
  H+  H319  1  0.56613948  0.64222020  0.41311593  1
  H+  H320  1  0.92279430  0.82903842  0.56419734  1
  H+  H321  1  0.05374034  0.20060682  0.42866436  1
  H+  H322  1  0.65552226  0.81947561  0.55473235  1
  H+  H323  1  0.18294966  0.60364847  0.89706532  1
  H+  H324  1  0.84937252  0.69298402  0.72815274  1
  H+  H325  1  0.95531868  0.28281908  0.57802879  1
  H+  H326  1  0.46026716  0.60387776  0.84875544  1
  H+  H327  1  0.34001575  0.40687959  0.40179132  1
  H+  H328  1  0.90613725  0.57025541  0.27356967  1
  H+  H329  1  0.40487143  0.32028784  0.22859199  1
  H+  H330  1  0.86412733  0.67697887  0.07467444  1
  H+  H331  1  0.91820702  0.08840310  0.89756584  1
  H+  H332  1  0.08017220  0.91920214  0.39650435  1
  H+  H333  1  0.59475630  0.16332666  0.71725336  1
  H+  H334  1  0.09022837  0.66824708  0.12086833  1
  H+  H335  1  0.67055241  0.07275385  0.55886169  1
  H+  H336  1  0.32820142  0.15690845  0.08787537  1
  H+  H337  1  0.67586518  0.83657728  0.24258585  1
  H+  H338  1  0.42387046  0.32824923  0.88523008  1
  H+  H339  1  0.79639323  0.92069101  0.77173628  1
  H+  H340  1  0.51837544  0.12929812  0.15869336  1
  H+  H341  1  0.58794848  0.39958752  0.73274083  1
  H+  H342  1  0.82587671  0.37270650  0.72681728  1
  H+  H343  1  0.11580516  0.15384295  -0.00346850  1
  H+  H344  1  0.09871523  0.93227781  0.74004487  1
  H+  H345  1  0.17714502  0.10266209  0.89079293  1
  H+  H346  1  0.55289487  0.65194402  0.76424547  1
  H+  H347  1  0.14163039  0.66168478  0.34441916  1
  H+  H348  1  0.42023819  0.85005376  0.92649428  1
  H+  H349  1  0.64339380  0.02700504  0.17989281  1
  H+  H350  1  0.57278362  0.40641683  0.39872810  1
  H+  H351  1  0.83986729  0.16084700  0.43666368  1
  H+  H352  1  0.41825102  0.09292660  0.57456191  1
  H+  H353  1  -0.00621366  0.39552420  0.34733559  1
  H+  H354  1  0.23018762  0.12740941  0.98180534  1
  H+  H355  1  0.14588777  0.04291741  0.66899254  1
  H+  H356  1  0.78761549  0.63013101  0.15852860  1
  H+  H357  1  0.47510571  0.35372539  0.32008959  1
  H+  H358  1  0.66628460  0.32227763  0.93541919  1
  H+  H359  1  0.57518878  0.90917795  0.72378881  1
  H+  H360  1  0.66246090  0.32452193  0.59451045  1
  H+  H361  1  0.32277313  0.36531270  0.05217772  1
  H+  H362  1  0.66690787  0.09787924  0.26821745  1
  H+  H363  1  0.83624240  0.17800592  0.10078137  1
  H+  H364  1  0.34779329  0.67624063  0.76888291  1
  H+  H365  1  0.62057533  0.54461818  0.59945327  1
  H+  H366  1  0.38838760  0.55004072  0.94677948  1
  H+  H367  1  0.66890475  0.58661163  0.28107095  1
  H+  H368  1  0.60309808  0.88465397  0.82194403  1
  H+  H369  1  0.81059023  0.46920706  0.42799234  1
  H+  H370  1  0.18109810  0.11132632  0.57451337  1
  H+  H371  1  0.13557586  0.85144444  0.20026019  1
  H+  H372  1  0.08169181  0.44567824  0.76018060  1
  H+  H373  1  0.56235950  0.91581834  0.38327409  1
  H+  H374  1  0.38668325  0.59941760  0.33909441  1
  H+  H375  1  0.29225631  0.90532886  0.66781643  1
  H+  H376  1  0.09079297  0.18607578  0.72883379  1
  H+  H377  1  0.04406485  0.15505116  0.43350960  1
  H+  H378  1  0.92686412  0.58966658  0.56401884  1
  H+  H379  1  0.18165144  0.84424359  0.59956037  1
  H+  H380  1  0.31479492  0.90970780  0.10140509  1
  H+  H381  1  0.17666233  0.06784865  0.24832276  1
  H+  H382  1  0.33653798  0.16935209  0.75546766  1
  H+  H383  1  0.35000152  0.93017254  0.75609439  1
  O2-  O384  1  0.09083227  0.15589819  0.14192748  1
  O2-  O385  1  0.08109534  0.19213818  0.54447270  1
  O2-  O386  1  0.07756769  0.16417813  0.80329253  1
  O2-  O387  1  0.08259930  0.42054923  0.15386553  1
  O2-  O388  1  0.09110755  0.42778169  0.47491485  1
  O2-  O389  1  0.08799573  0.46182935  0.80383154  1
  O2-  O390  1  0.08098730  0.66242698  0.16501313  1
  O2-  O391  1  0.09939771  0.67819295  0.48319853  1
  O2-  O392  1  0.09075320  0.67831872  0.80963667  1
  O2-  O393  1  0.06697357  0.88135450  0.17625506  1
  O2-  O394  1  0.09068961  0.91326461  0.47300265  1
  O2-  O395  1  0.08053801  0.93354009  0.82560548  1
  O2-  O396  1  0.32464391  0.14988453  0.13319987  1
  O2-  O397  1  0.33113623  0.17330225  0.48835907  1
  O2-  O398  1  0.33467182  0.16669504  0.80105177  1
  O2-  O399  1  0.33670300  0.46919681  0.14365802  1
  O2-  O400  1  0.35012017  0.41397332  0.46555921  1
  O2-  O401  1  0.34840111  0.41983559  0.80544133  1
  O2-  O402  1  0.32164686  0.74215679  0.14753640  1
  O2-  O403  1  0.34025801  0.66687451  0.47798414  1
  O2-  O404  1  0.34781845  0.67794059  0.81487110  1
  O2-  O405  1  0.32255784  0.90443218  0.14531618  1
  O2-  O406  1  0.33801548  0.92164706  0.47470257  1
  O2-  O407  1  0.34683878  0.92810048  0.80258332  1
  O2-  O408  1  0.57883416  0.16023978  0.14343847  1
  O2-  O409  1  0.58256544  0.16117518  0.48326971  1
  O2-  O410  1  0.59318674  0.17837127  0.80563641  1
  O2-  O411  1  0.57040569  0.40015017  0.14242284  1
  O2-  O412  1  0.57298066  0.40536725  0.47259077  1
  O2-  O413  1  0.58606122  0.40198493  0.80603304  1
  O2-  O414  1  0.58807550  0.66622973  0.15252359  1
  O2-  O415  1  0.56531859  0.64995045  0.48078715  1
  O2-  O416  1  0.55975818  0.65819684  0.80949238  1
  O2-  O417  1  0.60429703  0.92088034  0.15992022  1
  O2-  O418  1  0.57909767  0.91416903  0.46590503  1
  O2-  O419  1  0.58009366  0.92006578  0.80351122  1
  O2-  O420  1  0.83705968  0.17538205  0.14604677  1
  O2-  O421  1  0.83991695  0.14871369  0.48072012  1
  O2-  O422  1  0.82163555  0.14732265  0.80637964  1
  O2-  O423  1  0.83081581  0.42731109  0.15675939  1
  O2-  O424  1  0.82321569  0.43680696  0.45771418  1
  O2-  O425  1  0.82833406  0.40916763  0.82292038  1
  O2-  O426  1  0.84782085  0.65970816  0.14464132  1
  O2-  O427  1  0.84796607  0.66669001  0.47039847  1
  O2-  O428  1  0.90063325  0.73165956  0.75306768  1
  O2-  O429  1  0.87657048  0.92714058  0.14375105  1
  O2-  O430  1  0.83243084  0.89445266  0.46658123  1
  O2-  O431  1  0.80524609  0.91801776  0.81647691  1
  O2-  O432  1  0.15802465  0.05845122  0.17554031  1
  O2-  O433  1  0.18737039  0.12746967  0.53065464  1
  O2-  O434  1  0.17281431  0.09474336  0.84487783  1
  O2-  O435  1  0.18260622  0.36282738  0.17867775  1
  O2-  O436  1  0.21273076  0.40992198  0.53495509  1
  O2-  O437  1  0.17429508  0.32858730  0.85261485  1
  O2-  O438  1  0.21782982  0.59081628  0.20615626  1
  O2-  O439  1  0.17591491  0.58822230  0.51754906  1
  O2-  O440  1  0.18135792  0.61141653  0.85227778  1
  O2-  O441  1  0.17542334  0.82815635  0.20782672  1
  O2-  O442  1  0.18033186  0.84006242  0.52644870  1
  O2-  O443  1  0.18865791  0.85286592  0.84239239  1
  O2-  O444  1  0.41016270  0.07537040  0.18356750  1
  O2-  O445  1  0.41306379  0.09272130  0.52928130  1
  O2-  O446  1  0.42944418  0.09628828  0.84422051  1
  O2-  O447  1  0.39981655  0.31810614  0.18290103  1
  O2-  O448  1  0.41457763  0.33059877  0.50883664  1
  O2-  O449  1  0.42580692  0.33164779  0.83936836  1
  O2-  O450  1  0.43329924  0.61332543  0.20469978  1
  O2-  O451  1  0.40113113  0.55827394  0.51845168  1
  O2-  O452  1  0.40011632  0.57022531  0.86382189  1
  O2-  O453  1  0.45545891  0.77349756  0.21155522  1
  O2-  O454  1  0.41634229  0.83281197  0.51354871  1
  O2-  O455  1  0.42126066  0.84292950  0.85148078  1
  O2-  O456  1  0.67237833  0.08968240  0.19018740  1
  O2-  O457  1  0.67012604  0.07852919  0.51340974  1
  O2-  O458  1  0.65668579  0.08147918  0.84926861  1
  O2-  O459  1  0.65301463  0.32687934  0.18378192  1
  O2-  O460  1  0.66278775  0.32651772  0.51341841  1
  O2-  O461  1  0.67559889  0.33074067  0.84710755  1
  O2-  O462  1  0.69833583  0.63030124  0.21044137  1
  O2-  O463  1  0.63413464  0.55776159  0.53263952  1
  O2-  O464  1  0.62884817  0.56021715  0.85177543  1
  O2-  O465  1  0.68106603  0.83033893  0.19575091  1
  O2-  O466  1  0.65772261  0.81854054  0.50943715  1
  O2-  O467  1  0.63839022  0.82031918  0.85468029  1
  O2-  O468  1  0.92257270  0.09454523  0.18486060  1
  O2-  O469  1  0.91158630  0.05202098  0.51590756  1
  O2-  O470  1  0.91393631  0.08374035  0.85213478  1
  O2-  O471  1  0.90261947  0.33383819  0.20946531  1
  O2-  O472  1  0.97811070  0.27639343  0.53821407  1
  O2-  O473  1  0.92780973  0.35416376  0.86137066  1
  O2-  O474  1  0.91904655  0.58480524  0.19881389  1
  O2-  O475  1  0.92986718  0.58947499  0.51903519  1
  O2-  O476  1  0.93298102  0.57780995  0.85531606  1
  O2-  O477  1  0.88456888  0.79763941  0.21889422  1
  O2-  O478  1  0.91643979  0.82327542  0.51996135  1
  O2-  O479  1  0.90205553  0.84356473  0.84711111  1
  O2-  O480  1  0.18432709  0.07701787  0.29379830  1
  O2-  O481  1  0.17529312  0.10178105  0.65160809  1
  O2-  O482  1  0.17164390  0.10575998  0.96390211  1
  O2-  O483  1  0.16533440  0.32186545  0.29295770  1
  O2-  O484  1  0.18360532  0.36221003  0.65211265  1
  O2-  O485  1  0.15772286  0.33339910  0.97336781  1
  O2-  O486  1  0.18289901  0.59504416  0.32070429  1
  O2-  O487  1  0.16671851  0.58371627  0.64112546  1
  O2-  O488  1  0.19038545  0.59655488  0.97798631  1
  O2-  O489  1  0.22351986  0.85608974  0.33332727  1
  O2-  O490  1  0.18179052  0.84298410  0.64592593  1
  O2-  O491  1  0.15211561  0.83365556  0.96296133  1
  O2-  O492  1  0.43512099  0.14902213  0.29293662  1
  O2-  O493  1  0.43432876  0.09093160  0.65385759  1
  O2-  O494  1  0.41965457  0.08721981  0.96868077  1
  O2-  O495  1  0.41489564  0.32179607  0.30486780  1
  O2-  O496  1  0.41230368  0.34003051  0.62718777  1
  O2-  O497  1  0.42180069  0.31927997  0.95998320  1
  O2-  O498  1  0.41873886  0.56887429  0.32444866  1
  O2-  O499  1  0.38113740  0.52660175  0.64581687  1
  O2-  O500  1  0.38547839  0.53636366  0.99077694  1
  O2-  O501  1  0.43432922  0.79797566  0.27078600  1
  O2-  O502  1  0.41180378  0.83360838  0.63504306  1
  O2-  O503  1  0.41741458  0.85420565  0.97225723  1
  O2-  O504  1  0.66240467  0.09674695  0.31375704  1
  O2-  O505  1  0.66910960  0.06365249  0.63534575  1
  O2-  O506  1  0.67332933  0.08819796  0.97765542  1
  O2-  O507  1  0.67623213  0.32286278  0.36080974  1
  O2-  O508  1  0.65971856  0.32077570  0.63979646  1
  O2-  O509  1  0.66802743  0.32745548  0.97993864  1
  O2-  O510  1  0.66221081  0.57490440  0.32615807  1
  O2-  O511  1  0.62113906  0.54173321  0.64716593  1
  O2-  O512  1  0.62237291  0.56487317  0.97338024  1
  O2-  O513  1  0.66587036  0.84957694  0.30886205  1
  O2-  O514  1  0.62887548  0.80159420  0.63570664  1
  O2-  O515  1  0.61177937  0.78026380  0.97717819  1
  O2-  O516  1  0.92465485  0.11719818  0.30587982  1
  O2-  O517  1  0.94279757  0.08337976  0.63894770  1
  O2-  O518  1  0.92753391  0.10086348  0.97496857  1
  O2-  O519  1  0.87999638  0.35626490  0.37339384  1
  O2-  O520  1  0.90904174  0.27220616  0.65011995  1
  O2-  O521  1  0.93004423  0.34701179  0.97695331  1
  O2-  O522  1  0.89122707  0.55560824  0.31782803  1
  O2-  O523  1  0.92538706  0.60950441  0.64552571  1
  O2-  O524  1  0.94690066  0.59712554  0.98296096  1
  O2-  O525  1  0.90406866  0.89030498  0.36225878  1
  O2-  O526  1  0.96401147  0.81397211  0.64194983  1
  O2-  O527  1  0.90451434  0.84647694  0.97938016  1
  O2-  O528  1  0.08248471  0.17869192  0.01502385  1
  O2-  O529  1  0.10427064  0.15980887  0.32324254  1
  O2-  O530  1  0.10366769  0.19488158  0.68411443  1
  O2-  O531  1  0.07057212  0.46601354  0.03997071  1
  O2-  O532  1  0.05027818  0.41227971  0.32857165  1
  O2-  O533  1  0.07275880  0.41648213  0.68307746  1
  O2-  O534  1  0.10591388  0.67157328  0.03243692  1
  O2-  O535  1  0.11897169  0.69874423  0.35907152  1
  O2-  O536  1  0.08605779  0.67903308  0.68397973  1
  O2-  O537  1  0.08036582  0.94690220  0.00619088  1
  O2-  O538  1  0.06095268  0.91953541  0.35389762  1
  O2-  O539  1  0.10993845  0.93846183  0.69604620  1
  O2-  O540  1  0.33096522  0.16299429  0.01028981  1
  O2-  O541  1  0.36297054  0.15254973  0.32140389  1
  O2-  O542  1  0.33883106  0.17790326  0.67774187  1
  O2-  O543  1  0.32602646  0.37732729  0.00886040  1
  O2-  O544  1  0.33797262  0.40553388  0.35242753  1
  O2-  O545  1  0.34988057  0.44369386  0.67702100  1
  O2-  O546  1  0.33890083  0.69028572  0.03169270  1
  O2-  O547  1  0.34629043  0.65686007  0.35340236  1
  O2-  O548  1  0.34154484  0.67430777  0.69293449  1
  O2-  O549  1  0.32375044  0.92426740  0.01607435  1
  O2-  O550  1  0.31006157  0.87424926  0.34950672  1
  O2-  O551  1  0.35213807  0.93236811  0.68304850  1
  O2-  O552  1  0.58162828  0.16322512  0.01838403  1
  O2-  O553  1  0.56871316  0.16016465  0.35926682  1
  O2-  O554  1  0.59568541  0.16037451  0.67247965  1
  O2-  O555  1  0.57527614  0.40133761  0.01581916  1
  O2-  O556  1  0.57822878  0.40782024  0.35265129  1
  O2-  O557  1  0.58517929  0.39732123  0.68654387  1
  O2-  O558  1  0.54808423  0.63301366  0.03137717  1
  O2-  O559  1  0.56549855  0.63744649  0.36591543  1
  O2-  O560  1  0.54497677  0.63736873  0.68656513  1
  O2-  O561  1  0.69914831  0.96823500  0.04886681  1
  O2-  O562  1  0.56981100  0.92704261  0.33890705  1
  O2-  O563  1  0.57132264  0.90385443  0.67855359  1
  O2-  O564  1  0.84047365  0.18179264  0.01756971  1
  O2-  O565  1  0.82915393  0.18765215  0.35951888  1
  O2-  O566  1  0.81646026  0.09006774  0.68133689  1
  O2-  O567  1  0.84265866  0.41880183  0.00462126  1
  O2-  O568  1  0.83960578  0.37290776  0.32061796  1
  O2-  O569  1  0.80386944  0.32832510  0.69554780  1
  O2-  O570  1  0.86906599  0.68398190  0.02818085  1
  O2-  O571  1  0.82473305  0.64043140  0.36089818  1
  O2-  O572  1  0.79555065  0.65110006  0.65751285  1
  O2-  O573  1  0.77621346  0.87634354  0.04438635  1
  O2-  O574  1  0.78818120  0.98551536  0.36731787  1
  O2-  O575  1  0.77433863  0.93035323  0.69659542  1
