# generated using pymatgen
data_H2O
_symmetry_space_group_name_H-M   'P 1'
_cell_length_a   17.99541202
_cell_length_b   17.99358732
_cell_length_c   22.00294898
_cell_angle_alpha   89.99811416
_cell_angle_beta   90.02166306
_cell_angle_gamma   120.01315941
_symmetry_Int_Tables_number   1
_chemical_formula_structural   H2O
_chemical_formula_sum   'H384 O192'
_cell_volume   6169.26508528
_cell_formula_units_Z   192
loop_
 _symmetry_equiv_pos_site_id
 _symmetry_equiv_pos_as_xyz
  1  'x, y, z'
loop_
 _atom_type_symbol
 _atom_type_oxidation_number
  H+  1.0
  O2-  -2.0
loop_
 _atom_site_type_symbol
 _atom_site_label
 _atom_site_symmetry_multiplicity
 _atom_site_fract_x
 _atom_site_fract_y
 _atom_site_fract_z
 _atom_site_occupancy
  H+  H0  1  0.15039221  0.77059732  0.16114045  1
  H+  H1  1  0.14622866  0.36686055  0.32536950  1
  H+  H2  1  0.62259165  1.01125837  0.84832582  1
  H+  H3  1  0.10774494  0.46653678  0.00055914  1
  H+  H4  1  0.76880791  0.37467331  0.66829153  1
  H+  H5  1  0.72115609  0.37488100  0.31925748  1
  H+  H6  1  0.65036402  0.03407480  0.17951386  1
  H+  H7  1  0.13889913  0.77236648  0.65824531  1
  H+  H8  1  0.37889718  0.24238945  0.32163967  1
  H+  H9  1  0.38811107  0.24041325  1.00604821  1
  H+  H10  1  0.11966281  0.48018583  0.82786759  1
  H+  H11  1  0.61447689  0.63416094  0.16243510  1
  H+  H12  1  0.38763323  0.89407017  -0.00959765  1
  H+  H13  1  0.66667982  0.07915044  0.59995145  1
  H+  H14  1  0.55468359  0.61730805  0.66959589  1
  H+  H15  1  0.37053162  0.23026444  0.82650059  1
  H+  H16  1  0.67322680  0.61871682  0.65643513  1
  H+  H17  1  0.72041888  0.36141680  0.49994173  1
  H+  H18  1  0.61283577  0.13211337  0.66732159  1
  H+  H19  1  0.91476012  -0.05429494  0.27217862  1
  H+  H20  1  0.14384523  0.39814560  0.16227485  1
  H+  H21  1  0.11373079  0.98494553  0.16168112  1
  H+  H22  1  0.88765355  0.80464213  0.68124166  1
  H+  H23  1  0.11039826  0.38436368  0.67366503  1
  H+  H24  1  0.13710152  0.35455338  0.99206234  1
  H+  H25  1  0.09950498  0.89052085  0.16442063  1
  H+  H26  1  0.64009701  0.76847350  0.17533587  1
  H+  H27  1  0.35965698  0.39356284  0.49875504  1
  H+  H28  1  0.73629905  0.62246576  0.84344500  1
  H+  H29  1  0.88547129  0.76099224  0.35595470  1
  H+  H30  1  0.38440742  0.88599428  0.33673548  1
  H+  H31  1  0.97343774  0.86857885  0.51472615  1
  H+  H32  1  0.81311531  0.91847540  0.67833427  1
  H+  H33  1  0.51978008  0.91275416  1.01707296  1
  H+  H34  1  0.23064188  0.12097805  0.83464371  1
  H+  H35  1  -0.02214250  0.90056232  0.19540921  1
  H+  H36  1  0.92886097  0.09072271  0.93272826  1
  H+  H37  1  0.86008009  0.38649306  0.33919890  1
  H+  H38  1  0.58972487  0.87548576  0.49505050  1
  H+  H39  1  0.64035320  0.02313368  1.00752912  1
  H+  H40  1  0.16296472  0.84291075  0.56463919  1
  H+  H41  1  0.96701797  0.61102781  0.50582282  1
  H+  H42  1  0.49979945  0.11833789  0.16653121  1
  H+  H43  1  0.90353040  0.69574006  0.83708268  1
  H+  H44  1  0.90414497  0.61423103  0.28544600  1
  H+  H45  1  0.35718821  0.61745272  0.16025976  1
  H+  H46  1  0.66528213  0.07282677  0.93750952  1
  H+  H47  1  0.38950607  0.60550038  0.84743818  1
  H+  H48  1  0.27199362  0.15835700  0.49304794  1
  H+  H49  1  0.76555949  0.63454211  0.50476415  1
  H+  H50  1  0.08672562  0.63712405  0.50373844  1
  H+  H51  1  0.59293045  0.17232239  0.43131317  1
  H+  H52  1  0.12393510  0.11742493  0.17860311  1
  H+  H53  1  0.36196840  0.71743985  0.82531070  1
  H+  H54  1  0.52239086  0.62694487  0.00966268  1
  H+  H55  1  0.33395914  0.63354692  0.77949369  1
  H+  H56  1  0.61955301  0.88500617  0.19402819  1
  H+  H57  1  0.61999291  0.13964150  0.49120152  1
  H+  H58  1  0.27634114  0.12062460  0.33562690  1
  H+  H59  1  0.52781753  0.38235735  0.15855427  1
  H+  H60  1  0.36054149  0.72633341  0.49790417  1
  H+  H61  1  0.13802769  0.61631734  0.83941526  1
  H+  H62  1  0.36115494  -0.03110732  0.49074989  1
  H+  H63  1  0.85873895  0.62214852  0.14853882  1
  H+  H64  1  0.13301155  0.86711617  0.84116597  1
  H+  H65  1  0.77417599  0.88410102  1.00538869  1
  H+  H66  1  0.64317752  0.36725111  0.16489666  1
  H+  H67  1  0.47256452  0.87860744  0.66239948  1
  H+  H68  1  0.39693311  0.36514630  0.83600889  1
  H+  H69  1  0.39562484  0.85581706  0.16188112  1
  H+  H70  1  0.12702902  0.02205215  0.98794337  1
  H+  H71  1  -0.01174265  0.36558998  0.84106013  1
  H+  H72  1  0.42585985  0.82376949  0.25524268  1
  H+  H73  1  0.92207700  0.34388644  0.40226937  1
  H+  H74  1  0.63510132  0.27043903  0.65267173  1
  H+  H75  1  0.55982252  0.91299635  0.43881211  1
  H+  H76  1  0.39095098  0.51723027  0.83992545  1
  H+  H77  1  0.11920619  0.62353911  0.17043704  1
  H+  H78  1  0.47983013  0.10127139  0.49979470  1
  H+  H79  1  0.35696932  0.47836905  0.34570670  1
  H+  H80  1  0.12662077  0.48063210  0.35126096  1
  H+  H81  1  0.74951571  0.85814485  0.32282474  1
  H+  H82  1  0.61181424  0.81029326  0.56257171  1
  H+  H83  1  0.90593956  0.04168832  0.50506382  1
  H+  H84  1  0.86737343  0.46266693  0.82197769  1
  H+  H85  1  0.38045101  0.58655987  0.99505256  1
  H+  H86  1  0.64766922  0.76366642  0.32723121  1
  H+  H87  1  0.88629468  1.01926189  0.83005275  1
  H+  H88  1  0.36030413  0.13583138  0.82542967  1
  H+  H89  1  0.85741831  0.57127526  0.84072164  1
  H+  H90  1  0.86153082  0.68510700  0.65961717  1
  H+  H91  1  0.39237157  0.53063942  0.50243566  1
  H+  H92  1  0.86359506  0.45862545  0.66954823  1
  H+  H93  1  0.85574897  0.72680855  0.50686291  1
  H+  H94  1  0.97120203  0.35750730  0.99309337  1
  H+  H95  1  0.88434776  0.35282535  0.65780417  1
  H+  H96  1  0.12594308  0.56504185  0.25350462  1
  H+  H97  1  0.11100254  0.62895327  -0.00167268  1
  H+  H98  1  0.70954834  0.60177934  0.33353179  1
  H+  H99  1  0.87756376  0.22952869  0.82491085  1
  H+  H100  1  0.87398491  0.90358379  0.49036121  1
  H+  H101  1  0.52192179  0.14125633  1.00287120  1
  H+  H102  1  0.67283885  0.58526051  0.90047324  1
  H+  H103  1  0.87179512  0.14882687  0.15711945  1
  H+  H104  1  0.64688097  0.11977760  0.16125270  1
  H+  H105  1  0.14898334  0.37027625  0.84154598  1
  H+  H106  1  0.72883500  0.86194974  0.17221498  1
  H+  H107  1  0.52303919  0.13311058  0.66221573  1
  H+  H108  1  0.10330869  0.40713703  0.44343824  1
  H+  H109  1  0.21624838  0.13624924  0.19612411  1
  H+  H110  1  0.32215824  0.41976473  0.40453364  1
  H+  H111  1  0.39271961  0.36335978  0.99210831  1
  H+  H112  1  0.76953564  0.38411582  -0.00250113  1
  H+  H113  1  0.23367986  0.35729806  0.17574461  1
  H+  H114  1  0.99002289  0.13706061  0.51161306  1
  H+  H115  1  0.40884941  0.11527143  0.16549311  1
  H+  H116  1  -0.00076997  0.13416135  0.83723465  1
  H+  H117  1  0.47829422  0.84724451  0.17225875  1
  H+  H118  1  0.87551992  0.87294876  0.34994060  1
  H+  H119  1  0.47661081  0.60643122  0.17495536  1
  H+  H120  1  -0.02052148  0.84505640  0.34965275  1
  H+  H121  1  0.63150230  0.51938938  0.49728222  1
  H+  H122  1  0.83237468  0.60820331  0.36670355  1
  H+  H123  1  0.85865123  0.22039604  0.49303560  1
  H+  H124  1  0.57457419  0.74814912  0.66071048  1
  H+  H125  1  0.72635201  0.10795634  0.50570196  1
  H+  H126  1  0.22525927  0.87533409  0.50572012  1
  H+  H127  1  0.07664518  0.61112707  0.47490763  1
  H+  H128  1  0.01856065  0.88336539  0.00517578  1
  H+  H129  1  0.57939231  0.87514731  0.67087925  1
  H+  H130  1  0.39191681  0.98866419  0.16011743  1
  H+  H131  1  0.27849770  0.63119325  0.49400731  1
  H+  H132  1  0.61894604  0.38867112  0.66898582  1
  H+  H133  1  0.37695567  0.01603563  0.83278208  1
  H+  H134  1  0.47592933  0.62076704  0.32568052  1
  H+  H135  1  0.91341291  0.89917111  0.66911650  1
  H+  H136  1  0.61167991  0.63948177  0.33456420  1
  H+  H137  1  0.13702787  0.26582104  0.99455683  1
  H+  H138  1  0.98926006  0.61540656  0.30729935  1
  H+  H139  1  0.64214799  0.37024237  0.99033728  1
  H+  H140  1  0.13710560  0.86162568  0.66214801  1
  H+  H141  1  0.90668056  0.59386579  0.66573815  1
  H+  H142  1  0.52321718  0.62958025  0.83145945  1
  H+  H143  1  0.14818291  0.03201306  0.66650070  1
  H+  H144  1  0.53084474  0.39247626  0.00306842  1
  H+  H145  1  0.86544110  0.47514461  0.32156062  1
  H+  H146  1  0.53747333  0.14645979  0.33610831  1
  H+  H147  1  0.64062343  0.76721226  -0.00162429  1
  H+  H148  1  0.46386443  0.10824461  0.83002779  1
  H+  H149  1  0.74067594  0.87102628  0.66492354  1
  H+  H150  1  0.27536850  0.39902317  0.51111087  1
  H+  H151  1  0.37365626  0.86274301  0.51295326  1
  H+  H152  1  0.22700237  0.61415514  0.84231773  1
  H+  H153  1  0.46774446  0.34690741  0.32396675  1
  H+  H154  1  1.03546999  0.89532986  0.67780957  1
  H+  H155  1  0.11636739  0.24150652  0.35162300  1
  H+  H156  1  0.61428604  0.47447388  0.15988829  1
  H+  H157  1  0.35518936  0.70434954  0.15393964  1
  H+  H158  1  0.62284340  0.22990459  0.15253471  1
  H+  H159  1  0.86633493  0.13981704  0.67016283  1
  H+  H160  1  0.13546011  0.04701053  0.51505771  1
  H+  H161  1  0.63298794  0.02221253  0.50662067  1
  H+  H162  1  0.11404168  0.47394530  0.67411366  1
  H+  H163  1  0.12352571  0.16658032  0.50998836  1
  H+  H164  1  0.58316150  0.66358832  0.10397503  1
  H+  H165  1  0.38740364  0.62033265  0.32671039  1
  H+  H166  1  0.61032914  0.63813748  0.48219152  1
  H+  H167  1  0.78340606  0.15001048  0.15271469  1
  H+  H168  1  0.86423704  0.72947066  -0.00008961  1
  H+  H169  1  -0.00764282  0.74376739  0.45613100  1
  H+  H170  1  1.02195270  0.63724926  0.82402055  1
  H+  H171  1  0.63346019  0.27140166  0.50207521  1
  H+  H172  1  0.19166407  0.68386226  0.12406777  1
  H+  H173  1  0.04140077  0.16130612  0.66486052  1
  H+  H174  1  0.19697827  0.86417512  0.13534125  1
  H+  H175  1  0.11792855  0.91294736  0.50137681  1
  H+  H176  1  0.88742779  0.89184468  0.18508148  1
  H+  H177  1  0.15680977  0.50927675  0.51042013  1
  H+  H178  1  0.73165995  0.36591334  0.16662596  1
  H+  H179  1  0.37603726  0.87471346  0.66048682  1
  H+  H180  1  -0.01053522  0.60695248  0.14608129  1
  H+  H181  1  0.97524532  0.35692406  0.65888640  1
  H+  H182  1  0.62863713  0.76306588  0.83850355  1
  H+  H183  1  0.62603746  0.48138228  0.82556144  1
  H+  H184  1  0.14613828  0.00155355  0.33403498  1
  H+  H185  1  0.61809496  0.09692598  0.85662202  1
  H+  H186  1  0.86505559  0.64037896  0.99800340  1
  H+  H187  1  0.59884019  0.38585671  0.33385010  1
  H+  H188  1  0.47353135  0.86624875  0.83208314  1
  H+  H189  1  0.36294354  0.46254253  0.00765659  1
  H+  H190  1  0.60547738  0.38352880  0.48703214  1
  H+  H191  1  1.04002501  0.62973311  0.67091347  1
  H+  H192  1  0.28928740  0.79733002  0.37830087  1
  H+  H193  1  0.39078414  0.12019534  0.65572538  1
  H+  H194  1  0.61808842  0.24076651  0.33705082  1
  H+  H195  1  0.66550280  0.57865271  0.23094584  1
  H+  H196  1  0.62745398  0.39298148  0.82604057  1
  H+  H197  1  0.71745130  0.84982527  0.84462257  1
  H+  H198  1  0.88383622  0.80310674  0.83488883  1
  H+  H199  1  0.87928624  0.61159340  0.51400728  1
  H+  H200  1  0.23377483  0.36554178  0.32739080  1
  H+  H201  1  0.98781972  0.37205804  0.14601661  1
  H+  H202  1  0.63755612  0.27750375  0.83372969  1
  H+  H203  1  0.97581467  0.60834238  0.98809046  1
  H+  H204  1  0.51818209  0.38812852  0.49036684  1
  H+  H205  1  0.32142275  0.63363701  0.07234088  1
  H+  H206  1  0.88542099  0.38232923  0.12995398  1
  H+  H207  1  0.88533000  0.52034974  -0.01209445  1
  H+  H208  1  0.27280114  0.37427694  0.00848123  1
  H+  H209  1  0.03853701  0.37939020  0.49802318  1
  H+  H210  1  0.78997214  0.60076994  0.68856125  1
  H+  H211  1  0.11538599  0.72804081  0.32294739  1
  H+  H212  1  0.03818399  0.39145996  0.35444377  1
  H+  H213  1  0.10833236  0.72897043  0.82741496  1
  H+  H214  1  0.86007149  0.38134430  -0.00349293  1
  H+  H215  1  0.10995844  0.13364414  0.00828979  1
  H+  H216  1  0.14876030  0.61040662  0.66409989  1
  H+  H217  1  0.39750536  0.62141403  0.50014158  1
  H+  H218  1  0.85836421  0.47347517  0.48787968  1
  H+  H219  1  0.34324822  0.49862611  0.69957112  1
  H+  H220  1  0.39124710  0.26310787  0.16729892  1
  H+  H221  1  0.60766915  0.88170695  0.82454652  1
  H+  H222  1  0.13936204  0.61813785  0.34050573  1
  H+  H223  1  0.79840107  0.15098833  0.33499371  1
  H+  H224  1  0.66614166  0.83698730  0.65208905  1
  H+  H225  1  0.41166022  0.02542808  0.31844727  1
  H+  H226  1  0.35467565  0.88331854  0.82012582  1
  H+  H227  1  0.73384248  0.35740898  0.83645146  1
  H+  H228  1  0.48695327  0.36653575  0.83658120  1
  H+  H229  1  0.66424088  0.14109731  0.32116662  1
  H+  H230  1  0.29447771  0.11733542  0.14155694  1
  H+  H231  1  0.30804140  0.90040010  0.17486146  1
  H+  H232  1  0.11090018  0.22892701  0.16210866  1
  H+  H233  1  0.91604890  0.05386013  0.65933864  1
  H+  H234  1  0.16752514  0.27237704  0.63670875  1
  H+  H235  1  0.09087605  0.78357882  0.47605053  1
  H+  H236  1  0.61049769  0.76731137  0.49865738  1
  H+  H237  1  0.36879007  0.46665383  0.16277669  1
  H+  H238  1  0.37840540  0.73847234  0.34068786  1
  H+  H239  1  0.38556292  0.28578775  0.50359047  1
  H+  H240  1  0.14670861  0.29368209  0.53995461  1
  H+  H241  1  0.60208673  -0.02432668  0.67151380  1
  H+  H242  1  0.72526686  0.60470635  0.17068724  1
  H+  H243  1  0.10156363  0.50470678  0.19510065  1
  H+  H244  1  0.23819068  0.84282233  0.32678971  1
  H+  H245  1  0.37019948  0.12815452  0.33487646  1
  H+  H246  1  0.02744713  0.90444918  0.82765434  1
  H+  H247  1  0.85257877  0.98332774  0.15602616  1
  H+  H248  1  0.68280826  0.82560480  0.26119993  1
  H+  H249  1  0.88824368  0.36146994  0.50413557  1
  H+  H250  1  0.06428970  0.68790403  0.38354903  1
  H+  H251  1  0.61307849  0.63177469  1.00899777  1
  H+  H252  1  1.02434276  0.16343744  0.36644106  1
  H+  H253  1  0.89662986  0.27364308  0.35193716  1
  H+  H254  1  0.36993288  0.23885814  0.67144735  1
  H+  H255  1  0.72914227  0.61587402  0.99099751  1
  H+  H256  1  0.38300712  0.02618583  0.99038592  1
  H+  H257  1  0.64112342  0.52493832  0.99219585  1
  H+  H258  1  0.85966270  0.94126217  0.42927622  1
  H+  H259  1  0.56870249  0.91239251  0.23869978  1
  H+  H260  1  0.38783486  0.35157175  0.17159127  1
  H+  H261  1  0.28247904  0.38551298  0.82847467  1
  H+  H262  1  0.35997782  0.68780586  0.01208386  1
  H+  H263  1  0.61814962  0.51700036  0.32615009  1
  H+  H264  1  0.72449387  0.10675717  0.66068951  1
  H+  H265  1  0.13367096  0.77158654  0.99262956  1
  H+  H266  1  0.52635870  0.22354108  0.78060446  1
  H+  H267  1  0.09719720  0.20476649  0.45367616  1
  H+  H268  1  0.48307180  0.37485732  0.66195602  1
  H+  H269  1  0.26450963  0.88272878  0.82365009  1
  H+  H270  1  0.85830662  0.22245587  0.67130971  1
  H+  H271  1  0.89947612  0.27976946  0.13570032  1
  H+  H272  1  0.91062614  0.08507087  0.23156577  1
  H+  H273  1  0.88495275  0.86580931  -0.00411570  1
  H+  H274  1  0.88986881  0.11300379  -0.00977130  1
  H+  H275  1  0.26443100  0.88952341  0.01029736  1
  H+  H276  1  0.46720065  0.86831876  0.51362870  1
  H+  H277  1  0.86273351  0.22587663  0.99973751  1
  H+  H278  1  0.12589785  0.86873275  0.32854668  1
  H+  H279  1  0.12364379  0.14794784  0.67090986  1
  H+  H280  1  0.61024003  0.23065597  1.00323702  1
  H+  H281  1  0.61688136  0.51594181  0.65667558  1
  H+  H282  1  0.21763893  0.59629299  -0.00731897  1
  H+  H283  1  0.86320601  0.97590649  0.00349975  1
  H+  H284  1  0.23125388  0.62426187  0.33376556  1
  H+  H285  1  0.29180551  0.40641190  0.66631922  1
  H+  H286  1  0.88732518  0.89320143  0.83920765  1
  H+  H287  1  -0.02413111  0.11947972  0.17549869  1
  H+  H288  1  0.61466689  0.63425261  0.82736485  1
  H+  H289  1  0.91809571  0.33110557  0.93086904  1
  H+  H290  1  0.64621150  0.57404441  0.55793772  1
  H+  H291  1  0.17451002  0.33351833  0.89997795  1
  H+  H292  1  0.37939367  0.68776510  0.67430454  1
  H+  H293  1  0.32457315  0.91611956  0.72923926  1
  H+  H294  1  0.14288010  0.12290411  0.83084424  1
  H+  H295  1  0.12820942  0.24030702  0.82206972  1
  H+  H296  1  0.83354868  0.40172597  0.76284285  1
  H+  H297  1  0.02291764  0.13647002  0.01008306  1
  H+  H298  1  0.07964540  0.16689617  0.10289755  1
  H+  H299  1  0.91763530  0.32942367  0.56225416  1
  H+  H300  1  0.93273522  0.10633212  0.59688235  1
  H+  H301  1  0.58853894  0.17159428  0.09117116  1
  H+  H302  1  0.58678436  0.67446290  0.39506554  1
  H+  H303  1  0.51831141  0.63418066  0.48200133  1
  H+  H304  1  0.09415671  0.92265549  0.73687608  1
  H+  H305  1  0.18132400  0.57323218  0.56605191  1
  H+  H306  1  0.57038552  0.17732724  0.75009689  1
  H+  H307  1  0.23616877  0.12309093  0.66517876  1
  H+  H308  1  0.91406184  0.83967106  0.57315432  1
  H+  H309  1  0.33703111  0.40664430  0.10293524  1
  H+  H310  1  0.87998926  0.47602119  0.13993930  1
  H+  H311  1  0.42016764  0.34476314  0.56404919  1
  H+  H312  1  0.08811596  0.41187992  0.06094786  1
  H+  H313  1  0.33922709  0.41853061  0.76774962  1
  H+  H314  1  0.18290314  0.49106564  0.13327344  1
  H+  H315  1  0.83010179  0.41958796  0.42631273  1
  H+  H316  1  0.91178837  0.57204206  0.89800845  1
  H+  H317  1  0.19170735  0.83437485  0.25739996  1
  H+  H318  1  0.85818997  0.68230924  0.77319631  1
  H+  H319  1  0.16211238  0.57654814  0.93108995  1
  H+  H320  1  0.93934700  0.57465291  0.20875362  1
  H+  H321  1  0.38364757  0.02783733  0.65773788  1
  H+  H322  1  0.15647802  0.08432685  0.93056905  1
  H+  H323  1  0.69493103  0.11722587  0.26043646  1
  H+  H324  1  0.90836344  0.13536905  0.83774823  1
  H+  H325  1  0.08126681  0.84463495  0.39043641  1
  H+  H326  1  0.07748989  0.91688875  0.06450191  1
  H+  H327  1  0.41536278  0.57751377  0.23355191  1
  H+  H328  1  0.83577531  0.41422004  0.07713202  1
  H+  H329  1  0.82853482  0.92179843  0.09731997  1
  H+  H330  1  0.36054136  0.17283063  0.08832979  1
  H+  H331  1  0.39359299  0.81128717  0.98265499  1
  H+  H332  1  0.15772606  0.06325735  0.27907859  1
  H+  H333  1  0.67000518  0.33693550  0.93077605  1
  H+  H334  1  0.12983172  0.85945368  0.99556709  1
  H+  H335  1  0.09038409  0.41779245  0.76974515  1
  H+  H336  1  0.43441104  0.08463131  0.26036776  1
  H+  H337  1  0.94656583  0.32594118  0.24301129  1
  H+  H338  1  0.66403667  0.82399553  0.93888010  1
  H+  H339  1  0.90521463  0.32683886  0.24161685  1
  H+  H340  1  0.42738510  0.34030718  0.93106530  1
  H+  H341  1  0.66195544  0.34175238  0.26077072  1
  H+  H342  1  0.34276349  0.17784648  0.73020978  1
  H+  H343  1  0.89590719  0.35941721  0.83709040  1
  H+  H344  1  0.16242182  0.83481298  0.89954151  1
  H+  H345  1  0.34170073  0.67946341  0.40112690  1
  H+  H346  1  0.82646562  0.65732255  0.09556701  1
  H+  H347  1  0.56959169  0.93802073  0.08038417  1
  H+  H348  1  0.26723730  0.88682202  0.66795488  1
  H+  H349  1  0.38259482  0.14801414  0.00208594  1
  H+  H350  1  0.39968789  0.38383992  0.66289630  1
  H+  H351  1  0.56466369  0.40847433  0.39502852  1
  H+  H352  1  0.17335654  0.33406401  0.23548172  1
  H+  H353  1  0.74196337  0.11306489  -0.00421845  1
  H+  H354  1  0.41187654  0.31135219  0.25813465  1
  H+  H355  1  0.09341923  0.66886049  0.73199699  1
  H+  H356  1  0.66509333  0.33266560  0.59466251  1
  H+  H357  1  0.56025773  0.65768989  0.73483212  1
  H+  H358  1  0.86430251  0.13533138  0.49621436  1
  H+  H359  1  0.41817685  0.56716604  0.93475328  1
  H+  H360  1  0.09766172  0.18559768  0.75980443  1
  H+  H361  1  0.83845281  0.16796936  0.06052219  1
  H+  H362  1  0.33128818  0.92334613  0.06808242  1
  H+  H363  1  0.41799211  0.85140358  0.89091213  1
  H+  H364  1  0.59518836  0.42051084  0.73120914  1
  H+  H365  1  0.08383128  0.94328334  0.44545217  1
  H+  H366  1  0.57881425  0.91749798  0.76685225  1
  H+  H367  1  0.84390924  0.16163151  0.39833724  1
  H+  H368  1  0.84560781  0.16784719  0.76655006  1
  H+  H369  1  0.87373109  0.96111144  0.73779269  1
  H+  H370  1  0.41930741  0.07492650  0.55770056  1
  H+  H371  1  0.23055808  0.59626278  0.66000061  1
  H+  H372  1  0.08871006  0.65982308  0.05902288  1
  H+  H373  1  0.33078536  0.17840108  0.43422369  1
  H+  H374  1  0.41412919  0.07919512  0.92775718  1
  H+  H375  1  0.79187142  0.96182258  0.80328585  1
  H+  H376  1  0.81266327  0.65600825  0.41748053  1
  H+  H377  1  0.31897477  0.89392100  0.43695896  1
  H+  H378  1  0.91564097  0.84536715  0.93352326  1
  H+  H379  1  0.17383248  0.10324966  0.57438716  1
  H+  H380  1  0.41074133  0.84472192  0.59501313  1
  H+  H381  1  0.12018655  0.98842050  0.82634365  1
  H+  H382  1  0.58911237  0.41905020  0.06334138  1
  H+  H383  1  0.92614557  0.56924965  0.60091755  1
  O2-  O384  1  0.07710329  0.16744426  0.14885798  1
  O2-  O385  1  0.09625065  0.20176154  0.49945667  1
  O2-  O386  1  0.09625966  0.18038485  0.80519173  1
  O2-  O387  1  0.12784353  0.44024707  0.14298665  1
  O2-  O388  1  0.09980023  0.40363354  0.48841802  1
  O2-  O389  1  0.09215283  0.41863948  0.81514026  1
  O2-  O390  1  0.13509923  0.67166793  0.13814589  1
  O2-  O391  1  0.04685041  0.74949353  0.44337801  1
  O2-  O392  1  0.08245494  0.66914968  0.81073617  1
  O2-  O393  1  0.07672936  0.92530113  0.14682760  1
  O2-  O394  1  0.08063251  0.93786487  0.48974512  1
  O2-  O395  1  0.08723658  0.92576535  0.81380179  1
  O2-  O396  1  0.35413007  0.16236491  0.13678238  1
  O2-  O397  1  0.33189866  0.19035093  0.47783207  1
  O2-  O398  1  0.33644859  0.17121584  0.80874193  1
  O2-  O399  1  0.33846805  0.40548426  0.14856678  1
  O2-  O400  1  0.32741397  0.42272421  0.48548881  1
  O2-  O401  1  0.34300312  0.41479890  0.81320582  1
  O2-  O402  1  0.32326395  0.64261730  0.14222678  1
  O2-  O403  1  0.33850110  0.67108530  0.47648466  1
  O2-  O404  1  0.33055870  0.65409424  0.82302958  1
  O2-  O405  1  0.35635463  0.92586505  0.14648455  1
  O2-  O406  1  0.32232369  0.90486130  0.48248466  1
  O2-  O407  1  0.32357741  0.91345248  0.80577347  1
  O2-  O408  1  0.59383002  0.16956261  0.13763199  1
  O2-  O409  1  0.58964078  0.17012636  0.47674424  1
  O2-  O410  1  0.55513941  0.19158490  0.79151278  1
  O2-  O411  1  0.58764635  0.41448756  0.14286586  1
  O2-  O412  1  0.57739622  0.41554815  0.47123823  1
  O2-  O413  1  0.59622780  0.42149150  0.80930521  1
  O2-  O414  1  0.58442660  0.66582045  0.14966419  1
  O2-  O415  1  0.58047842  0.66714809  0.46511003  1
  O2-  O416  1  0.58271022  0.66326211  0.81396559  1
  O2-  O417  1  0.58668724  0.91656060  0.19606881  1
  O2-  O418  1  0.56383346  0.91435032  0.48300843  1
  O2-  O419  1  0.57985303  0.91546588  0.81227332  1
  O2-  O420  1  0.84409159  0.17859329  0.13658747  1
  O2-  O421  1  0.82842377  0.15933608  0.47974111  1
  O2-  O422  1  0.85260966  0.16890207  0.81152037  1
  O2-  O423  1  0.84513936  0.41384512  0.12530977  1
  O2-  O424  1  0.83008550  0.41436677  0.47129365  1
  O2-  O425  1  0.83548519  0.40189153  0.80856563  1
  O2-  O426  1  0.82339023  0.64841373  0.14022013  1
  O2-  O427  1  0.82836260  0.66562706  0.49244025  1
  O2-  O428  1  0.85335074  0.69226556  0.81694796  1
  O2-  O429  1  0.82373661  0.92240523  0.14290376  1
  O2-  O430  1  0.85981004  0.94580469  0.47387849  1
  O2-  O431  1  0.84386364  0.95884415  0.81058783  1
  O2-  O432  1  0.15691805  0.08957293  0.19514000  1
  O2-  O433  1  0.16952975  0.10718684  0.52930871  1
  O2-  O434  1  0.16919999  0.08958228  0.84760221  1
  O2-  O435  1  0.17260979  0.33345282  0.18901707  1
  O2-  O436  1  0.18051564  0.34712775  0.56573195  1
  O2-  O437  1  0.17865951  0.33846392  0.85461128  1
  O2-  O438  1  0.09274101  0.54929275  0.21440458  1
  O2-  O439  1  0.18648369  0.57156234  0.52146039  1
  O2-  O440  1  0.16520041  0.58412102  0.85595054  1
  O2-  O441  1  0.16884917  0.83158143  0.17198413  1
  O2-  O442  1  0.16426099  0.85466251  0.52010709  1
  O2-  O443  1  0.16067918  0.83324227  0.85415650  1
  O2-  O444  1  0.43861951  0.08554298  0.18293374  1
  O2-  O445  1  0.41981828  0.06444465  0.51371248  1
  O2-  O446  1  0.40673825  0.07590069  0.84972133  1
  O2-  O447  1  0.41864980  0.32122065  0.18682000  1
  O2-  O448  1  0.42065258  0.34737940  0.51895947  1
  O2-  O449  1  0.42705484  0.33484219  0.85219481  1
  O2-  O450  1  0.41520555  0.57262248  0.18802343  1
  O2-  O451  1  0.43040415  0.59274579  0.51186105  1
  O2-  O452  1  0.42189218  0.57592257  0.85905485  1
  O2-  O453  1  0.41448060  0.81480683  0.17485699  1
  O2-  O454  1  0.40788456  0.83748511  0.53232375  1
  O2-  O455  1  0.41271925  0.83843149  0.84686221  1
  O2-  O456  1  0.68402007  0.09748514  0.17789518  1
  O2-  O457  1  0.66623118  0.08215327  0.52219947  1
  O2-  O458  1  0.64721025  0.06706204  0.87100745  1
  O2-  O459  1  0.67229298  0.33607608  0.18170623  1
  O2-  O460  1  0.66118793  0.33285506  0.51668989  1
  O2-  O461  1  0.67408578  0.33488719  0.85246874  1
  O2-  O462  1  0.66408130  0.57668913  0.18574976  1
  O2-  O463  1  0.66110283  0.57961092  0.51393307  1
  O2-  O464  1  0.67545485  0.58617663  0.85440094  1
  O2-  O465  1  0.67161951  0.82777181  0.19374674  1
  O2-  O466  1  0.62601784  0.82278899  0.51873362  1
  O2-  O467  1  0.65636059  0.82461728  0.85346119  1
  O2-  O468  1  0.91337027  0.09101224  0.18733605  1
  O2-  O469  1  0.92811708  0.10039507  0.52359778  1
  O2-  O470  1  0.93999192  0.10537505  0.85554493  1
  O2-  O471  1  0.93146693  0.34406473  0.12649058  1
  O2-  O472  1  0.91786515  0.33008066  0.51669186  1
  O2-  O473  1  0.92751076  0.33299060  0.85613377  1
  O2-  O474  1  0.93209273  0.57220949  0.16325660  1
  O2-  O475  1  0.90985759  0.57914894  0.52422733  1
  O2-  O476  1  0.90921692  0.56969259  0.85170143  1
  O2-  O477  1  0.92473917  0.88805783  0.21678092  1
  O2-  O478  1  0.91283506  0.83227112  0.52848650  1
  O2-  O479  1  0.91652492  0.86160037  0.85198852  1
  O2-  O480  1  0.17577786  0.06195088  0.32112239  1
  O2-  O481  1  0.17442097  0.09240283  0.65217396  1
  O2-  O482  1  0.15078489  0.08243010  0.97536400  1
  O2-  O483  1  0.17350761  0.33441518  0.30886732  1
  O2-  O484  1  0.21777919  0.31873815  0.61353462  1
  O2-  O485  1  0.16968771  0.32629198  0.97841688  1
  O2-  O486  1  0.16859626  0.58768577  0.32481573  1
  O2-  O487  1  0.16845863  0.57098708  0.64917120  1
  O2-  O488  1  0.15805498  0.57227253  0.97693760  1
  O2-  O489  1  0.18045605  0.82528597  0.30105856  1
  O2-  O490  1  0.16648445  0.83273286  0.64272676  1
  O2-  O491  1  0.16435961  0.83303958  0.98027259  1
  O2-  O492  1  0.43100421  0.08450299  0.30600413  1
  O2-  O493  1  0.41870860  0.08716237  0.64173412  1
  O2-  O494  1  0.41886810  0.08444579  0.97295706  1
  O2-  O495  1  0.40884220  0.30701747  0.30470731  1
  O2-  O496  1  0.42265827  0.34771112  0.64746417  1
  O2-  O497  1  0.43048574  0.34146749  0.97644522  1
  O2-  O498  1  0.41573155  0.58854246  0.31108582  1
  O2-  O499  1  0.33852913  0.58435922  0.72276484  1
  O2-  O500  1  0.41762299  0.56400799  0.98057143  1
  O2-  O501  1  0.45162853  0.83723830  0.29685790  1
  O2-  O502  1  0.41075180  0.84688868  0.64447123  1
  O2-  O503  1  0.42543678  0.87214118  0.97301007  1
  O2-  O504  1  0.69897777  0.11684602  0.30514372  1
  O2-  O505  1  0.66357235  0.07724503  0.64563043  1
  O2-  O506  1  0.67743430  0.07959138  0.98402409  1
  O2-  O507  1  0.65994851  0.34579433  0.30594311  1
  O2-  O508  1  0.66655001  0.33234351  0.64040479  1
  O2-  O509  1  0.67269645  0.33938046  0.97614864  1
  O2-  O510  1  0.65362568  0.57777016  0.31206413  1
  O2-  O511  1  0.62609202  0.57005717  0.63594624  1
  O2-  O512  1  0.66838048  0.58498283  0.97573481  1
  O2-  O513  1  0.68652997  0.82649610  0.30846004  1
  O2-  O514  1  0.60097416  0.80781426  0.64165857  1
  O2-  O515  1  0.67457432  0.82696361  0.98297209  1
  O2-  O516  1  0.89890818  -0.02252670  0.30314907  1
  O2-  O517  1  0.93833972  0.11285811  0.64278380  1
  O2-  O518  1  0.92075004  0.08248594  0.97774724  1
  O2-  O519  1  0.92260170  0.33955353  0.35810547  1
  O2-  O520  1  0.91630686  0.32519643  0.64119490  1
  O2-  O521  1  0.91138944  0.32962067  0.97662201  1
  O2-  O522  1  0.93220474  0.57982461  0.28466302  1
  O2-  O523  1  0.93290454  0.56371323  0.64556871  1
  O2-  O524  1  0.91598090  0.58019375  0.97154435  1
  O2-  O525  1  0.91953501  0.82324695  0.36341075  1
  O2-  O526  1  0.92746987  0.85276631  0.65604735  1
  O2-  O527  1  0.91480318  0.83589591  0.97799902  1
  O2-  O528  1  0.08274201  0.16651717  0.02655454  1
  O2-  O529  1  0.08434116  0.19054964  0.37868717  1
  O2-  O530  1  0.10185753  0.18805637  0.68092913  1
  O2-  O531  1  0.07899793  0.40624849  0.01651053  1
  O2-  O532  1  0.10095550  0.41894918  0.36230966  1
  O2-  O533  1  0.08049733  0.41259995  0.69009049  1
  O2-  O534  1  0.08105325  0.65959272  0.01458083  1
  O2-  O535  1  0.07618995  0.67073125  0.34361899  1
  O2-  O536  1  0.09869752  0.66920198  0.68672921  1
  O2-  O537  1  0.07951293  0.91148589  0.01964612  1
  O2-  O538  1  0.09072473  0.88414853  0.35623335  1
  O2-  O539  1  0.09620119  0.92186679  0.69121538  1
  O2-  O540  1  0.36130544  0.18193815  0.02439708  1
  O2-  O541  1  0.33924124  0.15893072  0.34699460  1
  O2-  O542  1  0.34261211  0.17761255  0.68471106  1
  O2-  O543  1  0.33281510  0.40285760  0.02485494  1
  O2-  O544  1  0.32502946  0.41810069  0.35947990  1
  O2-  O545  1  0.34110906  0.44140284  0.69330136  1
  O2-  O546  1  0.31932124  0.62981792  0.02534701  1
  O2-  O547  1  0.33942960  0.67916300  0.35513036  1
  O2-  O548  1  0.33544309  0.62794965  0.66723746  1
  O2-  O549  1  0.32638012  0.92385689  0.02303357  1
  O2-  O550  1  0.30556729  0.85602091  0.36713103  1
  O2-  O551  1  0.32824136  0.91856940  0.68354121  1
  O2-  O552  1  0.58063074  0.17206240  0.02060482  1
  O2-  O553  1  0.59629019  0.18162265  0.35291475  1
  O2-  O554  1  0.58326354  0.16501439  0.67882005  1
  O2-  O555  1  0.59202069  0.42169600  0.01798731  1
  O2-  O556  1  0.56131037  0.40847463  0.34914998  1
  O2-  O557  1  0.59183103  0.42128286  0.68575876  1
  O2-  O558  1  0.58183067  0.65972964  0.02636994  1
  O2-  O559  1  0.59008545  0.67848632  0.34827626  1
  O2-  O560  1  0.54263754  0.65716181  0.69200140  1
  O2-  O561  1  0.57730240  0.93745308  0.03665395  1
  O2-  O562  1  0.44497822  0.91383071  0.31225470  1
  O2-  O563  1  0.56215337  0.91689509  0.68870170  1
  O2-  O564  1  0.83477020  0.16484697  0.01485059  1
  O2-  O565  1  0.85636736  0.17508939  0.35439526  1
  O2-  O566  1  0.82919031  0.16209137  0.68676520  1
  O2-  O567  1  0.83186648  0.41412742  0.01251585  1
  O2-  O568  1  0.82854878  0.41924270  0.34170436  1
  O2-  O569  1  0.82803024  0.39952338  0.68608536  1
  O2-  O570  1  0.83326592  0.66818601  0.01372559  1
  O2-  O571  1  0.81072252  0.64775650  0.37191006  1
  O2-  O572  1  0.84897581  0.64722605  0.69469268  1
  O2-  O573  1  0.83526603  0.91700260  0.02137726  1
  O2-  O574  1  0.84421205  0.90835130  0.34601170  1
  O2-  O575  1  0.87770950  0.95656160  0.69247086  1
