# generated using pymatgen
data_H2O
_symmetry_space_group_name_H-M   'P 1'
_cell_length_a   17.99303091
_cell_length_b   17.99095094
_cell_length_c   22.00247914
_cell_angle_alpha   90.00971325
_cell_angle_beta   90.00657211
_cell_angle_gamma   120.01157225
_symmetry_Int_Tables_number   1
_chemical_formula_structural   H2O
_chemical_formula_sum   'H384 O192'
_cell_volume   6167.51227389
_cell_formula_units_Z   192
loop_
 _symmetry_equiv_pos_site_id
 _symmetry_equiv_pos_as_xyz
  1  'x, y, z'
loop_
 _atom_type_symbol
 _atom_type_oxidation_number
  H+  1.0
  O2-  -2.0
loop_
 _atom_site_type_symbol
 _atom_site_label
 _atom_site_symmetry_multiplicity
 _atom_site_fract_x
 _atom_site_fract_y
 _atom_site_fract_z
 _atom_site_occupancy
  H+  H0  1  0.38719550  0.40643365  0.35227174  1
  H+  H1  1  0.22336488  0.11787845  0.83797105  1
  H+  H2  1  0.13114966  0.11379009  0.18150455  1
  H+  H3  1  0.22871111  0.61959529  0.32801541  1
  H+  H4  1  0.70012128  0.31372947  1.00574739  1
  H+  H5  1  0.27911561  0.12413096  0.48274342  1
  H+  H6  1  0.62322497  0.23389054  0.51265329  1
  H+  H7  1  0.38281779  0.77331417  -0.00866328  1
  H+  H8  1  0.89501338  0.00977885  0.51655545  1
  H+  H9  1  0.22870405  0.60390431  0.83933941  1
  H+  H10  1  0.53065456  0.37889316  1.00953743  1
  H+  H11  1  0.85877798  0.23679442  0.82487671  1
  H+  H12  1  0.61686074  0.13031038  0.67382616  1
  H+  H13  1  0.88740028  0.64463911  0.99932727  1
  H+  H14  1  0.87114887  0.71407688  0.82595089  1
  H+  H15  1  0.37898232  0.48485015  0.82597457  1
  H+  H16  1  0.59689545  0.21119834  0.82583805  1
  H+  H17  1  0.13537787  0.45675100  0.17376676  1
  H+  H18  1  0.46971730  0.36339243  0.32451953  1
  H+  H19  1  0.63197874  0.60716971  0.51530325  1
  H+  H20  1  1.02300796  0.13820159  0.33647425  1
  H+  H21  1  0.53008814  0.38015118  0.82776343  1
  H+  H22  1  0.47577892  0.61484981  0.83937248  1
  H+  H23  1  0.22553327  0.93875573  0.22135996  1
  H+  H24  1  0.36106495  0.73791134  0.33138376  1
  H+  H25  1  0.69504053  0.33511553  0.59051458  1
  H+  H26  1  0.12570374  0.36595065  0.31640789  1
  H+  H27  1  0.14306534  0.70838925  0.78761143  1
  H+  H28  1  0.91411264  0.28948331  0.20024010  1
  H+  H29  1  0.10957706  0.71868948  0.34618777  1
  H+  H30  1  0.11999783  0.61940409  0.81639411  1
  H+  H31  1  0.35781274  0.96747855  0.83004208  1
  H+  H32  1  0.08508150  0.17514132  0.39408516  1
  H+  H33  1  0.61295339  0.20703893  0.14648772  1
  H+  H34  1  0.39011478  0.27145290  0.99872567  1
  H+  H35  1  0.11865861  0.13297156  0.83198488  1
  H+  H36  1  0.84976238  -0.02935035  1.01062919  1
  H+  H37  1  0.87207137  0.22033571  0.49752306  1
  H+  H38  1  0.58241589  0.36320631  0.49775066  1
  H+  H39  1  0.41196678  0.44234078  0.77960826  1
  H+  H40  1  0.11331422  0.22782705  0.48994945  1
  H+  H41  1  0.25624472  0.10891839  0.16261708  1
  H+  H42  1  0.61712880  0.97055566  0.82563294  1
  H+  H43  1  0.72237349  0.61074571  0.33813710  1
  H+  H44  1  0.63971522  0.86057466  0.66521270  1
  H+  H45  1  0.16416196  0.83275693  0.27929491  1
  H+  H46  1  0.27056599  0.38162921  0.50030791  1
  H+  H47  1  0.64190114  0.61106537  0.18479809  1
  H+  H48  1  0.12615836  0.27099998  0.65413551  1
  H+  H49  1  0.46536243  0.60351536  0.17228927  1
  H+  H50  1  0.86319513  0.79770265  0.50721358  1
  H+  H51  1  0.68669304  0.39828537  0.54483819  1
  H+  H52  1  0.39277138  0.51944650  0.52200468  1
  H+  H53  1  0.14849611  0.77761107  0.99636049  1
  H+  H54  1  0.12239597  0.27548109  0.30887068  1
  H+  H55  1  0.64736919  0.11783375  0.50477316  1
  H+  H56  1  0.22061638  0.11439691  0.98637680  1
  H+  H57  1  0.58173974  0.17648629  0.41871453  1
  H+  H58  1  0.78935957  0.90385770  0.35624872  1
  H+  H59  1  0.77735865  0.34937401  0.66031916  1
  H+  H60  1  0.13874052  0.26872903  -0.01897115  1
  H+  H61  1  0.66042663  0.40084583  0.84494578  1
  H+  H62  1  0.72333605  0.11403343  0.83353462  1
  H+  H63  1  0.38121038  0.51765962  0.66686718  1
  H+  H64  1  0.61224153  0.78397990  0.99822839  1
  H+  H65  1  0.76176876  0.63767604  0.67700204  1
  H+  H66  1  0.41778425  0.82717895  0.89482230  1
  H+  H67  1  0.66407705  0.07468014  0.59721479  1
  H+  H68  1  0.85731251  0.85509554  0.01348853  1
  H+  H69  1  0.61650377  0.47338242  0.67753082  1
  H+  H70  1  0.37869835  0.23424947  0.67543138  1
  H+  H71  1  0.64634735  0.10314865  0.15690599  1
  H+  H72  1  0.09375020  0.74620436  0.65619104  1
  H+  H73  1  0.37035310  0.27199509  0.17536877  1
  H+  H74  1  0.22921503  0.35822465  0.83152935  1
  H+  H75  1  0.89621497  0.04912194  0.81276565  1
  H+  H76  1  0.62469092  0.75768587  0.31038247  1
  H+  H77  1  0.28646304  0.88662311  0.50156381  1
  H+  H78  1  0.89472949  0.54378959  0.51886652  1
  H+  H79  1  0.60745599  0.98358300  -0.00112059  1
  H+  H80  1  0.57673955  0.63093823  0.10684831  1
  H+  H81  1  0.27712692  0.88501191  0.15755896  1
  H+  H82  1  0.60951315  0.66111261  -0.00774289  1
  H+  H83  1  0.76893290  0.48191111  0.39445092  1
  H+  H84  1  0.12667971  0.10186849  0.64716267  1
  H+  H85  1  0.36602014  0.63641853  0.15739334  1
  H+  H86  1  0.75806039  0.88883639  0.01376955  1
  H+  H87  1  0.65721156  0.57784466  0.60925272  1
  H+  H88  1  0.35539126  0.13022292  0.82792743  1
  H+  H89  1  0.38041760  0.77288740  0.50446342  1
  H+  H90  1  0.36290958  0.88630125  1.00244390  1
  H+  H91  1  0.16566253  0.55852360  0.24039521  1
  H+  H92  1  0.86886621  0.85599159  0.85444897  1
  H+  H93  1  0.89149961  0.76561502  0.17844305  1
  H+  H94  1  0.77313922  -0.11224963  0.13147666  1
  H+  H95  1  0.62584859  0.60768142  0.66836398  1
  H+  H96  1  0.60175711  0.70772228  0.15014907  1
  H+  H97  1  0.26332177  0.63605390  0.00905660  1
  H+  H98  1  0.21878029  0.59034686  0.17843016  1
  H+  H99  1  0.59172645  0.60361413  0.35086418  1
  H+  H100  1  0.46278608  0.10205812  0.83684618  1
  H+  H101  1  0.60864217  0.63235625  0.82900287  1
  H+  H102  1  0.85295774  0.91594068  0.81179326  1
  H+  H103  1  0.51899839  0.87837215  0.15179386  1
  H+  H104  1  0.14007653  0.76317916  0.50789629  1
  H+  H105  1  -0.03359713  0.07923473  0.17033871  1
  H+  H106  1  0.39659520  0.09402416  0.18141433  1
  H+  H107  1  0.91844592  0.53958241  -0.01916861  1
  H+  H108  1  0.35009160  0.12929184  -0.00013354  1
  H+  H109  1  0.85930893  0.59470960  0.67934650  1
  H+  H110  1  0.63340779  1.01591379  0.65724050  1
  H+  H111  1  1.04411639  0.64524064  0.15045231  1
  H+  H112  1  0.80547962  0.37280074  0.14317004  1
  H+  H113  1  0.58337729  0.41384796  0.07084845  1
  H+  H114  1  0.57779672  0.66522772  0.77110949  1
  H+  H115  1  0.63561959  1.02812868  0.34908225  1
  H+  H116  1  0.62749846  0.72397500  0.50139631  1
  H+  H117  1  0.39388897  0.10935671  0.51467264  1
  H+  H118  1  0.87286520  0.52794197  0.32446038  1
  H+  H119  1  1.02730756  0.39510804  0.34918662  1
  H+  H120  1  0.77594918  0.62445549  0.16449428  1
  H+  H121  1  0.23505923  0.60732436  0.65818686  1
  H+  H122  1  0.86120170  0.72039956  0.00833939  1
  H+  H123  1  0.85300211  0.72603138  0.67265851  1
  H+  H124  1  0.76712527  0.14141595  0.66997944  1
  H+  H125  1  0.86491514  0.15188331  0.82234843  1
  H+  H126  1  0.61883712  0.88239223  0.82806742  1
  H+  H127  1  0.31133191  0.39878165  0.72614636  1
  H+  H128  1  1.02032832  0.13663871  0.82758501  1
  H+  H129  1  0.36066134  0.64827025  0.33686164  1
  H+  H130  1  0.76977301  0.64698638  0.51043228  1
  H+  H131  1  0.37599115  0.84851474  0.16267850  1
  H+  H132  1  0.66450330  0.49685665  0.00053079  1
  H+  H133  1  0.12689253  0.60865695  0.51356356  1
  H+  H134  1  0.12425783  0.35976464  0.65268698  1
  H+  H135  1  0.86100558  0.38410750  0.82284169  1
  H+  H136  1  0.23179468  0.35604368  -0.01363717  1
  H+  H137  1  0.52349760  0.11824796  0.15467804  1
  H+  H138  1  0.39681009  0.36365488  0.99778522  1
  H+  H139  1  0.37782247  0.97534797  0.67823384  1
  H+  H140  1  0.39496882  0.35823322  0.84865882  1
  H+  H141  1  0.89770103  0.28259420  0.33572870  1
  H+  H142  1  0.12443054  0.89970322  0.82058392  1
  H+  H143  1  0.90128103  0.36276418  0.50423806  1
  H+  H144  1  0.85934670  0.73784106  0.35163937  1
  H+  H145  1  0.88001293  0.01366361  0.71036350  1
  H+  H146  1  0.50042156  0.37311483  0.50173026  1
  H+  H147  1  0.45584108  0.61587093  0.98611099  1
  H+  H148  1  0.89238329  0.63156777  0.51981578  1
  H+  H149  1  0.88775236  0.86410561  0.33634946  1
  H+  H150  1  0.87101208  0.51520946  0.65766863  1
  H+  H151  1  0.39836707  0.00808554  0.17140465  1
  H+  H152  1  0.97351487  0.85832660  0.33428544  1
  H+  H153  1  0.45661239  0.10002425  -0.01251456  1
  H+  H154  1  0.07782701  0.66156698  0.44182866  1
  H+  H155  1  0.68153418  0.36043868  0.17071475  1
  H+  H156  1  0.13646271  0.60817675  0.99208129  1
  H+  H157  1  0.38462565  0.87502609  0.31861242  1
  H+  H158  1  0.45111109  0.11702174  0.37291468  1
  H+  H159  1  0.92142666  0.33285736  0.56553382  1
  H+  H160  1  0.04057932  0.64781106  -0.00114731  1
  H+  H161  1  0.69269019  0.36414514  0.67935377  1
  H+  H162  1  0.23029976  0.86735787  0.84371332  1
  H+  H163  1  0.10815499  -0.02625688  0.65956186  1
  H+  H164  1  0.63350320  0.34751578  1.00173947  1
  H+  H165  1  0.89889068  0.61447348  0.28901861  1
  H+  H166  1  0.60280255  0.75239194  0.28025880  1
  H+  H167  1  0.34974363  0.97855264  0.35905734  1
  H+  H168  1  0.03117462  0.13301297  0.49351557  1
  H+  H169  1  0.64121344  0.01354257  0.16299166  1
  H+  H170  1  0.33233995  0.90575673  0.09442179  1
  H+  H171  1  0.74417308  0.40130976  0.35406143  1
  H+  H172  1  0.02103583  0.64389236  0.50337143  1
  H+  H173  1  0.87044174  0.28300392  0.66133743  1
  H+  H174  1  0.86447200  0.65457539  0.36920385  1
  H+  H175  1  0.90458087  0.38252926  0.14999373  1
  H+  H176  1  0.52482043  0.47524395  0.11884565  1
  H+  H177  1  0.88882427  0.12911425  0.65996093  1
  H+  H178  1  0.72371511  0.61417699  0.83563931  1
  H+  H179  1  -0.01691935  0.60961703  0.82260321  1
  H+  H180  1  0.62949842  0.10389845  0.83405553  1
  H+  H181  1  0.01999220  0.14046465  0.66872816  1
  H+  H182  1  0.06196707  0.88137026  0.51422820  1
  H+  H183  1  0.63697122  0.51638064  0.33579228  1
  H+  H184  1  0.39839212  0.02306324  0.51586395  1
  H+  H185  1  0.79707463  0.39468025  0.51111833  1
  H+  H186  1  -0.00727594  0.90151281  0.49191493  1
  H+  H187  1  0.67393351  0.08243853  0.40806318  1
  H+  H188  1  -0.01220551  0.62845396  0.67132850  1
  H+  H189  1  0.37914977  0.35071321  0.66011982  1
  H+  H190  1  0.37466523  0.88769473  0.50049834  1
  H+  H191  1  0.63603276  0.52699777  0.83570650  1
  H+  H192  1  0.60285266  0.13672582  0.36239532  1
  H+  H193  1  0.48999826  0.12121299  0.66634638  1
  H+  H194  1  0.67020628  0.58926910  0.99283075  1
  H+  H195  1  0.62026668  0.90343378  0.32075962  1
  H+  H196  1  0.13466083  0.51399585  0.65821147  1
  H+  H197  1  0.58797485  0.41149209  0.76624481  1
  H+  H198  1  0.36949791  0.73906809  0.16169601  1
  H+  H199  1  1.02232872  0.62900397  0.34307864  1
  H+  H200  1  0.63157816  0.10886926  0.98434370  1
  H+  H201  1  0.26845610  0.64852278  0.49034015  1
  H+  H202  1  0.48129473  0.60866272  0.52226413  1
  H+  H203  1  0.81955623  0.41080425  -0.00964178  1
  H+  H204  1  0.25876214  0.37567185  0.66424894  1
  H+  H205  1  0.57900398  0.15811513  0.76444817  1
  H+  H206  1  0.13715828  0.51832307  0.99604009  1
  H+  H207  1  0.72994862  0.84459236  0.85729792  1
  H+  H208  1  0.12848430  0.10811190  0.33178790  1
  H+  H209  1  0.83452352  0.65580529  0.10495135  1
  H+  H210  1  0.15970756  0.85893961  0.49783584  1
  H+  H211  1  0.26837054  0.13275708  0.30891793  1
  H+  H212  1  0.10090395  0.97464169  0.16454274  1
  H+  H213  1  0.35874609  0.62774572  0.67199623  1
  H+  H214  1  0.22352055  0.85697049  0.33817321  1
  H+  H215  1  0.59200152  0.87752175  0.48584443  1
  H+  H216  1  0.11308117  0.47104402  0.82342787  1
  H+  H217  1  0.77452129  0.40220968  0.83294707  1
  H+  H218  1  0.56527924  0.14317565  0.05635658  1
  H+  H219  1  0.68637837  0.86905294  0.51875386  1
  H+  H220  1  0.87304562  0.13788649  0.33750505  1
  H+  H221  1  0.87408589  0.06526487  0.16419750  1
  H+  H222  1  0.61174785  0.72627185  0.68040755  1
  H+  H223  1  0.89097789  0.09728150  0.50947399  1
  H+  H224  1  0.38699320  0.14083041  0.67795575  1
  H+  H225  1  0.58737725  0.20241444  -0.00276838  1
  H+  H226  1  0.86581739  0.17572215  0.14026321  1
  H+  H227  1  0.14955698  0.12334268  0.49433575  1
  H+  H228  1  -0.03505363  0.86127473  0.65754338  1
  H+  H229  1  0.37067174  0.52028648  0.16876779  1
  H+  H230  1  0.60690395  0.89494318  -0.00026529  1
  H+  H231  1  0.38997348  0.85598057  0.66281856  1
  H+  H232  1  0.53329102  0.14372024  0.51057930  1
  H+  H233  1  0.13590833  0.61146763  0.32914332  1
  H+  H234  1  0.68826999  0.70980483  0.03494039  1
  H+  H235  1  0.78729696  0.14282283  0.34855034  1
  H+  H236  1  0.36066089  0.47306890  0.00044035  1
  H+  H237  1  0.90392375  0.60561255  0.16576872  1
  H+  H238  1  0.96758882  0.10203301  0.97450851  1
  H+  H239  1  0.47867331  0.85703425  0.83593726  1
  H+  H240  1  0.10813984  0.38049346  0.81935590  1
  H+  H241  1  0.59777894  0.48777685  0.16322095  1
  H+  H242  1  0.00504581  0.90325430  0.01349604  1
  H+  H243  1  0.13325198  0.02847786  0.49493534  1
  H+  H244  1  0.45345622  0.36398574  0.16775353  1
  H+  H245  1  0.35047056  0.63503294  0.00519465  1
  H+  H246  1  0.51923338  0.63720134  0.67922144  1
  H+  H247  1  0.97572591  0.36821616  0.83337172  1
  H+  H248  1  0.74670815  0.98408091  0.27584938  1
  H+  H249  1  0.61659541  0.25805254  0.34374434  1
  H+  H250  1  0.33469706  0.38200396  0.15863470  1
  H+  H251  1  0.44869558  0.49647258  0.38327506  1
  H+  H252  1  0.76751460  0.59957836  0.99940936  1
  H+  H253  1  0.13503027  0.78809349  0.85454028  1
  H+  H254  1  0.53396099  0.38123921  0.67377315  1
  H+  H255  1  0.11263507  0.85672268  0.65663656  1
  H+  H256  1  0.01196949  0.39374146  0.66794734  1
  H+  H257  1  0.13477537  0.52243694  0.50880195  1
  H+  H258  1  0.36111151  0.87919491  0.83039930  1
  H+  H259  1  0.76422387  0.85287940  0.51848772  1
  H+  H260  1  0.10637872  0.13427172  -0.00839980  1
  H+  H261  1  0.87277263  0.48037737  0.81394566  1
  H+  H262  1  0.10328807  0.23986316  0.14465373  1
  H+  H263  1  0.79047780  0.94327728  0.73414623  1
  H+  H264  1  0.36246673  0.22300003  0.83060207  1
  H+  H265  1  0.63117188  0.51757610  0.51556274  1
  H+  H266  1  0.36266921  0.72227040  0.82304634  1
  H+  H267  1  0.47217619  0.86344216  0.98888071  1
  H+  H268  1  0.89217584  0.60776324  0.82595326  1
  H+  H269  1  0.77365202  0.13467428  -0.01050460  1
  H+  H270  1  0.38055983  0.53217811  0.33110323  1
  H+  H271  1  0.12710553  1.01661419  0.33365557  1
  H+  H272  1  0.03306665  0.38695260  0.49475184  1
  H+  H273  1  0.12968430  0.73577944  0.15011279  1
  H+  H274  1  0.47198132  0.86128242  0.50510242  1
  H+  H275  1  0.27129873  0.88373246  0.00801541  1
  H+  H276  1  0.01834141  0.87964171  0.16529986  1
  H+  H277  1  0.13904228  0.34188379  0.22474322  1
  H+  H278  1  0.63480363  0.22644426  0.67981871  1
  H+  H279  1  0.73536979  0.11206142  0.50178853  1
  H+  H280  1  0.14381406  0.88895896  0.18016919  1
  H+  H281  1  0.37729986  0.26060667  0.50415373  1
  H+  H282  1  0.89437821  0.26729802  0.98669368  1
  H+  H283  1  1.00756973  0.36379412  0.18092839  1
  H+  H284  1  0.09846323  0.67286471  0.06056763  1
  H+  H285  1  0.12622832  0.02766675  0.99113381  1
  H+  H286  1  0.37174767  0.34882986  0.51113412  1
  H+  H287  1  0.13889843  0.36430783  0.50075197  1
  H+  H288  1  0.34493217  0.42181826  0.44876419  1
  H+  H289  1  0.89648250  0.39003696  -0.00696636  1
  H+  H290  1  0.35346902  0.13368866  0.43631452  1
  H+  H291  1  0.67039300  0.57576240  0.24168057  1
  H+  H292  1  0.32897729  0.66129799  0.76379712  1
  H+  H293  1  0.33445688  0.90894292  0.40632583  1
  H+  H294  1  0.40225119  0.07417492  0.89659076  1
  H+  H295  1  0.34679496  0.17115000  0.73977557  1
  H+  H296  1  0.42584213  0.08877656  0.60849665  1
  H+  H297  1  0.91720562  0.82665609  0.23599062  1
  H+  H298  1  0.07375422  0.41585922  0.72623809  1
  H+  H299  1  0.40819253  0.34511052  0.26646737  1
  H+  H300  1  0.16637592  0.57364854  0.89814227  1
  H+  H301  1  0.82544269  0.17735929  0.72982050  1
  H+  H302  1  0.15016272  0.82299885  0.59896923  1
  H+  H303  1  0.10875894  0.87857890  0.34912218  1
  H+  H304  1  0.36876900  0.01272558  0.99034549  1
  H+  H305  1  0.57958679  0.65413660  0.44657642  1
  H+  H306  1  0.16702886  0.57799773  0.59433978  1
  H+  H307  1  0.59557935  0.37558918  0.35287930  1
  H+  H308  1  0.72819070  0.89854414  0.24588505  1
  H+  H309  1  0.56478804  0.41034117  0.40842189  1
  H+  H310  1  0.07288987  0.65236142  0.70790220  1
  H+  H311  1  0.96883365  0.79974499  0.89678406  1
  H+  H312  1  0.40705887  0.82569668  0.22607090  1
  H+  H313  1  0.08627997  0.16529311  0.72346089  1
  H+  H314  1  0.32507942  0.68236207  0.42958003  1
  H+  H315  1  0.65615321  0.82709646  0.93338906  1
  H+  H316  1  0.15471444  0.07835900  0.24132219  1
  H+  H317  1  0.61179495  0.97439973  0.48549662  1
  H+  H318  1  0.98859524  0.35313769  0.99228767  1
  H+  H319  1  0.88235992  0.83017126  0.95143788  1
  H+  H320  1  0.71261592  0.31587721  0.21664345  1
  H+  H321  1  0.11338715  -0.01791536  0.81963728  1
  H+  H322  1  0.09324925  0.42220437  0.43517710  1
  H+  H323  1  0.88026794  0.10369694  0.97314361  1
  H+  H324  1  0.11996767  0.22973257  0.82768650  1
  H+  H325  1  0.61761026  0.30987667  0.28429122  1
  H+  H326  1  0.32902418  0.41726391  0.06135895  1
  H+  H327  1  0.92617827  0.35359976  0.28450301  1
  H+  H328  1  0.16063002  0.20948002  0.11444852  1
  H+  H329  1  0.92169220  0.33934057  0.89521401  1
  H+  H330  1  0.42419253  0.32577473  0.90639950  1
  H+  H331  1  0.58363388  0.91309605  0.73084997  1
  H+  H332  1  0.08381747  0.91982655  0.72284913  1
  H+  H333  1  0.07166678  0.92830224  0.06740504  1
  H+  H334  1  -0.00381559  0.85646884  0.83793334  1
  H+  H335  1  0.91450053  0.06645019  0.26618112  1
  H+  H336  1  0.57623155  0.90377853  0.38439760  1
  H+  H337  1  0.06855164  0.16512650  0.04570578  1
  H+  H338  1  0.31598902  0.15313829  0.05938558  1
  H+  H339  1  0.68685191  0.83203830  0.61738915  1
  H+  H340  1  0.34048811  0.91176967  0.73389262  1
  H+  H341  1  0.57373888  0.91585191  0.09036606  1
  H+  H342  1  0.52182646  0.88035589  0.67243896  1
  H+  H343  1  0.07210350  0.90799739  0.40535789  1
  H+  H344  1  0.15902994  0.32781778  0.56079863  1
  H+  H345  1  0.16173541  0.08538817  0.89831044  1
  H+  H346  1  0.63503770  0.76319388  0.84572235  1
  H+  H347  1  0.41732443  0.57880602  0.60854936  1
  H+  H348  1  0.12226265  0.38044122  1.00462240  1
  H+  H349  1  0.47287208  0.87320079  0.31279953  1
  H+  H350  1  0.68792795  0.36237716  0.90342377  1
  H+  H351  1  0.91608957  0.07980584  0.88463871  1
  H+  H352  1  0.93444187  0.59356951  0.91996177  1
  H+  H353  1  0.89826885  0.84374765  0.60513035  1
  H+  H354  1  0.35846369  0.71814373  0.66911528  1
  H+  H355  1  0.87174001  0.41265650  0.08156245  1
  H+  H356  1  0.38350621  0.61118556  0.83375449  1
  H+  H357  1  0.40006714  0.58142075  0.26717799  1
  H+  H358  1  0.36926443  0.11564131  0.34238131  1
  H+  H359  1  0.17508224  0.33192531  0.89363292  1
  H+  H360  1  0.62265072  0.84663571  0.13782205  1
  H+  H361  1  0.89431671  0.02217168  0.33245521  1
  H+  H362  1  0.16044328  0.07578583  0.58869582  1
  H+  H363  1  0.76646032  0.10384260  0.14151813  1
  H+  H364  1  0.35582630  0.22194113  0.30899988  1
  H+  H365  1  0.83111820  0.66166830  0.76443654  1
  H+  H366  1  0.51166116  0.62016903  0.34930641  1
  H+  H367  1  0.40270633  0.58195826  0.92522103  1
  H+  H368  1  0.25155447  0.39346951  0.15296903  1
  H+  H369  1  0.82575277  0.68424718  0.45102993  1
  H+  H370  1  0.40839974  0.31902931  0.60165220  1
  H+  H371  1  0.09461635  0.40073868  0.06842071  1
  H+  H372  1  0.91407614  0.08320446  0.60714662  1
  H+  H373  1  0.94059072  0.56960479  0.21552864  1
  H+  H374  1  0.33145304  0.66787646  0.09636588  1
  H+  H375  1  0.84826085  0.16569755  0.43661827  1
  H+  H376  1  0.83218863  0.14701858  0.04699930  1
  H+  H377  1  0.28224608  0.05375292  0.12400106  1
  H+  H378  1  0.83950894  0.42891465  0.44706760  1
  H+  H379  1  0.17247776  0.84907777  0.94553920  1
  H+  H380  1  0.11890578  0.48226208  0.34431880  1
  H+  H381  1  0.41689968  0.82535528  0.60225715  1
  H+  H382  1  0.66378186  0.08061006  0.92506957  1
  H+  H383  1  0.84528200  0.91155074  0.41670206  1
  O2-  O384  1  0.10124072  0.18742704  0.12720840  1
  O2-  O385  1  0.08815014  0.16759934  0.47379625  1
  O2-  O386  1  0.08678302  0.16608720  0.81495265  1
  O2-  O387  1  0.10156002  0.39415500  0.15369577  1
  O2-  O388  1  0.09406398  0.42247365  0.48115580  1
  O2-  O389  1  0.07866381  0.41157519  0.80592334  1
  O2-  O390  1  0.10391901  0.67809761  0.13344465  1
  O2-  O391  1  0.08180660  0.66652990  0.48709846  1
  O2-  O392  1  0.09444323  0.65128244  0.79518750  1
  O2-  O393  1  0.07939540  0.91554419  0.14874478  1
  O2-  O394  1  0.05391796  0.91538024  0.48321585  1
  O2-  O395  1  0.08827898  0.92275564  0.80360355  1
  O2-  O396  1  0.30500001  0.11280681  0.13789674  1
  O2-  O397  1  0.34267383  0.15371480  0.47588225  1
  O2-  O398  1  0.32874928  0.16427945  0.81187619  1
  O2-  O399  1  0.31303066  0.41812480  0.14026867  1
  O2-  O400  1  0.33418488  0.41016011  0.49326947  1
  O2-  O401  1  0.36387326  0.42713385  0.80730034  1
  O2-  O402  1  0.33646311  0.66993809  0.14311521  1
  O2-  O403  1  0.32720802  0.68454559  0.47468719  1
  O2-  O404  1  0.33088134  0.66068347  0.80929977  1
  O2-  O405  1  0.33475962  0.90231762  0.14070322  1
  O2-  O406  1  0.34544930  0.92007333  0.48510073  1
  O2-  O407  1  0.32671253  0.90600535  0.81688559  1
  O2-  O408  1  0.58059106  0.14764036  0.13190304  1
  O2-  O409  1  0.59368160  0.17597630  0.49422253  1
  O2-  O410  1  0.56996471  0.15259113  0.81038349  1
  O2-  O411  1  0.55049523  0.44315876  0.13607034  1
  O2-  O412  1  0.56267736  0.40312479  0.48695892  1
  O2-  O413  1  0.58935805  0.41567670  0.81216164  1
  O2-  O414  1  0.57235304  0.64277949  0.14986746  1
  O2-  O415  1  0.58836351  0.66225066  0.49135792  1
  O2-  O416  1  0.57610446  0.66288709  0.81700934  1
  O2-  O417  1  0.57800985  0.90775146  0.13537839  1
  O2-  O418  1  0.57460405  0.91568499  0.46747286  1
  O2-  O419  1  0.58692855  0.90967148  0.81136452  1
  O2-  O420  1  0.82560402  0.12027584  0.12266433  1
  O2-  O421  1  0.84047556  0.16008783  0.48169873  1
  O2-  O422  1  0.82883035  0.17625641  0.80956432  1
  O2-  O423  1  0.86639273  0.40278288  0.12758101  1
  O2-  O424  1  0.85334895  0.42772586  0.49023154  1
  O2-  O425  1  0.83196136  0.41632627  0.80691130  1
  O2-  O426  1  0.83625339  0.65319316  0.14960114  1
  O2-  O427  1  0.82936536  0.68769252  0.49609238  1
  O2-  O428  1  0.83539298  0.65513875  0.80993009  1
  O2-  O429  1  0.73260711  0.85752645  0.16512855  1
  O2-  O430  1  0.84935933  0.90088715  0.49315110  1
  O2-  O431  1  0.83901915  0.88918023  0.85234764  1
  O2-  O432  1  0.15791217  0.08064515  0.19517589  1
  O2-  O433  1  0.17550962  0.08778391  0.50740893  1
  O2-  O434  1  0.16188277  0.08934413  0.85174468  1
  O2-  O435  1  0.14315194  0.34555550  0.17536884  1
  O2-  O436  1  0.16427598  0.32877846  0.51556518  1
  O2-  O437  1  0.17036167  0.32706429  0.84746645  1
  O2-  O438  1  0.16638911  0.54372168  0.19640183  1
  O2-  O439  1  0.16076479  0.58137424  0.52770186  1
  O2-  O440  1  0.16707488  0.57162454  0.85261289  1
  O2-  O441  1  0.19073267  0.88273677  0.20220895  1
  O2-  O442  1  0.17489950  0.82493331  0.52405213  1
  O2-  O443  1  0.17046310  0.85010361  0.85931578  1
  O2-  O444  1  0.43171924  0.06711548  0.18836024  1
  O2-  O445  1  0.42734835  0.08336500  0.53216594  1
  O2-  O446  1  0.40197404  0.07413829  0.85080290  1
  O2-  O447  1  0.39407603  0.33283020  0.18473688  1
  O2-  O448  1  0.40354891  0.31781839  0.52434842  1
  O2-  O449  1  0.42141546  0.32366413  0.86090769  1
  O2-  O450  1  0.40400331  0.58118014  0.18376393  1
  O2-  O451  1  0.42235656  0.57827080  0.53913048  1
  O2-  O452  1  0.41305533  0.58151950  0.85240826  1
  O2-  O453  1  0.40603765  0.81729398  0.18013805  1
  O2-  O454  1  0.41500515  0.83243294  0.52467367  1
  O2-  O455  1  0.41729101  0.82629935  0.84931055  1
  O2-  O456  1  0.67892135  0.07568521  0.17180383  1
  O2-  O457  1  0.67146936  0.07874134  0.50960489  1
  O2-  O458  1  0.66334578  0.07747886  0.84888077  1
  O2-  O459  1  0.70727272  0.32382710  0.17316498  1
  O2-  O460  1  0.68961838  0.34556486  0.54472967  1
  O2-  O461  1  0.70893039  0.39820447  0.86656105  1
  O2-  O462  1  0.66952224  0.57678853  0.19590318  1
  O2-  O463  1  0.66301528  0.57701942  0.53103276  1
  O2-  O464  1  0.66355978  0.58715407  0.85020135  1
  O2-  O465  1  0.65086019  0.81035321  0.13168902  1
  O2-  O466  1  0.69868195  0.82506235  0.53267076  1
  O2-  O467  1  0.66703929  0.82284343  0.86342870  1
  O2-  O468  1  0.90945564  0.04827232  0.18861849  1
  O2-  O469  1  0.92291375  0.07188229  0.52904336  1
  O2-  O470  1  0.92992949  0.09881940  0.84034063  1
  O2-  O471  1  0.94730508  0.35114315  0.19281937  1
  O2-  O472  1  0.92703520  0.32904788  0.52055104  1
  O2-  O473  1  0.91585202  0.34145745  0.85019162  1
  O2-  O474  1  0.94165294  0.58072821  0.17175375  1
  O2-  O475  1  0.92669285  0.60466866  0.53130591  1
  O2-  O476  1  0.92489605  0.57864075  0.84070795  1
  O2-  O477  1  0.92222021  0.82643714  0.19123494  1
  O2-  O478  1  0.89691282  0.86027817  0.51889659  1
  O2-  O479  1  0.94434489  0.81466144  0.86258780  1
  O2-  O480  1  0.15552865  0.07513577  0.31536019  1
  O2-  O481  1  0.15311111  0.06807776  0.63343061  1
  O2-  O482  1  0.16033957  0.08615432  0.97033762  1
  O2-  O483  1  0.14327196  0.33242653  0.28944771  1
  O2-  O484  1  0.15674057  0.33163714  0.63864316  1
  O2-  O485  1  0.17306479  0.33062493  0.96815009  1
  O2-  O486  1  0.16759522  0.58276099  0.31404791  1
  O2-  O487  1  0.17187814  0.57548393  0.64202477  1
  O2-  O488  1  0.16672124  0.57659038  0.97774798  1
  O2-  O489  1  0.16199656  0.82540042  0.32401468  1
  O2-  O490  1  0.13567097  0.81638513  0.64339174  1
  O2-  O491  1  0.17705935  0.84083878  0.98930793  1
  O2-  O492  1  0.38794569  0.08864957  0.37522495  1
  O2-  O493  1  0.42783704  0.09326936  0.65427896  1
  O2-  O494  1  0.39559326  0.07293028  0.97347939  1
  O2-  O495  1  0.40902446  0.33855439  0.31114645  1
  O2-  O496  1  0.41267028  0.32276051  0.64731201  1
  O2-  O497  1  0.42769314  0.33270148  0.98560924  1
  O2-  O498  1  0.40391412  0.58968853  0.31180181  1
  O2-  O499  1  0.41240527  0.57911850  0.65539447  1
  O2-  O500  1  0.39735660  0.57986324  0.97151540  1
  O2-  O501  1  0.41199469  0.84449090  0.29877215  1
  O2-  O502  1  0.41669084  0.82149542  0.64769870  1
  O2-  O503  1  0.41193068  0.83144439  0.97274127  1
  O2-  O504  1  0.66870837  0.08872495  0.36417837  1
  O2-  O505  1  0.66323983  0.07700502  0.64209080  1
  O2-  O506  1  0.66662751  0.08299792  0.97077310  1
  O2-  O507  1  0.64424938  0.31846280  0.32414517  1
  O2-  O508  1  0.70610191  0.32385257  0.65885468  1
  O2-  O509  1  0.65778780  0.31563395  0.97912709  1
  O2-  O510  1  0.66537795  0.57565908  0.31830982  1
  O2-  O511  1  0.65664610  0.57705548  0.65469835  1
  O2-  O512  1  0.70057795  0.55676678  0.98247872  1
  O2-  O513  1  0.72227391  0.92312782  0.28461013  1
  O2-  O514  1  0.67383154  0.83114112  0.66120407  1
  O2-  O515  1  0.65541460  0.83719079  0.97951514  1
  O2-  O516  1  0.91690957  0.07802849  0.31094566  1
  O2-  O517  1  0.91774424  0.09507039  0.65194557  1
  O2-  O518  1  0.90735016  0.06971798  0.95908758  1
  O2-  O519  1  0.92374642  0.34541913  0.32856160  1
  O2-  O520  1  0.90676076  0.34164759  0.64268752  1
  O2-  O521  1  0.92973512  0.32949408  0.97414748  1
  O2-  O522  1  0.92090028  0.57774862  0.30306048  1
  O2-  O523  1  0.89269449  0.56465751  0.68493108  1
  O2-  O524  1  0.93691191  0.59800089  0.96551120  1
  O2-  O525  1  0.91213419  0.82849063  0.32057667  1
  O2-  O526  1  0.90294972  0.82974517  0.64769077  1
  O2-  O527  1  0.88456598  0.82222216  0.99521207  1
  O2-  O528  1  0.07289780  0.16436518  0.00086138  1
  O2-  O529  1  0.08463222  0.17214172  0.34866945  1
  O2-  O530  1  0.08318852  0.16823072  0.67911070  1
  O2-  O531  1  0.08956644  0.40569101  0.02389217  1
  O2-  O532  1  0.09005530  0.42167835  0.35973362  1
  O2-  O533  1  0.07367612  0.41902894  0.68088480  1
  O2-  O534  1  0.09987538  0.67079031  0.01432679  1
  O2-  O535  1  0.08027759  0.65833184  0.36168812  1
  O2-  O536  1  0.05393107  0.66456963  0.66916038  1
  O2-  O537  1  0.06618721  0.93865970  0.02374368  1
  O2-  O538  1  0.07727934  0.90930355  0.36032719  1
  O2-  O539  1  0.07830172  0.91321987  0.67793217  1
  O2-  O540  1  0.32327020  0.16359221  0.01491319  1
  O2-  O541  1  0.33039266  0.16027318  0.29898442  1
  O2-  O542  1  0.35511551  0.17312833  0.69365987  1
  O2-  O543  1  0.33622635  0.41370205  0.01657114  1
  O2-  O544  1  0.38730661  0.45312953  0.37714449  1
  O2-  O545  1  0.31821290  0.40006086  0.68180857  1
  O2-  O546  1  0.32462616  0.66698249  0.02457222  1
  O2-  O547  1  0.33054005  0.67983047  0.34997069  1
  O2-  O548  1  0.32479329  0.65671121  0.68419815  1
  O2-  O549  1  0.33466257  0.91606317  0.02181878  1
  O2-  O550  1  0.32916526  0.91552143  0.36144473  1
  O2-  O551  1  0.34900514  0.91416264  0.68934629  1
  O2-  O552  1  0.56087095  0.14198156  0.01062873  1
  O2-  O553  1  0.57310713  0.16909338  0.37346573  1
  O2-  O554  1  0.59239031  0.16495648  0.69152413  1
  O2-  O555  1  0.59072381  0.40453233  0.02690150  1
  O2-  O556  1  0.57107173  0.41279248  0.36308333  1
  O2-  O557  1  0.59238332  0.41215501  0.69092282  1
  O2-  O558  1  0.63905637  0.65278474  0.02655360  1
  O2-  O559  1  0.54713880  0.60616138  0.37602831  1
  O2-  O560  1  0.57935221  0.66479129  0.69501094  1
  O2-  O561  1  0.57477716  0.92309927  0.01497838  1
  O2-  O562  1  0.57829673  0.91638489  0.34033811  1
  O2-  O563  1  0.58344684  0.91521410  0.68554739  1
  O2-  O564  1  0.83514705  0.16131033  0.00270970  1
  O2-  O565  1  0.84972562  0.17255840  0.35661989  1
  O2-  O566  1  0.82737874  0.17865100  0.68450871  1
  O2-  O567  1  0.87499613  0.42982116  0.00985413  1
  O2-  O568  1  0.79388025  0.45199419  0.37305376  1
  O2-  O569  1  0.86360800  0.39095807  0.65821568  1
  O2-  O570  1  0.84502508  0.65917370  0.01844251  1
  O2-  O571  1  0.82568532  0.67762547  0.37084521  1
  O2-  O572  1  0.82308993  0.66652085  0.69035232  1
  O2-  O573  1  0.81609432  0.91522521  0.03235588  1
  O2-  O574  1  0.84723912  0.92115809  0.37107809  1
  O2-  O575  1  0.85027742  0.97886385  0.74703381  1
