# generated using pymatgen
data_H2O
_symmetry_space_group_name_H-M   'P 1'
_cell_length_a   17.98101932
_cell_length_b   17.97839424
_cell_length_c   22.00024379
_cell_angle_alpha   90.00457673
_cell_angle_beta   90.02838006
_cell_angle_gamma   119.98353309
_symmetry_Int_Tables_number   1
_chemical_formula_structural   H2O
_chemical_formula_sum   'H384 O192'
_cell_volume   6160.20673452
_cell_formula_units_Z   192
loop_
 _symmetry_equiv_pos_site_id
 _symmetry_equiv_pos_as_xyz
  1  'x, y, z'
loop_
 _atom_type_symbol
 _atom_type_oxidation_number
  H+  1.0
  O2-  -2.0
loop_
 _atom_site_type_symbol
 _atom_site_label
 _atom_site_symmetry_multiplicity
 _atom_site_fract_x
 _atom_site_fract_y
 _atom_site_fract_z
 _atom_site_occupancy
  H+  H0  1  0.38783207  0.61399164  0.99311382  1
  H+  H1  1  0.40125572  0.88351376  0.51029729  1
  H+  H2  1  0.77844614  0.88940751  0.34669155  1
  H+  H3  1  0.39870912  0.53015988  0.16126617  1
  H+  H4  1  0.58906565  0.12935599  0.16580019  1
  H+  H5  1  0.10168287  0.49352045  0.51336993  1
  H+  H6  1  0.36844753  0.98340240  0.32963210  1
  H+  H7  1  0.86096203  0.12828552  0.50388286  1
  H+  H8  1  0.60683441  0.88382757  0.15423710  1
  H+  H9  1  0.62948065  0.35442782  0.66512697  1
  H+  H10  1  0.22311608  0.36683398  0.83988785  1
  H+  H11  1  0.63115539  0.26127970  0.32381318  1
  H+  H12  1  0.88277968  0.11469221  -0.01464082  1
  H+  H13  1  0.91999021  0.12114727  0.66568267  1
  H+  H14  1  0.71888709  0.36282308  0.84783298  1
  H+  H15  1  0.52630104  0.14061929  0.01135477  1
  H+  H16  1  0.62884509  1.00816760  0.51326865  1
  H+  H17  1  0.64503869  0.59173691  0.76406013  1
  H+  H18  1  0.52790769  0.89932791  0.33754617  1
  H+  H19  1  0.61519280  0.35816306  0.33365042  1
  H+  H20  1  0.48188778  0.11826220  0.32117479  1
  H+  H21  1  0.62433380  0.89722463  0.83414408  1
  H+  H22  1  0.85537971  0.36627216  0.49569147  1
  H+  H23  1  0.61442746  0.63197865  0.15663873  1
  H+  H24  1  0.11882085  0.89688386  0.49964678  1
  H+  H25  1  0.37299109  0.01753065  0.65912844  1
  H+  H26  1  0.85611070  0.22439082  0.65979882  1
  H+  H27  1  0.23567525  0.10779562  0.17544319  1
  H+  H28  1  0.29843259  0.67807736  0.80514585  1
  H+  H29  1  0.90321515  0.24324280  0.15096193  1
  H+  H30  1  0.76601572  0.64427173  0.81660764  1
  H+  H31  1  0.10667746  0.76471706  -0.00258598  1
  H+  H32  1  0.39184946  0.86895689  0.32613482  1
  H+  H33  1  0.89346554  0.78132976  0.33265290  1
  H+  H34  1  0.61474819  0.72181307  0.00670812  1
  H+  H35  1  0.85497135  0.46898149  0.16432032  1
  H+  H36  1  0.33592974  0.41082026  0.40370779  1
  H+  H37  1  0.10175163  0.36600917  0.49422378  1
  H+  H38  1  0.85706551  0.47114202  0.68036869  1
  H+  H39  1  0.50634643  0.13308399  0.67523745  1
  H+  H40  1  0.61097844  0.46459710  0.01241332  1
  H+  H41  1  0.11512235  0.50047704  0.84547390  1
  H+  H42  1  0.13455977  0.60702687  0.66526366  1
  H+  H43  1  0.47588373  0.61240515  0.98933874  1
  H+  H44  1  0.36358091  0.49317900  0.83999573  1
  H+  H45  1  0.48563888  0.36379620  0.83600870  1
  H+  H46  1  0.96685072  0.35953680  0.83804024  1
  H+  H47  1  0.85480123  0.47263904  0.83227522  1
  H+  H48  1  0.36959080  0.73088923  0.15977281  1
  H+  H49  1  0.61572686  0.14091207  0.01175237  1
  H+  H50  1  0.14898041  0.62841475  0.17313679  1
  H+  H51  1  0.15304010  0.56766352  0.60571819  1
  H+  H52  1  0.88390295  0.26988875  0.83292251  1
  H+  H53  1  0.61712139  0.38611453  0.83095382  1
  H+  H54  1  0.60030907  0.46204892  0.67305481  1
  H+  H55  1  0.47630580  0.35454606  0.50390631  1
  H+  H56  1  0.87916843  0.60795322  0.18295347  1
  H+  H57  1  0.87915548  0.23426296  0.36262989  1
  H+  H58  1  0.70793072  0.11071222  0.65844779  1
  H+  H59  1  0.76172639  0.62746105  0.50161925  1
  H+  H60  1  0.11918216  0.47203291  0.30549282  1
  H+  H61  1  0.39967753  0.86686831  0.99284171  1
  H+  H62  1  0.60888773  0.97104092  0.67852754  1
  H+  H63  1  0.08415008  0.66666696  0.25469112  1
  H+  H64  1  0.77412211  0.64898998  0.33652966  1
  H+  H65  1  0.96834415  0.86439273  0.17576446  1
  H+  H66  1  0.01307943  0.89208872  0.82129097  1
  H+  H67  1  0.13245012  0.86477394  0.67468384  1
  H+  H68  1  0.93024569  0.78747931  0.94239025  1
  H+  H69  1  0.08758411  0.40505764  0.09562483  1
  H+  H70  1  0.98437157  0.86554111  0.98746864  1
  H+  H71  1  0.72305883  0.60619638  0.17469822  1
  H+  H72  1  0.86578349  0.87548622  0.68673969  1
  H+  H73  1  0.89867501  0.03137303  0.51114120  1
  H+  H74  1  0.52017367  0.36697986  0.33932460  1
  H+  H75  1  0.14121271  0.35674920  0.15743187  1
  H+  H76  1  0.38934616  0.77383447  0.66029517  1
  H+  H77  1  0.02229826  0.64013842  0.31125579  1
  H+  H78  1  -0.02158181  0.10399440  0.19962446  1
  H+  H79  1  0.82845930  0.14651998  0.61570984  1
  H+  H80  1  0.24358786  0.10987968  0.33001054  1
  H+  H81  1  0.20466582  0.84592200  0.84150276  1
  H+  H82  1  0.89968380  0.78064931  0.66411274  1
  H+  H83  1  0.27963651  0.13304033  0.82600039  1
  H+  H84  1  0.52584179  0.62799111  0.66621771  1
  H+  H85  1  0.62083994  0.37813331  1.00432917  1
  H+  H86  1  0.73780158  0.87295786  0.51634935  1
  H+  H87  1  0.88897992  0.13992515  0.81348042  1
  H+  H88  1  0.96656044  0.34748767  0.51491614  1
  H+  H89  1  0.28235935  0.63710678  0.67150245  1
  H+  H90  1  0.34542027  0.85989853  0.83108728  1
  H+  H91  1  0.98558106  0.12547090  0.50846415  1
  H+  H92  1  0.86735494  -0.02086252  0.34843965  1
  H+  H93  1  0.36241931  0.25398310  0.65027510  1
  H+  H94  1  0.28969433  0.90427771  0.47889013  1
  H+  H95  1  0.11022624  0.38067362  1.00370285  1
  H+  H96  1  0.85389495  0.45382084  0.48407309  1
  H+  H97  1  1.01430563  0.63404136  0.16790838  1
  H+  H98  1  0.26938136  0.87957561  0.67854750  1
  H+  H99  1  0.14393739  0.27313367  0.32874441  1
  H+  H100  1  0.28522735  0.38466675  0.34050982  1
  H+  H101  1  0.61637352  0.89012733  0.01010667  1
  H+  H102  1  0.02823243  0.15075048  0.34610925  1
  H+  H103  1  0.13708560  0.02194717  0.83677097  1
  H+  H104  1  0.05406551  0.14684463  0.67140725  1
  H+  H105  1  0.86786979  0.89168125  0.49928235  1
  H+  H106  1  0.67946411  0.69851575  0.46483441  1
  H+  H107  1  0.37563293  0.99387970  0.48685627  1
  H+  H108  1  0.02242804  0.38199575  1.00465193  1
  H+  H109  1  0.76837565  0.37868346  0.16340356  1
  H+  H110  1  0.88334263  0.02512216  0.98894923  1
  H+  H111  1  1.00657322  0.62325990  0.83371887  1
  H+  H112  1  0.26091467  0.38188638  0.49050320  1
  H+  H113  1  0.37085467  0.53072728  0.50066369  1
  H+  H114  1  0.38149350  0.97793030  0.00790273  1
  H+  H115  1  0.51733629  0.64818420  0.84053060  1
  H+  H116  1  0.62759293  0.59438926  0.51773173  1
  H+  H117  1  0.71776288  0.34814268  0.51077794  1
  H+  H118  1  0.11641610  0.15460348  0.49682903  1
  H+  H119  1  0.14893764  0.28230138  0.66085835  1
  H+  H120  1  0.36526236  -0.02465606  0.15939244  1
  H+  H121  1  0.02009232  0.38334557  0.67661701  1
  H+  H122  1  0.33541752  0.16832152  0.39848962  1
  H+  H123  1  0.75679263  0.38360523  1.00083230  1
  H+  H124  1  0.13854054  0.02276557  0.17302523  1
  H+  H125  1  0.09209613  0.93077058  0.73418144  1
  H+  H126  1  0.08554559  0.18497811  0.40578911  1
  H+  H127  1  0.19845990  0.81160534  0.53186233  1
  H+  H128  1  0.77200448  0.86779457  0.69354524  1
  H+  H129  1  0.63079925  0.11109016  0.84357220  1
  H+  H130  1  0.86188770  0.88085897  0.16517538  1
  H+  H131  1  0.63370875  0.73583248  0.50285904  1
  H+  H132  1  0.47287845  0.86118817  0.17570808  1
  H+  H133  1  0.76603030  0.12034952  0.50412574  1
  H+  H134  1  0.14215743  0.03342738  0.50773800  1
  H+  H135  1  0.87819788  0.36181846  -0.01019743  1
  H+  H136  1  0.61520328  0.71517982  0.67467804  1
  H+  H137  1  0.89928540  0.15240395  0.15376160  1
  H+  H138  1  0.52467555  0.63495684  0.15325164  1
  H+  H139  1  1.03785649  0.38110624  0.15911238  1
  H+  H140  1  0.04043587  0.38107159  0.44247461  1
  H+  H141  1  0.72796036  0.12186476  0.13028899  1
  H+  H142  1  0.38040913  0.62692076  0.83022646  1
  H+  H143  1  0.38986991  0.52364135  0.65367675  1
  H+  H144  1  0.09535794  0.87774148  0.82776315  1
  H+  H145  1  0.36206805  0.13652935  0.15887944  1
  H+  H146  1  0.13668187  0.10537554  0.98173154  1
  H+  H147  1  0.61093738  0.23094018  0.83245016  1
  H+  H148  1  0.35781518  0.09850306  0.65101181  1
  H+  H149  1  0.63265470  0.61096247  0.99663163  1
  H+  H150  1  0.66479213  0.83571126  0.09300290  1
  H+  H151  1  0.47843048  0.11611943  0.85206312  1
  H+  H152  1  0.34949604  0.67357010  0.72849984  1
  H+  H153  1  0.64670219  0.63635381  0.32538792  1
  H+  H154  1  0.12058197  0.38380895  0.30575859  1
  H+  H155  1  0.13806675  0.27282110  0.83686102  1
  H+  H156  1  0.85734636  0.72408346  0.01587818  1
  H+  H157  1  0.63965694  0.77923013  0.85694245  1
  H+  H158  1  0.85511200  0.38283541  0.82981651  1
  H+  H159  1  0.86838731  0.88581065  0.00434368  1
  H+  H160  1  0.16872067  0.29305901  0.12787507  1
  H+  H161  1  0.73308612  0.86308945  1.00161944  1
  H+  H162  1  0.25349339  0.72198153  0.51204602  1
  H+  H163  1  0.88830625  0.02117297  0.18061398  1
  H+  H164  1  0.03928474  0.90472116  0.67284142  1
  H+  H165  1  0.36706251  0.22107265  0.82536258  1
  H+  H166  1  0.06289287  0.93218438  0.08888690  1
  H+  H167  1  0.36173867  0.22498991  0.00640654  1
  H+  H168  1  0.16985672  0.33449833  0.93135651  1
  H+  H169  1  0.51648738  0.12453434  0.48542203  1
  H+  H170  1  0.73707378  0.12732045  0.33114183  1
  H+  H171  1  0.61853062  0.14145986  0.33402876  1
  H+  H172  1  0.23171453  0.36014073  -0.01025189  1
  H+  H173  1  0.89023617  0.36777242  0.17538598  1
  H+  H174  1  0.38619513  0.11744431  0.50414598  1
  H+  H175  1  0.03387460  0.13726909  0.82399388  1
  H+  H176  1  0.11739291  0.88909181  0.34173402  1
  H+  H177  1  0.88181414  0.36012594  0.66726910  1
  H+  H178  1  0.10351620  0.37817458  0.82825065  1
  H+  H179  1  0.42274109  0.08817935  0.94087794  1
  H+  H180  1  0.72391987  0.60605605  0.66485043  1
  H+  H181  1  0.27252854  0.13488726  1.00594912  1
  H+  H182  1  0.11421070  0.21826952  -0.01751122  1
  H+  H183  1  0.58719399  0.91640387  0.73984219  1
  H+  H184  1  0.61898403  0.98435456  0.83216550  1
  H+  H185  1  0.14378058  0.11396920  0.83942274  1
  H+  H186  1  0.27684929  0.64053918  0.33935887  1
  H+  H187  1  0.09505340  0.62106642  0.83357086  1
  H+  H188  1  0.13980909  0.36651691  0.66296271  1
  H+  H189  1  0.23830596  0.62780190  0.16912767  1
  H+  H190  1  0.02223401  0.13132861  -0.02095436  1
  H+  H191  1  0.51103076  0.37119945  0.67165608  1
  H+  H192  1  0.20613503  0.58349712  0.84702452  1
  H+  H193  1  0.73267955  0.08332259  0.13600243  1
  H+  H194  1  0.42632076  0.33007510  0.93194875  1
  H+  H195  1  0.61244471  0.37116008  0.49459635  1
  H+  H196  1  0.47133712  0.11748630  0.16698245  1
  H+  H197  1  0.86361229  0.22813809  -0.00184403  1
  H+  H198  1  0.52371934  0.38074718  0.16101836  1
  H+  H199  1  0.09963030  0.17245540  0.76707426  1
  H+  H200  1  0.64990036  0.87715063  0.32967538  1
  H+  H201  1  0.54529063  0.82099705  0.45598577  1
  H+  H202  1  0.87758615  0.61009469  0.33966135  1
  H+  H203  1  0.86171422  0.72228159  0.17072553  1
  H+  H204  1  0.97807613  0.61251542  0.67108528  1
  H+  H205  1  0.18008505  0.04618070  0.66293335  1
  H+  H206  1  0.63885247  0.02741103  0.99920419  1
  H+  H207  1  0.61588120  0.10560447  0.66332625  1
  H+  H208  1  0.48350284  0.35707690  -0.00665230  1
  H+  H209  1  0.27574446  0.88758981  0.15722474  1
  H+  H210  1  0.38945735  0.11413110  0.85004375  1
  H+  H211  1  0.28724960  0.39095291  0.15244063  1
  H+  H212  1  0.60347567  0.64257133  0.83434493  1
  H+  H213  1  0.36296014  0.22731718  0.33762167  1
  H+  H214  1  1.00490867  0.62482673  1.01370253  1
  H+  H215  1  0.28470898  0.65177173  0.00421025  1
  H+  H216  1  0.17472245  0.07425723  0.93008980  1
  H+  H217  1  0.83791241  0.92098797  0.43966121  1
  H+  H218  1  0.19091110  0.58074742  0.50919854  1
  H+  H219  1  0.10097485  0.88094250  0.00507123  1
  H+  H220  1  0.85084147  0.63234974  0.48640887  1
  H+  H221  1  0.14444564  0.61123524  0.31657072  1
  H+  H222  1  0.12037986  0.13062110  0.20385897  1
  H+  H223  1  0.59863813  0.21879174  0.67519941  1
  H+  H224  1  0.73531713  0.85986804  0.85418958  1
  H+  H225  1  0.15804173  0.67316902  0.52994284  1
  H+  H226  1  0.82961550  0.16149819  0.41070062  1
  H+  H227  1  0.37445969  0.38769334  -0.00081189  1
  H+  H228  1  0.58383318  0.39253409  0.40129809  1
  H+  H229  1  0.13739757  0.78440757  0.17031023  1
  H+  H230  1  0.33866129  0.41774360  0.88577362  1
  H+  H231  1  0.67158970  0.59790791  0.26839558  1
  H+  H232  1  0.87763811  0.61432299  0.84605256  1
  H+  H233  1  0.36444856  0.73040843  0.34623157  1
  H+  H234  1  0.58878406  0.67941105  0.39882770  1
  H+  H235  1  0.63379080  0.35816665  0.17373120  1
  H+  H236  1  0.82287928  0.39834840  0.39944176  1
  H+  H237  1  0.76781077  0.63597850  0.01520080  1
  H+  H238  1  0.60989153  0.45901437  0.48973136  1
  H+  H239  1  0.39086609  0.11230571  0.00221091  1
  H+  H240  1  0.90785952  0.33191389  0.93053580  1
  H+  H241  1  0.10463979  0.72049749  0.68412525  1
  H+  H242  1  0.63044924  0.26692231  0.17277237  1
  H+  H243  1  0.10953502  0.47318398  0.67764577  1
  H+  H244  1  0.72864687  0.11598615  0.99692419  1
  H+  H245  1  0.23790360  0.90953315  0.55821401  1
  H+  H246  1  0.92013592  0.58056021  0.42458356  1
  H+  H247  1  0.71939816  0.35527627  0.66840177  1
  H+  H248  1  0.27656271  0.14050620  0.48818556  1
  H+  H249  1  0.77452947  0.37705753  0.33582218  1
  H+  H250  1  0.36681320  0.22870690  0.48933428  1
  H+  H251  1  0.63315505  0.60549986  0.66150449  1
  H+  H252  1  0.38401555  0.86126705  0.17676891  1
  H+  H253  1  0.86543068  0.64095130  0.67851175  1
  H+  H254  1  0.40339081  0.77449996  0.83390617  1
  H+  H255  1  0.11013255  0.97628870  -0.00064541  1
  H+  H256  1  0.14115863  0.78380168  0.31209688  1
  H+  H257  1  0.59531753  0.00819594  0.18482928  1
  H+  H258  1  0.63404347  0.51710364  0.17324632  1
  H+  H259  1  0.38588384  0.27185027  0.17458346  1
  H+  H260  1  0.14535413  0.01179035  0.33251036  1
  H+  H261  1  0.47723709  0.86277583  0.66764331  1
  H+  H262  1  0.87453846  0.60345722  0.00065103  1
  H+  H263  1  0.64129208  0.28441189  0.99270000  1
  H+  H264  1  0.11670777  0.24849359  0.49697313  1
  H+  H265  1  0.37692049  0.34981013  0.65587001  1
  H+  H266  1  0.77694676  0.88493491  0.14843383  1
  H+  H267  1  0.23103778  0.87228678  0.32391325  1
  H+  H268  1  0.39259833  0.36411203  0.17248432  1
  H+  H269  1  0.33040301  0.63202380  0.49857986  1
  H+  H270  1  0.27163409  0.38776805  0.66943055  1
  H+  H271  1  0.35264171  0.38456606  0.49578315  1
  H+  H272  1  0.36116590  0.88459529  0.67483489  1
  H+  H273  1  0.97700997  0.86232019  0.50931786  1
  H+  H274  1  0.90128088  0.01570457  0.83750485  1
  H+  H275  1  0.21378240  0.70137841  0.95218168  1
  H+  H276  1  0.37051649  0.47641598  -0.00047857  1
  H+  H277  1  0.02325077  0.98139195  0.12203582  1
  H+  H278  1  0.87717911  0.51688852  0.33915106  1
  H+  H279  1  0.39269084  0.61403759  0.65624622  1
  H+  H280  1  0.37734840  0.73492058  0.00281963  1
  H+  H281  1  0.52595066  0.88711455  1.00417000  1
  H+  H282  1  0.50993816  0.86759175  0.49848311  1
  H+  H283  1  0.11495884  0.21617163  0.19957527  1
  H+  H284  1  0.64163654  0.85951140  0.67298883  1
  H+  H285  1  0.39436140  0.36402526  0.33198306  1
  H+  H286  1  0.10238590  0.64331273  0.01182049  1
  H+  H287  1  0.39477391  0.52859541  0.34168614  1
  H+  H288  1  0.16401187  0.34078667  0.55444968  1
  H+  H289  1  0.89860776  0.86376922  0.88788080  1
  H+  H290  1  0.66081479  0.08235322  0.90255466  1
  H+  H291  1  0.57423313  0.91770889  0.10074793  1
  H+  H292  1  0.58215686  0.65820377  0.06413360  1
  H+  H293  1  0.84674259  0.91687862  0.06684068  1
  H+  H294  1  0.13727325  0.82094478  0.93572522  1
  H+  H295  1  0.58036177  0.16958592  0.10054024  1
  H+  H296  1  0.84111550  0.89187625  0.77410044  1
  H+  H297  1  0.05466467  0.18373283  0.09106781  1
  H+  H298  1  0.42011230  0.33325787  0.26980428  1
  H+  H299  1  0.41487398  0.08644061  0.22758918  1
  H+  H300  1  0.88550021  0.77429462  0.51119549  1
  H+  H301  1  0.00146828  0.36697327  0.34155389  1
  H+  H302  1  0.88457632  0.11353909  0.33869519  1
  H+  H303  1  0.94490931  0.09604374  0.60329939  1
  H+  H304  1  0.02906575  0.89330749  0.34327387  1
  H+  H305  1  0.57702869  0.16956691  0.77328900  1
  H+  H306  1  0.87489793  0.26024503  0.51743313  1
  H+  H307  1  0.67758681  0.83559188  0.61460587  1
  H+  H308  1  0.18779739  0.09744251  0.56346982  1
  H+  H309  1  0.48544743  0.86874323  0.84101784  1
  H+  H310  1  0.42397250  0.84979139  0.57268163  1
  H+  H311  1  0.18438856  0.59309941  0.25908799  1
  H+  H312  1  0.52194239  0.64446906  0.34364160  1
  H+  H313  1  0.38941641  0.61488261  0.34443425  1
  H+  H314  1  0.63755660  0.76611582  0.14354592  1
  H+  H315  1  0.89314568  0.87048229  0.33385533  1
  H+  H316  1  0.35090372  0.91516416  0.06480086  1
  H+  H317  1  0.41030199  0.08289925  0.56499719  1
  H+  H318  1  0.07310095  0.65535464  0.74058950  1
  H+  H319  1  0.39780238  0.36572486  0.83762985  1
  H+  H320  1  0.66214816  0.33884504  0.91064369  1
  H+  H321  1  0.85475465  0.17501386  0.05795138  1
  H+  H322  1  0.93510667  0.34950592  0.23184568  1
  H+  H323  1  0.87025056  0.51116686  0.99643024  1
  H+  H324  1  0.34327048  0.67582652  0.09766531  1
  H+  H325  1  0.64319822  0.78565629  0.33078182  1
  H+  H326  1  0.07545816  0.62482313  0.41841184  1
  H+  H327  1  0.90211657  0.57929953  0.90582302  1
  H+  H328  1  0.39258747  0.11864576  0.32436038  1
  H+  H329  1  0.91723766  0.37034579  0.36168824  1
  H+  H330  1  0.30283560  0.65926469  0.43799478  1
  H+  H331  1  0.96701223  0.59923379  0.48716076  1
  H+  H332  1  0.58359558  0.92519488  0.39793487  1
  H+  H333  1  0.42023880  0.83397304  0.26962160  1
  H+  H334  1  0.63479593  0.07492320  0.24028789  1
  H+  H335  1  0.07567863  0.41118556  0.76902976  1
  H+  H336  1  0.08700287  0.92039002  0.43861493  1
  H+  H337  1  0.41532725  0.32484801  0.56319243  1
  H+  H338  1  0.66569154  0.57737394  0.94154891  1
  H+  H339  1  0.34733192  0.41774651  0.09409586  1
  H+  H340  1  0.92489190  0.84050890  0.60559574  1
  H+  H341  1  0.17228981  0.85032535  0.22467968  1
  H+  H342  1  0.65906842  0.32454689  0.26310435  1
  H+  H343  1  0.57951125  0.16145181  0.39338918  1
  H+  H344  1  0.67188352  0.83641604  0.94408941  1
  H+  H345  1  0.15085730  0.82564121  0.61630292  1
  H+  H346  1  0.07889363  0.66794255  0.42296491  1
  H+  H347  1  0.42651339  0.83299224  0.93178182  1
  H+  H348  1  0.31679811  0.89184256  0.77314363  1
  H+  H349  1  0.11390682  0.76201061  0.84143241  1
  H+  H350  1  0.40615926  0.58859636  0.55882214  1
  H+  H351  1  0.39749432  0.61887833  0.16203146  1
  H+  H352  1  0.18620125  0.32106492  0.26570097  1
  H+  H353  1  0.84819493  0.73757669  0.82619338  1
  H+  H354  1  0.91907136  0.83456027  0.24034701  1
  H+  H355  1  0.91131653  0.33243136  0.60595921  1
  H+  H356  1  0.90609786  0.57530504  0.24201832  1
  H+  H357  1  0.64884202  0.06925802  0.57048152  1
  H+  H358  1  0.82110978  0.40995813  0.06100974  1
  H+  H359  1  0.82661071  0.67271544  0.39943732  1
  H+  H360  1  0.34412674  0.92900793  0.39077092  1
  H+  H361  1  0.65850792  0.56246998  0.57483442  1
  H+  H362  1  0.09122752  0.17490176  0.09452561  1
  H+  H363  1  0.32877043  0.16715556  0.10101655  1
  H+  H364  1  0.66241973  0.32831700  0.57171235  1
  H+  H365  1  0.91732566  0.58275096  0.61266776  1
  H+  H366  1  0.83503485  0.15339519  0.76254872  1
  H+  H367  1  0.18103470  0.06913622  0.26521404  1
  H+  H368  1  0.58162839  0.40268409  0.76642927  1
  H+  H369  1  0.63202829  0.52027454  0.81161380  1
  H+  H370  1  0.92024716  0.07919761  0.89310695  1
  H+  H371  1  0.07181319  0.66511548  0.10853523  1
  H+  H372  1  0.14867187  0.15703859  0.67405771  1
  H+  H373  1  0.90955080  0.08061612  0.27873207  1
  H+  H374  1  0.83694683  0.67639954  0.73489146  1
  H+  H375  1  0.33467075  0.41532073  0.72676900  1
  H+  H376  1  0.82654615  0.41191509  0.73949179  1
  H+  H377  1  0.64343677  0.86238706  0.51801536  1
  H+  H378  1  0.16673374  0.60454328  0.93371622  1
  H+  H379  1  0.64745025  0.03778785  0.33173064  1
  H+  H380  1  0.83302757  0.66437597  0.11034514  1
  H+  H381  1  0.40710976  0.59585994  0.89442276  1
  H+  H382  1  0.60132601  0.11753979  0.48446330  1
  H+  H383  1  0.58255283  0.40633187  0.10077788  1
  O2-  O384  1  0.08319640  0.15542093  0.21205915  1
  O2-  O385  1  0.08173737  0.18040439  0.48417111  1
  O2-  O386  1  0.09592368  0.17158380  0.81256402  1
  O2-  O387  1  0.09437673  0.39996360  0.14059872  1
  O2-  O388  1  0.05765172  0.39034653  0.48537468  1
  O2-  O389  1  0.07268113  0.40904061  0.81484781  1
  O2-  O390  1  0.07497777  0.66865249  0.15410168  1
  O2-  O391  1  0.20720019  0.73190618  0.52773258  1
  O2-  O392  1  0.06679690  0.65227159  0.81743674  1
  O2-  O393  1  0.05105815  0.94783967  0.13085225  1
  O2-  O394  1  0.08404438  0.92139477  0.48394879  1
  O2-  O395  1  0.07398828  0.91558223  0.81048938  1
  O2-  O396  1  0.32945814  0.16669522  0.14688520  1
  O2-  O397  1  0.33700122  0.16835800  0.47214957  1
  O2-  O398  1  0.34034958  0.16040975  0.81282186  1
  O2-  O399  1  0.34869529  0.41960139  0.13949838  1
  O2-  O400  1  0.32415616  0.41420920  0.47786520  1
  O2-  O401  1  0.33680292  0.42705652  0.84218791  1
  O2-  O402  1  0.34103057  0.67113454  0.14284460  1
  O2-  O403  1  0.29011612  0.65104490  0.48247566  1
  O2-  O404  1  0.35418169  0.68321974  0.79850785  1
  O2-  O405  1  0.33824379  0.91428234  0.14609966  1
  O2-  O406  1  0.35087295  0.93427980  0.46806036  1
  O2-  O407  1  0.29877820  0.86814613  0.81437371  1
  O2-  O408  1  0.57366867  0.17100054  0.14637667  1
  O2-  O409  1  0.57009484  0.14140414  0.46262986  1
  O2-  O410  1  0.58261315  0.17006852  0.81816597  1
  O2-  O411  1  0.58455606  0.41078881  0.14666702  1
  O2-  O412  1  0.58199815  0.39965652  0.47313178  1
  O2-  O413  1  0.58690013  0.41542184  0.81095268  1
  O2-  O414  1  0.58750852  0.66349966  0.13766697  1
  O2-  O415  1  0.62273139  0.68262320  0.48045067  1
  O2-  O416  1  0.58115954  0.68129012  0.84349735  1
  O2-  O417  1  0.57301132  0.91260701  0.14621654  1
  O2-  O418  1  0.56528940  0.87596486  0.47642383  1
  O2-  O419  1  0.59199571  0.92288903  0.81578496  1
  O2-  O420  1  0.89755952  0.19505491  0.12607096  1
  O2-  O421  1  0.82696249  0.15651646  0.49118458  1
  O2-  O422  1  0.87697324  0.18303348  0.79452096  1
  O2-  O423  1  0.82891747  0.40968441  0.14802055  1
  O2-  O424  1  0.82198331  0.39157725  0.47615280  1
  O2-  O425  1  0.82456045  0.41347854  0.81518355  1
  O2-  O426  1  0.83242902  0.66159877  0.15567510  1
  O2-  O427  1  0.82016221  0.66503710  0.48360622  1
  O2-  O428  1  0.83032587  0.67781234  0.81466314  1
  O2-  O429  1  0.84102745  0.91639266  0.14417687  1
  O2-  O430  1  0.83837435  0.92319541  0.48551992  1
  O2-  O431  1  0.84758257  0.89853056  0.82407590  1
  O2-  O432  1  0.17856233  0.07397215  0.19763705  1
  O2-  O433  1  0.17758517  0.09502844  0.51881256  1
  O2-  O434  1  0.17166940  0.08090241  0.85356109  1
  O2-  O435  1  0.17747147  0.32550170  0.16531982  1
  O2-  O436  1  0.15863472  0.33625936  0.50994332  1
  O2-  O437  1  0.16168651  0.33352715  0.85212110  1
  O2-  O438  1  0.18112558  0.60172560  0.18942750  1
  O2-  O439  1  0.13356591  0.55336880  0.53006943  1
  O2-  O440  1  0.14752916  0.56244031  0.86121972  1
  O2-  O441  1  0.17293966  0.84627758  0.17991243  1
  O2-  O442  1  0.19073678  0.86479933  0.53466167  1
  O2-  O443  1  0.14304785  0.82297461  0.85486037  1
  O2-  O444  1  0.41023461  0.08447931  0.18233490  1
  O2-  O445  1  0.41428576  0.08490135  0.51932793  1
  O2-  O446  1  0.42040280  0.08767531  0.87052466  1
  O2-  O447  1  0.41909028  0.33169417  0.19102275  1
  O2-  O448  1  0.41540295  0.32690914  0.51769773  1
  O2-  O449  1  0.42517953  0.33333332  0.85218350  1
  O2-  O450  1  0.43201832  0.59148178  0.17300213  1
  O2-  O451  1  0.39423145  0.59052474  0.51499877  1
  O2-  O452  1  0.40659462  0.59125833  0.84934169  1
  O2-  O453  1  0.41321692  0.82977024  0.19267856  1
  O2-  O454  1  0.42849262  0.85206362  0.52734363  1
  O2-  O455  1  0.42534344  0.83191302  0.85584749  1
  O2-  O456  1  0.59530859  0.05728966  0.20516339  1
  O2-  O457  1  0.65767861  0.06847341  0.52525493  1
  O2-  O458  1  0.65916503  0.07872977  0.85749774  1
  O2-  O459  1  0.66321124  0.32737383  0.19036128  1
  O2-  O460  1  0.65958301  0.32948329  0.52664078  1
  O2-  O461  1  0.65874306  0.33591882  0.86250128  1
  O2-  O462  1  0.66170075  0.57815893  0.18726025  1
  O2-  O463  1  0.65715514  0.56229269  0.52905323  1
  O2-  O464  1  0.65737769  0.58468883  0.80635822  1
  O2-  O465  1  0.66800330  0.83097783  0.13707841  1
  O2-  O466  1  0.67863448  0.83838642  0.53431581  1
  O2-  O467  1  0.67717538  0.84183048  0.86957214  1
  O2-  O468  1  0.91427414  0.07875344  0.19975666  1
  O2-  O469  1  0.92502291  0.09143533  0.52645217  1
  O2-  O470  1  0.92779462  0.07729122  0.84797278  1
  O2-  O471  1  0.92679448  0.34273874  0.18808696  1
  O2-  O472  1  0.90482426  0.32170400  0.53080563  1
  O2-  O473  1  0.90538058  0.32826272  0.85097829  1
  O2-  O474  1  0.90907072  0.57638106  0.19734201  1
  O2-  O475  1  0.90999719  0.57445570  0.46910220  1
  O2-  O476  1  0.90416512  0.58050259  0.86002628  1
  O2-  O477  1  0.91144586  0.82741293  0.19504208  1
  O2-  O478  1  0.91744758  0.83456626  0.52612367  1
  O2-  O479  1  0.89604687  0.85568723  0.84318778  1
  O2-  O480  1  0.18177345  0.07171475  0.31249942  1
  O2-  O481  1  0.20722470  0.10351110  0.64256374  1
  O2-  O482  1  0.17011180  0.07390579  0.97562651  1
  O2-  O483  1  0.18221366  0.33219093  0.30867191  1
  O2-  O484  1  0.17498517  0.34279720  0.64595644  1
  O2-  O485  1  0.17046735  0.33081611  0.97657107  1
  O2-  O486  1  0.17962242  0.58539180  0.30552968  1
  O2-  O487  1  0.16327001  0.57539066  0.65094980  1
  O2-  O488  1  0.18725021  0.64381795  0.96964068  1
  O2-  O489  1  0.17011818  0.84761542  0.30965354  1
  O2-  O490  1  0.15419067  0.82512786  0.66096106  1
  O2-  O491  1  0.13487273  0.82391639  0.98075064  1
  O2-  O492  1  0.42057960  0.08791013  0.30655462  1
  O2-  O493  1  0.39876385  0.07682591  0.64173299  1
  O2-  O494  1  0.42474783  0.08621237  0.98757138  1
  O2-  O495  1  0.42261935  0.33109689  0.31534807  1
  O2-  O496  1  0.40462182  0.31673044  0.64184380  1
  O2-  O497  1  0.42283899  0.33109625  0.97721380  1
  O2-  O498  1  0.42443110  0.58988690  0.32991930  1
  O2-  O499  1  0.42261241  0.58398754  0.63934149  1
  O2-  O500  1  0.41510841  0.58213165  0.97499946  1
  O2-  O501  1  0.42380025  0.83863959  0.31521982  1
  O2-  O502  1  0.41823450  0.83677535  0.64989146  1
  O2-  O503  1  0.42802529  0.83281259  0.97765947  1
  O2-  O504  1  0.67672129  0.09780142  0.31556091  1
  O2-  O505  1  0.64643297  0.07570835  0.64689731  1
  O2-  O506  1  0.66708689  0.08766942  0.98410710  1
  O2-  O507  1  0.66013505  0.32443121  0.30958080  1
  O2-  O508  1  0.65995215  0.32360207  0.65154463  1
  O2-  O509  1  0.66916673  0.34440985  0.97814805  1
  O2-  O510  1  0.68109587  0.60943549  0.31258448  1
  O2-  O511  1  0.66308461  0.57076334  0.65158046  1
  O2-  O512  1  0.66666885  0.58144352  0.98571014  1
  O2-  O513  1  0.68151795  0.84708155  0.31934238  1
  O2-  O514  1  0.67315953  0.82955739  0.65967746  1
  O2-  O515  1  0.67091011  0.83296299  0.99022150  1
  O2-  O516  1  0.91366238  0.08185191  0.32406354  1
  O2-  O517  1  0.95531331  0.09933141  0.64814663  1
  O2-  O518  1  0.91076508  0.08195737  0.96897558  1
  O2-  O519  1  0.94951930  0.34062754  0.37015801  1
  O2-  O520  1  0.91306648  0.33091228  0.65177713  1
  O2-  O521  1  0.91028476  0.33281990  0.97585726  1
  O2-  O522  1  0.91305944  0.58119632  0.33482804  1
  O2-  O523  1  0.91546141  0.58276682  0.65687923  1
  O2-  O524  1  0.90373448  0.57426806  0.98256128  1
  O2-  O525  1  0.92581300  0.84222642  0.31801027  1
  O2-  O526  1  0.93029297  0.84199777  0.65081930  1
  O2-  O527  1  0.92356541  0.82729238  0.96891593  1
  O2-  O528  1  0.08509356  0.15464537  -0.01822904  1
  O2-  O529  1  0.08827151  0.18481857  0.36043206  1
  O2-  O530  1  0.11358326  0.18117103  0.68973036  1
  O2-  O531  1  0.08210725  0.41171866  0.02027494  1
  O2-  O532  1  0.08247686  0.40878510  0.30059849  1
  O2-  O533  1  0.07995840  0.41234475  0.69304516  1
  O2-  O534  1  0.06386577  0.66110352  0.03121816  1
  O2-  O535  1  0.08366917  0.67276109  0.29885877  1
  O2-  O536  1  0.07471889  0.65802199  0.69496519  1
  O2-  O537  1  0.07270916  0.91668102  0.01725487  1
  O2-  O538  1  0.09003224  0.92222063  0.35878467  1
  O2-  O539  1  0.09932245  0.93316274  0.68895513  1
  O2-  O540  1  0.33098205  0.16648169  0.02486210  1
  O2-  O541  1  0.33333985  0.16595322  0.35225460  1
  O2-  O542  1  0.29794608  0.14651692  0.66109429  1
  O2-  O543  1  0.34075410  0.41521905  0.01354374  1
  O2-  O544  1  0.34437644  0.41233479  0.35812684  1
  O2-  O545  1  0.33446982  0.41441350  0.68248365  1
  O2-  O546  1  0.34419653  0.67348205  0.01856737  1
  O2-  O547  1  0.33225400  0.67091947  0.36252739  1
  O2-  O548  1  0.34437815  0.66916948  0.68129439  1
  O2-  O549  1  0.35690717  0.91659178  0.01992169  1
  O2-  O550  1  0.33704450  0.92304448  0.34560622  1
  O2-  O551  1  0.33093813  0.91551984  0.68912634  1
  O2-  O552  1  0.58681452  0.17210752  0.02759801  1
  O2-  O553  1  0.58369651  0.16869054  0.34712896  1
  O2-  O554  1  0.56622296  0.15837968  0.69068291  1
  O2-  O555  1  0.58229845  0.40362530  0.02423073  1
  O2-  O556  1  0.58139414  0.38930861  0.35457599  1
  O2-  O557  1  0.57109756  0.40144957  0.68777738  1
  O2-  O558  1  0.58235624  0.65971947  0.01789487  1
  O2-  O559  1  0.58618166  0.68027619  0.35411404  1
  O2-  O560  1  0.58560047  0.65239093  0.68256637  1
  O2-  O561  1  0.58501800  0.91974220  0.02345632  1
  O2-  O562  1  0.58854240  0.93254210  0.35340099  1
  O2-  O563  1  0.58398492  0.91128754  0.69409473  1
  O2-  O564  1  0.83753838  0.16767241  0.01368088  1
  O2-  O565  1  0.83703237  0.17085789  0.36591683  1
  O2-  O566  1  0.82352162  0.15942740  0.65809302  1
  O2-  O567  1  0.82215913  0.41390807  0.01616524  1
  O2-  O568  1  0.83215390  0.41057013  0.35464695  1
  O2-  O569  1  0.82691282  0.41029010  0.69362136  1
  O2-  O570  1  0.82798113  0.66472326  0.03158081  1
  O2-  O571  1  0.83485700  0.67319064  0.35486264  1
  O2-  O572  1  0.83572873  0.67326589  0.68955788  1
  O2-  O573  1  0.84017140  0.91580577  0.02133618  1
  O2-  O574  1  0.83973145  0.91776558  0.36272658  1
  O2-  O575  1  0.83050669  0.89221903  0.71204348  1
