# generated using pymatgen
data_H2O
_symmetry_space_group_name_H-M   'P 1'
_cell_length_a   17.97699482
_cell_length_b   17.98449444
_cell_length_c   21.98369298
_cell_angle_alpha   89.90885087
_cell_angle_beta   90.03467010
_cell_angle_gamma   120.05814031
_symmetry_Int_Tables_number   1
_chemical_formula_structural   H2O
_chemical_formula_sum   'H384 O192'
_cell_volume   6151.64570011
_cell_formula_units_Z   192
loop_
 _symmetry_equiv_pos_site_id
 _symmetry_equiv_pos_as_xyz
  1  'x, y, z'
loop_
 _atom_type_symbol
 _atom_type_oxidation_number
  H+  1.0
  O2-  -2.0
loop_
 _atom_site_type_symbol
 _atom_site_label
 _atom_site_symmetry_multiplicity
 _atom_site_fract_x
 _atom_site_fract_y
 _atom_site_fract_z
 _atom_site_occupancy
  H+  H0  1  0.25791145  0.96895726  0.09825923  1
  H+  H1  1  0.51862744  0.63207186  0.67561613  1
  H+  H2  1  0.89804405  1.00121901  0.17865707  1
  H+  H3  1  0.09379162  0.70665780  0.81695746  1
  H+  H4  1  0.16552488  0.08126316  0.23830896  1
  H+  H5  1  0.75873723  0.46990805  0.56525391  1
  H+  H6  1  0.87817376  0.10628650  0.50699897  1
  H+  H7  1  0.46602714  0.60052789  0.50640644  1
  H+  H8  1  0.26806135  0.13854300  0.16158726  1
  H+  H9  1  0.38186401  0.02808071  0.66657067  1
  H+  H10  1  0.33477574  0.13177602  0.67402737  1
  H+  H11  1  0.22544848  0.12159988  -0.01346268  1
  H+  H12  1  0.39118930  0.27970381  0.50997057  1
  H+  H13  1  0.62685016  -0.02040804  0.49833224  1
  H+  H14  1  0.12749654  0.80214576  0.32454984  1
  H+  H15  1  0.34222076  0.69880764  0.36147745  1
  H+  H16  1  0.96641262  0.10017204  0.66490447  1
  H+  H17  1  0.91217318  0.58561877  0.27062890  1
  H+  H18  1  0.38143351  0.35893504  0.17111228  1
  H+  H19  1  0.39367841  0.76826830  0.50830249  1
  H+  H20  1  0.50318713  0.09139352  0.49232560  1
  H+  H21  1  0.15158160  0.52039309  0.82486843  1
  H+  H22  1  0.83308876  0.65982274  0.75601533  1
  H+  H23  1  0.72744139  0.37605611  0.99609042  1
  H+  H24  1  0.38027386  0.90317451  0.20846469  1
  H+  H25  1  0.08079638  0.10878809  0.68378432  1
  H+  H26  1  0.63793347  0.77700501  -0.01149334  1
  H+  H27  1  0.13734246  0.12299705  0.98894437  1
  H+  H28  1  0.10186643  0.85256716  0.84269505  1
  H+  H29  1  0.38895441  0.86900331  0.66179320  1
  H+  H30  1  0.78294806  0.64621334  0.16322890  1
  H+  H31  1  0.72236302  0.11337609  0.33052892  1
  H+  H32  1  0.24130773  0.17759046  0.83426704  1
  H+  H33  1  0.29517359  0.90723267  -0.00518277  1
  H+  H34  1  0.59198408  0.67944904  0.09351754  1
  H+  H35  1  0.36258054  0.72796613  0.66950157  1
  H+  H36  1  0.77055273  0.89590149  1.00388834  1
  H+  H37  1  0.61719244  0.43496021  0.16594044  1
  H+  H38  1  0.99706574  0.35484281  0.50759605  1
  H+  H39  1  -0.01763634  0.84247100  0.83330904  1
  H+  H40  1  0.27889062  0.88894813  0.68014689  1
  H+  H41  1  0.82512311  0.24621500  0.12455397  1
  H+  H42  1  0.67573401  0.25936120  0.46974052  1
  H+  H43  1  0.15821633  0.90251039  0.31715053  1
  H+  H44  1  0.71064225  0.10046994  -0.02439210  1
  H+  H45  1  0.91224038  0.58594748  0.89260640  1
  H+  H46  1  0.86898448  0.73011823  0.66206400  1
  H+  H47  1  0.12309341  0.87595466  0.68745409  1
  H+  H48  1  0.51120858  0.12110989  0.33647152  1
  H+  H49  1  0.48350805  0.86088874  0.50440944  1
  H+  H50  1  0.47609188  0.12156033  -0.00591073  1
  H+  H51  1  0.89385068  1.02528287  -0.02476247  1
  H+  H52  1  0.38010115  0.25578251  0.82382394  1
  H+  H53  1  0.36692859  0.47112111  0.15209405  1
  H+  H54  1  0.37511145  0.26675223  0.33099752  1
  H+  H55  1  0.86046600  0.12404089  0.88726635  1
  H+  H56  1  0.35761258  0.61688829  0.35744097  1
  H+  H57  1  0.81664023  0.39539346  0.27166413  1
  H+  H58  1  0.40797389  0.08128033  0.57262580  1
  H+  H59  1  0.59080782  0.91949906  0.09291242  1
  H+  H60  1  0.64772350  0.10272184  0.71637225  1
  H+  H61  1  0.86178645  0.62746956  0.81791107  1
  H+  H62  1  0.88126406  0.86358312  0.00592670  1
  H+  H63  1  0.14237809  0.26965272  -0.01713104  1
  H+  H64  1  0.27556363  0.38732136  -0.00251763  1
  H+  H65  1  0.88785586  0.14318590  0.13534989  1
  H+  H66  1  0.58007807  0.90384051  0.73478203  1
  H+  H67  1  0.22757392  0.10520656  0.34226888  1
  H+  H68  1  0.60807721  0.14706563  0.81946084  1
  H+  H69  1  0.07270595  0.70650791  0.40090284  1
  H+  H70  1  0.14657341  0.04573510  0.51210921  1
  H+  H71  1  0.64740983  0.54271132  0.66536447  1
  H+  H72  1  0.52111970  0.39656008  0.50295152  1
  H+  H73  1  0.83034783  0.93230020  0.40314330  1
  H+  H74  1  0.60225213  0.25585083  0.67346970  1
  H+  H75  1  0.11237598  0.89206046  0.15522600  1
  H+  H76  1  0.89406672  0.78328349  0.16508878  1
  H+  H77  1  0.11570920  0.00610710  0.66690271  1
  H+  H78  1  0.66841000  0.42509436  0.52833804  1
  H+  H79  1  0.47791757  0.86196663  0.84353764  1
  H+  H80  1  0.64720276  0.77910130  0.83624157  1
  H+  H81  1  0.83411240  0.21441098  -0.01650768  1
  H+  H82  1  0.63177990  0.86295362  0.98767405  1
  H+  H83  1  0.87949177  0.10127736  0.66648277  1
  H+  H84  1  0.62911302  0.10678466  0.32939719  1
  H+  H85  1  0.11804044  0.48029864  0.16515716  1
  H+  H86  1  0.85381658  0.96770788  0.66937536  1
  H+  H87  1  0.86594362  0.23644458  0.34862484  1
  H+  H88  1  0.46744558  0.35188181  0.17440151  1
  H+  H89  1  0.76382460  0.64527973  0.48655638  1
  H+  H90  1  0.61300788  0.97379774  0.82445111  1
  H+  H91  1  0.47098193  0.12079957  0.83991088  1
  H+  H92  1  0.78519825  0.89879393  0.16152391  1
  H+  H93  1  0.66790664  0.58254257  0.93596965  1
  H+  H94  1  0.63211685  0.54978199  0.16294641  1
  H+  H95  1  0.65988150  -0.00803190  0.65344533  1
  H+  H96  1  0.34911267  0.71693895  0.01246942  1
  H+  H97  1  0.85521874  0.47118174  0.31919592  1
  H+  H98  1  0.87290738  0.89133749  0.15595130  1
  H+  H99  1  0.65110196  0.78672541  0.16421069  1
  H+  H100  1  0.72279637  0.61173329  0.83909300  1
  H+  H101  1  0.55768089  0.12548983  0.39966918  1
  H+  H102  1  0.59933025  0.96911550  -0.00392904  1
  H+  H103  1  0.09106757  0.93440821  0.09722247  1
  H+  H104  1  0.86890663  0.60047352  0.32926169  1
  H+  H105  1  0.47172638  0.61308418  0.34019753  1
  H+  H106  1  0.69369631  0.30402928  0.48231742  1
  H+  H107  1  0.47761021  0.60865871  0.15958299  1
  H+  H108  1  0.62135944  0.88466322  0.49526800  1
  H+  H109  1  0.12777747  0.79074229  0.51469845  1
  H+  H110  1  0.77285949  0.38539790  0.15757604  1
  H+  H111  1  0.10031461  0.20765564  0.68902848  1
  H+  H112  1  0.86437414  0.72899530  1.01619022  1
  H+  H113  1  0.85012824  0.39845873  0.83095550  1
  H+  H114  1  0.65474523  0.87677413  0.16615857  1
  H+  H115  1  0.39031184  0.27752222  0.99350743  1
  H+  H116  1  0.21714259  0.34011442  0.67642787  1
  H+  H117  1  0.88081862  0.74681185  0.82075361  1
  H+  H118  1  0.87680887  0.91452049  0.34921004  1
  H+  H119  1  0.61181421  0.63843792  0.67337213  1
  H+  H120  1  0.27999860  0.14468915  0.50607224  1
  H+  H121  1  0.92604434  -0.00537765  0.82162368  1
  H+  H122  1  0.76678724  0.87469388  0.66611461  1
  H+  H123  1  0.51641074  0.89356473  0.36445894  1
  H+  H124  1  0.63713833  0.52392357  -0.00341145  1
  H+  H125  1  0.63199094  0.52334707  0.84248944  1
  H+  H126  1  0.94824297  0.85339566  0.39722701  1
  H+  H127  1  0.13421071  0.55740615  0.49285621  1
  H+  H128  1  0.48300448  0.62400594  0.84174346  1
  H+  H129  1  0.60593698  0.06869963  0.70291301  1
  H+  H130  1  0.61235853  0.98653763  0.34959186  1
  H+  H131  1  0.63050540  0.61989271  0.50626632  1
  H+  H132  1  0.12293361  0.23802455  0.33107391  1
  H+  H133  1  0.11280015  0.23125539  0.15733130  1
  H+  H134  1  0.38468531  0.52069928  0.34050058  1
  H+  H135  1  0.83823239  0.66688709  0.10213013  1
  H+  H136  1  0.18616144  0.26585325  0.84633914  1
  H+  H137  1  0.37745310  0.50942439  0.50853640  1
  H+  H138  1  0.95232947  0.06188542  0.91641183  1
  H+  H139  1  0.19421258  0.76515296  0.87700638  1
  H+  H140  1  0.02685498  0.62737715  0.01574847  1
  H+  H141  1  0.77713140  0.63728848  1.01022398  1
  H+  H142  1  0.35786126  -0.03638534  0.33945917  1
  H+  H143  1  0.33995376  0.88362524  0.22703562  1
  H+  H144  1  0.12535758  0.49615900  1.00439390  1
  H+  H145  1  0.38778751  0.61383635  -0.00346402  1
  H+  H146  1  -0.04978262  0.34690483  -0.01186413  1
  H+  H147  1  0.41123806  0.57403028  0.60467712  1
  H+  H148  1  0.07504606  0.16659615  0.06025050  1
  H+  H149  1  0.85608435  0.39545687  0.00340195  1
  H+  H150  1  0.12088469  0.66734706  0.49324927  1
  H+  H151  1  0.39148883  0.36694389  0.99248180  1
  H+  H152  1  0.13839343  0.52195097  0.65397161  1
  H+  H153  1  0.61531659  0.72195903  0.33662455  1
  H+  H154  1  0.63094981  0.76275850  0.65860700  1
  H+  H155  1  0.23201552  0.62798381  0.50668928  1
  H+  H156  1  0.08726678  0.89353226  0.78253005  1
  H+  H157  1  0.84631371  0.10183030  0.13088174  1
  H+  H158  1  0.36107028  0.13835244  1.00521846  1
  H+  H159  1  0.12974486  0.33774614  0.66323040  1
  H+  H160  1  0.82289450  0.69754509  0.32874150  1
  H+  H161  1  0.12858626  0.91200333  0.49626516  1
  H+  H162  1  0.84321161  0.50517435  0.64510595  1
  H+  H163  1  0.15736191  0.13934682  0.51628613  1
  H+  H164  1  0.22950685  0.36555990  0.16231204  1
  H+  H165  1  0.27405633  0.63806608  0.66967932  1
  H+  H166  1  0.22817594  0.60460408  0.19063325  1
  H+  H167  1  -0.02409973  0.60926892  0.18216483  1
  H+  H168  1  0.45928025  0.12620810  0.66405298  1
  H+  H169  1  0.35844872  0.62553501  0.50834513  1
  H+  H170  1  0.41698331  0.84059894  0.60054840  1
  H+  H171  1  0.61659000  0.64049410  0.82907823  1
  H+  H172  1  0.26536194  0.88223230  0.34149309  1
  H+  H173  1  0.72043073  0.11268359  0.83700264  1
  H+  H174  1  0.36524993  0.98254518  0.83376363  1
  H+  H175  1  0.24210918  0.85785067  0.84826969  1
  H+  H176  1  0.37785902  0.85515797  0.36485787  1
  H+  H177  1  0.62245340  0.65773670  0.15666161  1
  H+  H178  1  0.78381533  0.87951239  0.82076063  1
  H+  H179  1  0.35679284  0.26075461  0.65520108  1
  H+  H180  1  0.14432653  0.44197197  0.50313179  1
  H+  H181  1  0.52111130  0.87889558  0.67433891  1
  H+  H182  1  0.84552904  0.59115271  0.63119142  1
  H+  H183  1  0.70814539  0.35228094  0.33631026  1
  H+  H184  1  0.61553917  0.63878744  0.00210208  1
  H+  H185  1  0.35877900  0.38082243  0.33987894  1
  H+  H186  1  0.83270838  0.30285771  0.63331683  1
  H+  H187  1  0.61768947  0.09811369  0.17804721  1
  H+  H188  1  0.36228976  0.02168499  0.15391286  1
  H+  H189  1  1.07149635  0.96041571  0.34660462  1
  H+  H190  1  0.25701189  0.36502813  0.83905309  1
  H+  H191  1  0.11750681  0.35280210  0.47642346  1
  H+  H192  1  0.38888266  0.39195294  0.82988250  1
  H+  H193  1  0.85794552  0.48149653  0.16177142  1
  H+  H194  1  0.63434723  0.33441988  0.17103438  1
  H+  H195  1  0.35697489  0.22758256  0.16042318  1
  H+  H196  1  0.89729091  0.88031637  0.64548936  1
  H+  H197  1  0.37407803  1.01951453  0.51412893  1
  H+  H198  1  0.73986569  0.15601870  0.13980233  1
  H+  H199  1  0.62632855  0.41670728  0.68369361  1
  H+  H200  1  0.89070684  0.61764656  0.17629456  1
  H+  H201  1  0.73043656  0.86060237  0.32416072  1
  H+  H202  1  0.70077407  0.58978293  0.32267986  1
  H+  H203  1  0.51850338  0.39488806  0.83119533  1
  H+  H204  1  0.27272257  0.38565829  0.33668345  1
  H+  H205  1  0.36753401  0.35411750  0.65912420  1
  H+  H206  1  0.77200388  0.65055005  0.66462979  1
  H+  H207  1  0.86948104  0.22752330  0.49001327  1
  H+  H208  1  0.72832099  0.37742569  0.84420108  1
  H+  H209  1  0.92211251  0.37470753  0.50303642  1
  H+  H210  1  0.72314362  0.85865952  0.50508829  1
  H+  H211  1  0.13631063  0.02709432  0.17642253  1
  H+  H212  1  0.63240428  0.53235303  0.50762695  1
  H+  H213  1  0.11615879  0.64004924  0.66643549  1
  H+  H214  1  0.27582873  0.63988515  0.82311886  1
  H+  H215  1  0.46998372  0.80169633  0.23524643  1
  H+  H216  1  0.65267632  0.08122010  0.89076364  1
  H+  H217  1  0.87012321  0.51412142  0.83605067  1
  H+  H218  1  0.02169472  0.13619749  -0.00368085  1
  H+  H219  1  0.10303245  0.35553014  -0.01603406  1
  H+  H220  1  0.37832592  0.11515313  0.16703549  1
  H+  H221  1  0.85385808  -0.02210300  0.49647628  1
  H+  H222  1  0.37043318  0.14651309  0.35568218  1
  H+  H223  1  0.62024323  0.88799040  0.82770843  1
  H+  H224  1  0.50176488  0.84801397  0.17211459  1
  H+  H225  1  0.22565577  0.32940938  0.48919937  1
  H+  H226  1  0.60096216  0.72314346  0.49167349  1
  H+  H227  1  0.37860447  0.48076370  0.83048801  1
  H+  H228  1  0.38463804  0.61098816  0.66157886  1
  H+  H229  1  0.66226775  0.82645935  0.56481370  1
  H+  H230  1  0.61161472  0.38619422  0.00989819  1
  H+  H231  1  0.35248939  0.46938932  0.67967284  1
  H+  H232  1  0.37054236  0.71167359  0.16933407  1
  H+  H233  1  0.12011381  0.14760950  0.34151836  1
  H+  H234  1  0.62938318  0.10868219  -0.01401837  1
  H+  H235  1  0.14786995  0.37652077  0.31531878  1
  H+  H236  1  0.97298048  0.36293273  0.14375356  1
  H+  H237  1  0.14233021  0.78775761  1.00787666  1
  H+  H238  1  0.14319029  0.77142359  0.66459094  1
  H+  H239  1  0.03344192  0.87381260  0.68918253  1
  H+  H240  1  0.93421326  0.25695274  0.85833976  1
  H+  H241  1  0.63184033  0.85164665  0.65910605  1
  H+  H242  1  0.58577885  0.66912626  0.76885800  1
  H+  H243  1  0.21348946  0.86657955  0.15758053  1
  H+  H244  1  0.99159916  0.88137716  0.49315972  1
  H+  H245  1  0.05884032  0.37585206  0.81886849  1
  H+  H246  1  0.39235012  0.62086391  0.83945731  1
  H+  H247  1  0.00436257  0.61938237  0.81983793  1
  H+  H248  1  0.73281608  0.11043822  0.50276031  1
  H+  H249  1  0.09624260  0.41187296  0.72374001  1
  H+  H250  1  0.36010113  0.37726975  0.49592613  1
  H+  H251  1  0.13176511  0.59714252  0.82476269  1
  H+  H252  1  0.89415753  0.37106637  0.34217309  1
  H+  H253  1  0.11255213  0.71803765  0.17002819  1
  H+  H254  1  0.59189067  0.08927561  0.48972012  1
  H+  H255  1  0.64490433  0.25480232  0.17680387  1
  H+  H256  1  0.01044780  0.66585066  0.34349872  1
  H+  H257  1  0.59827325  0.37894438  0.35202293  1
  H+  H258  1  0.61408710  0.40029293  0.83364488  1
  H+  H259  1  0.11333971  0.62928995  0.17973292  1
  H+  H260  1  0.50876975  0.37860640  0.34556780  1
  H+  H261  1  0.91287731  0.13590884  0.82866520  1
  H+  H262  1  0.89636178  0.62323044  0.99307087  1
  H+  H263  1  0.64708775  0.24418027  1.01766477  1
  H+  H264  1  0.38533816  0.86701421  0.99796918  1
  H+  H265  1  0.32766872  0.04983154  0.30068143  1
  H+  H266  1  0.72199092  0.37164810  0.67579619  1
  H+  H267  1  0.99693535  0.10564203  0.18088301  1
  H+  H268  1  0.11924764  0.14537731  0.16066425  1
  H+  H269  1  0.36100893  0.15696669  0.82737824  1
  H+  H270  1  0.62101067  0.26332833  0.34709504  1
  H+  H271  1  0.38503092  0.59838611  0.16719697  1
  H+  H272  1  0.86734887  0.40590394  0.69162443  1
  H+  H273  1  0.35632913  0.88536371  0.49675565  1
  H+  H274  1  0.14668840  0.37794080  0.81138954  1
  H+  H275  1  0.40976788  0.82523864  0.42116912  1
  H+  H276  1  0.86446470  0.14801454  0.33567867  1
  H+  H277  1  0.67587593  0.36858807  0.61273193  1
  H+  H278  1  0.50514787  0.12120647  0.15878306  1
  H+  H279  1  0.51268707  0.87862703  0.00507195  1
  H+  H280  1  0.14365954  0.37207062  0.15904925  1
  H+  H281  1  0.61876969  0.97803320  0.15428598  1
  H+  H282  1  0.86131859  0.89268633  0.48738074  1
  H+  H283  1  0.02536143  0.64613767  0.49261652  1
  H+  H284  1  0.89231034  0.03825573  0.33327417  1
  H+  H285  1  0.41908832  0.58976674  0.93455981  1
  H+  H286  1  0.52582351  0.63909881  0.00251342  1
  H+  H287  1  0.02533837  0.38563497  0.67221786  1
  H+  H288  1  0.84491974  0.16526505  0.74732404  1
  H+  H289  1  0.90252615  0.07290212  0.56724905  1
  H+  H290  1  0.52198484  0.38666202  0.01032910  1
  H+  H291  1  0.33296284  0.40882329  0.09410132  1
  H+  H292  1  0.11838812  0.20771665  0.42946672  1
  H+  H293  1  0.33825523  0.67285736  0.76574763  1
  H+  H294  1  0.98358676  0.12715579  0.33059430  1
  H+  H295  1  0.79393468  0.73372751  0.91938083  1
  H+  H296  1  0.57973639  0.15726728  0.10670123  1
  H+  H297  1  0.65568714  0.58132669  0.23220435  1
  H+  H298  1  0.12158144  0.47368216  0.09585524  1
  H+  H299  1  0.57424334  0.66342152  0.43227647  1
  H+  H300  1  0.93414559  0.07436870  0.24617613  1
  H+  H301  1  0.83275075  0.89899157  0.75560711  1
  H+  H302  1  0.32502212  0.93814292  0.06698725  1
  H+  H303  1  0.16838715  0.84267003  0.22412562  1
  H+  H304  1  0.83337485  0.42919839  0.06482993  1
  H+  H305  1  0.07536534  0.66024066  0.72317414  1
  H+  H306  1  0.21427433  0.56488395  0.35110382  1
  H+  H307  1  0.37207945  0.89542523  0.83351702  1
  H+  H308  1  0.18022426  0.32774306  0.92097860  1
  H+  H309  1  0.22194421  0.87185728  0.51449424  1
  H+  H310  1  0.83337504  0.93340571  0.06176550  1
  H+  H311  1  1.00656096  0.31968489  0.90327241  1
  H+  H312  1  0.79587120  0.16275827  0.04250435  1
  H+  H313  1  0.42907964  0.34425819  0.89185297  1
  H+  H314  1  0.39233851  1.02496758  -0.00534563  1
  H+  H315  1  0.69127092  0.20358586  0.05994074  1
  H+  H316  1  0.92938789  0.84953000  0.54903682  1
  H+  H317  1  0.16653183  0.56236974  0.24941636  1
  H+  H318  1  0.40794343  0.82808063  0.93989506  1
  H+  H319  1  0.89120077  0.37329272  0.15290431  1
  H+  H320  1  0.57445929  0.18516712  0.76697801  1
  H+  H321  1  0.89008500  0.53266448  -0.00933173  1
  H+  H322  1  0.74683458  0.08236139  0.65906680  1
  H+  H323  1  0.57726252  0.39943822  0.09935167  1
  H+  H324  1  0.26662699  0.62139220  0.02242224  1
  H+  H325  1  0.13010125  0.06229635  0.60647235  1
  H+  H326  1  0.77766656  0.76324015  0.91098676  1
  H+  H327  1  0.02327052  0.12573000  0.76925608  1
  H+  H328  1  0.68549715  0.06586459  0.56532270  1
  H+  H329  1  0.67816330  0.83999269  0.89483632  1
  H+  H330  1  0.11632938  0.44171426  0.39608400  1
  H+  H331  1  0.88768017  0.84611757  0.82139816  1
  H+  H332  1  0.12230642  0.95935448  0.43548360  1
  H+  H333  1  0.80907463  0.65647757  0.39616981  1
  H+  H334  1  0.99481489  0.93470292  0.62698669  1
  H+  H335  1  0.66213963  0.07611598  0.23294913  1
  H+  H336  1  0.32737351  0.65668467  0.10951327  1
  H+  H337  1  0.31734908  0.17243633  0.73188781  1
  H+  H338  1  0.86413755  0.21947737  0.68534335  1
  H+  H339  1  0.85600329  0.73083237  0.47907605  1
  H+  H340  1  0.29834666  0.72503425  0.26986257  1
  H+  H341  1  0.16628384  0.58675227  0.59711655  1
  H+  H342  1  0.95030841  0.83404054  0.32833295  1
  H+  H343  1  0.67671354  0.83007429  0.26321993  1
  H+  H344  1  0.33274991  0.16752164  0.41508112  1
  H+  H345  1  0.66569740  0.33797955  0.93788715  1
  H+  H346  1  0.59175811  0.92622489  0.41913047  1
  H+  H347  1  0.98665811  0.37959179  0.34614944  1
  H+  H348  1  0.66796382  0.59603030  0.60067007  1
  H+  H349  1  0.90429077  0.33551232  0.92756265  1
  H+  H350  1  0.82510245  0.42717137  0.75027648  1
  H+  H351  1  0.98114822  0.87429006  0.16232422  1
  H+  H352  1  0.17044833  0.34086964  0.25550288  1
  H+  H353  1  0.40464331  0.32266430  0.26871601  1
  H+  H354  1  0.41401197  0.09040841  0.90010513  1
  H+  H355  1  0.59214761  0.16288346  0.67068235  1
  H+  H356  1  0.05445766  0.35948601  0.04247265  1
  H+  H357  1  0.61060393  0.50345440  0.32236609  1
  H+  H358  1  0.34026437  0.92123099  0.73856389  1
  H+  H359  1  0.36625515  0.13822751  0.50200795  1
  H+  H360  1  0.25796841  0.72611082  0.27625306  1
  H+  H361  1  0.32968642  0.65229047  0.44726288  1
  H+  H362  1  0.17149428  0.84172049  0.61031185  1
  H+  H363  1  0.60204274  0.62670533  0.33749347  1
  H+  H364  1  0.16667053  0.83459806  0.94427089  1
  H+  H365  1  0.32913182  0.40561111  0.43429119  1
  H+  H366  1  0.97270270  0.86936625  1.00829161  1
  H+  H367  1  0.32841962  0.16734445  0.06352791  1
  H+  H368  1  0.83458907  0.16887310  0.43031828  1
  H+  H369  1  0.17537780  0.14323397  0.88832146  1
  H+  H370  1  0.07694389  0.64876090  0.07957898  1
  H+  H371  1  0.39539642  0.06466030  0.25084743  1
  H+  H372  1  0.63748717  0.28713351  0.84426231  1
  H+  H373  1  0.36389972  0.47803540  0.00143290  1
  H+  H374  1  0.91306051  0.31925974  0.59676008  1
  H+  H375  1  0.32266699  0.91474334  0.43974699  1
  H+  H376  1  0.57611361  0.42307957  0.44157013  1
  H+  H377  1  0.11456593  0.90416767  0.00638577  1
  H+  H378  1  0.40567385  0.33315798  0.57196759  1
  H+  H379  1  0.59878092  0.44901192  0.74236003  1
  H+  H380  1  0.12477677  0.58034742  1.02872969  1
  H+  H381  1  0.11357355  -0.00691768  1.00108425  1
  H+  H382  1  0.38689400  0.77582104  0.83993499  1
  H+  H383  1  0.33556049  0.41500431  0.74085828  1
  O2-  O384  1  0.08283196  0.16883116  0.14534346  1
  O2-  O385  1  0.13069340  0.20753160  0.47405677  1
  O2-  O386  1  -0.00904993  0.11978120  0.80903646  1
  O2-  O387  1  0.09943835  0.43565659  0.13231864  1
  O2-  O388  1  0.10384319  0.40093305  0.47386691  1
  O2-  O389  1  0.11496853  0.40742765  0.79736083  1
  O2-  O390  1  0.08094697  0.65509534  0.16098854  1
  O2-  O391  1  0.08390134  0.69193599  0.48215872  1
  O2-  O392  1  0.06523326  0.64702015  0.80289649  1
  O2-  O393  1  0.08988841  0.93083367  0.14311050  1
  O2-  O394  1  0.10260377  0.94551046  0.47800790  1
  O2-  O395  1  0.07434364  0.88404121  0.82735222  1
  O2-  O396  1  0.32709350  0.16730951  0.14386845  1
  O2-  O397  1  0.33760734  0.17013792  0.48570903  1
  O2-  O398  1  0.33945939  0.19288087  0.80959866  1
  O2-  O399  1  0.33229301  0.40790332  0.13963437  1
  O2-  O400  1  0.32339393  0.40186308  0.47974699  1
  O2-  O401  1  0.35132780  0.42114127  0.81519615  1
  O2-  O402  1  0.32723532  0.65269064  0.15482444  1
  O2-  O403  1  0.33362117  0.66154953  0.49300088  1
  O2-  O404  1  0.33843619  0.67382969  0.81114515  1
  O2-  O405  1  0.29234677  0.94505345  0.11398198  1
  O2-  O406  1  0.32347203  0.91393856  0.48522307  1
  O2-  O407  1  0.33658774  0.92098827  0.81931850  1
  O2-  O408  1  0.56853015  0.14791369  0.15118647  1
  O2-  O409  1  0.54347332  0.08447769  0.46519499  1
  O2-  O410  1  0.57775530  0.17951427  0.81198416  1
  O2-  O411  1  0.57081152  0.38605212  0.14512685  1
  O2-  O412  1  0.58108903  0.43059223  0.48656611  1
  O2-  O413  1  0.58580015  0.43211981  0.81846054  1
  O2-  O414  1  0.59085136  0.68462428  0.13898768  1
  O2-  O415  1  0.56944835  0.66209841  0.47787788  1
  O2-  O416  1  0.58919221  0.67413687  0.81431012  1
  O2-  O417  1  0.59612024  0.91838851  0.13822234  1
  O2-  O418  1  0.59234343  0.91809360  0.48092579  1
  O2-  O419  1  0.58348040  0.91183590  0.81315856  1
  O2-  O420  1  0.77068927  0.19811945  0.10677019  1
  O2-  O421  1  0.83445844  0.16721195  0.47595344  1
  O2-  O422  1  0.86963224  0.15004215  0.84660739  1
  O2-  O423  1  0.83248025  0.42432817  0.14124415  1
  O2-  O424  1  0.92215971  0.46896553  0.46481402  1
  O2-  O425  1  0.82048465  0.42792800  0.81667014  1
  O2-  O426  1  0.84259155  0.67189850  0.14804292  1
  O2-  O427  1  0.81937747  0.67215709  0.46346343  1
  O2-  O428  1  0.83286745  0.66031256  0.80168405  1
  O2-  O429  1  0.84711407  0.93036335  0.14666048  1
  O2-  O430  1  0.82433847  0.91738515  0.47709928  1
  O2-  O431  1  0.84113981  0.89864659  0.80114887  1
  O2-  O432  1  0.16540241  0.08713154  0.19369252  1
  O2-  O433  1  0.17749443  0.10174839  0.53401227  1
  O2-  O434  1  0.18650080  0.17297951  0.84893859  1
  O2-  O435  1  0.16803810  0.33776269  0.17690557  1
  O2-  O436  1  0.16001190  0.29434006  0.49582434  1
  O2-  O437  1  0.19392671  0.32547187  0.85100726  1
  O2-  O438  1  0.16696707  0.57360913  0.20533270  1
  O2-  O439  1  0.16984807  0.60839078  0.51716400  1
  O2-  O440  1  0.17187566  0.57904444  0.84043193  1
  O2-  O441  1  0.15762982  0.82978140  0.17992646  1
  O2-  O442  1  0.16255674  0.85098538  0.53037579  1
  O2-  O443  1  0.18457424  0.81231783  0.86614372  1
  O2-  O444  1  0.40156042  0.07647775  0.17838161  1
  O2-  O445  1  0.40979843  0.08061114  0.52674157  1
  O2-  O446  1  0.41050757  0.08701326  0.85476059  1
  O2-  O447  1  0.40761520  0.32608022  0.19002771  1
  O2-  O448  1  0.41528828  0.33954336  0.52485148  1
  O2-  O449  1  0.43156404  0.34844210  0.84723805  1
  O2-  O450  1  0.41811379  0.56804369  0.17261243  1
  O2-  O451  1  0.40703427  0.56942166  0.52469237  1
  O2-  O452  1  0.42277857  0.59241447  0.85744291  1
  O2-  O453  1  0.44915090  0.80792178  0.19587040  1
  O2-  O454  1  0.42018015  0.83246741  0.51162707  1
  O2-  O455  1  0.41706948  0.83544592  0.85756738  1
  O2-  O456  1  0.65799847  0.07610924  0.18794398  1
  O2-  O457  1  0.67442015  0.07333446  0.52110066  1
  O2-  O458  1  0.65861004  0.08394444  0.84467971  1
  O2-  O459  1  0.67565790  0.31741379  0.18514193  1
  O2-  O460  1  0.70971914  0.41425692  0.55064602  1
  O2-  O461  1  0.66729746  0.34520638  0.86273346  1
  O2-  O462  1  0.66994350  0.59929581  0.18769479  1
  O2-  O463  1  0.66507738  0.59416044  0.52145705  1
  O2-  O464  1  0.66517688  0.58648741  0.85775529  1
  O2-  O465  1  0.68490798  0.84621407  0.18161140  1
  O2-  O466  1  0.66155889  0.82879933  0.51901954  1
  O2-  O467  1  0.68089476  0.84103365  0.84926945  1
  O2-  O468  1  0.94644959  0.05802610  0.20418269  1
  O2-  O469  1  0.90119679  0.06970385  0.52209885  1
  O2-  O470  1  0.98042831  0.04278222  0.83958999  1
  O2-  O471  1  0.91207066  0.33153815  0.15574133  1
  O2-  O472  1  0.93720210  0.33378360  0.52146897  1
  O2-  O473  1  0.97197771  0.31940455  0.86884147  1
  O2-  O474  1  0.91378751  0.58192508  0.19414115  1
  O2-  O475  1  0.92525017  0.53151457  0.49246837  1
  O2-  O476  1  0.90836201  0.58148948  0.84749256  1
  O2-  O477  1  0.92047792  0.84474043  0.17691629  1
  O2-  O478  1  0.92928674  0.84658336  0.50347427  1
  O2-  O479  1  0.91445537  0.81148632  0.83698354  1
  O2-  O480  1  0.16723289  0.07392300  0.32490167  1
  O2-  O481  1  0.09093722  0.03385095  0.64168596  1
  O2-  O482  1  0.16563301  0.09284348  0.97031058  1
  O2-  O483  1  0.17047041  0.33920048  0.30113947  1
  O2-  O484  1  0.15664380  0.30179195  0.66271184  1
  O2-  O485  1  0.17149764  0.33001225  0.96714953  1
  O2-  O486  1  0.15388973  0.53545759  0.33396875  1
  O2-  O487  1  0.16952043  0.58391244  0.64203555  1
  O2-  O488  1  0.15532608  0.54648956  1.03125276  1
  O2-  O489  1  0.17307959  0.85867156  0.30534044  1
  O2-  O490  1  0.17584619  0.83614743  0.65510847  1
  O2-  O491  1  0.16656878  0.84462726  0.98853698  1
  O2-  O492  1  0.38603229  0.05970670  0.29707643  1
  O2-  O493  1  0.40118935  0.08526642  0.64752252  1
  O2-  O494  1  0.41723786  0.08888760  0.97931550  1
  O2-  O495  1  0.40553203  0.32598865  0.31418598  1
  O2-  O496  1  0.39133621  0.32093371  0.63918273  1
  O2-  O497  1  0.42541314  0.33893199  0.98104470  1
  O2-  O498  1  0.40879529  0.58285853  0.33160997  1
  O2-  O499  1  0.41373380  0.57820228  0.64991713  1
  O2-  O500  1  0.41951972  0.58575750  0.98020124  1
  O2-  O501  1  0.41349987  0.82836871  0.37638499  1
  O2-  O502  1  0.41695946  0.83680551  0.64531911  1
  O2-  O503  1  0.40669887  0.82682663  0.98515755  1
  O2-  O504  1  0.66105673  0.07622772  0.31733962  1
  O2-  O505  1  0.70697636  0.03942787  0.62992269  1
  O2-  O506  1  0.64677757  0.07151110  0.96387961  1
  O2-  O507  1  0.64516435  0.32540123  0.33980310  1
  O2-  O508  1  0.66364615  0.34858976  0.65742357  1
  O2-  O509  1  0.66584876  0.33747496  0.98402226  1
  O2-  O510  1  0.64200320  0.56360190  0.30440182  1
  O2-  O511  1  0.67353502  0.60319698  0.64583306  1
  O2-  O512  1  0.66862443  0.58440694  0.98171697  1
  O2-  O513  1  0.67260890  0.82123494  0.30787758  1
  O2-  O514  1  0.66264536  0.82305536  0.64161254  1
  O2-  O515  1  0.66749153  0.83779449  0.97357933  1
  O2-  O516  1  0.92452465  0.09639526  0.31278196  1
  O2-  O517  1  0.90628458  0.07019111  0.64778986  1
  O2-  O518  1  0.93250202  0.07935180  0.95282506  1
  O2-  O519  1  0.92593490  0.34255340  0.35697433  1
  O2-  O520  1  0.89006074  0.31089690  0.63948811  1
  O2-  O521  1  0.89296075  0.33212853  0.97171888  1
  O2-  O522  1  0.90900262  0.58054226  0.31618154  1
  O2-  O523  1  0.84448044  0.54179288  0.61103557  1
  O2-  O524  1  0.92588858  0.59324514  0.97603889  1
  O2-  O525  1  0.96019341  0.87970623  0.35672561  1
  O2-  O526  1  0.94518326  0.87443694  0.62702759  1
  O2-  O527  1  0.91080141  0.83005573  1.00034902  1
  O2-  O528  1  0.08047295  0.16974779  0.01539096  1
  O2-  O529  1  0.09303714  0.18152517  0.35335892  1
  O2-  O530  1  0.05968091  0.14551884  0.70223834  1
  O2-  O531  1  0.05768287  0.37047921  -0.00126759  1
  O2-  O532  1  0.11317622  0.44335384  0.35066974  1
  O2-  O533  1  0.08738940  0.41521715  0.67864509  1
  O2-  O534  1  0.08477947  0.65032558  0.03460045  1
  O2-  O535  1  0.06295560  0.71771964  0.35846066  1
  O2-  O536  1  0.08829153  0.67315952  0.67923370  1
  O2-  O537  1  0.08565348  0.93520020  0.02182792  1
  O2-  O538  1  0.13500762  0.98686462  0.35119720  1
  O2-  O539  1  0.09097489  0.90249218  0.70752725  1
  O2-  O540  1  0.33064870  0.16940650  0.01821455  1
  O2-  O541  1  0.33004873  0.16509996  0.36818323  1
  O2-  O542  1  0.30372975  0.16102430  0.68765732  1
  O2-  O543  1  0.33456531  0.41677091  0.01540211  1
  O2-  O544  1  0.32973422  0.41133994  0.35713899  1
  O2-  O545  1  0.32300618  0.40990814  0.69581980  1
  O2-  O546  1  0.32962663  0.65841639  0.02911893  1
  O2-  O547  1  0.31689047  0.63861194  0.37464348  1
  O2-  O548  1  0.33443965  0.66803758  0.68535704  1
  O2-  O549  1  0.35085703  0.93488870  0.01600630  1
  O2-  O550  1  0.32379236  0.90805681  0.36122069  1
  O2-  O551  1  0.34081546  0.92146426  0.69313049  1
  O2-  O552  1  0.63719744  0.18976139  0.03800531  1
  O2-  O553  1  0.56795730  0.14617297  0.35545949  1
  O2-  O554  1  0.56445629  0.19273730  0.68798119  1
  O2-  O555  1  0.58241268  0.41637693  0.02784343  1
  O2-  O556  1  0.56876633  0.41346530  0.36081852  1
  O2-  O557  1  0.60715016  0.45693977  0.69733986  1
  O2-  O558  1  0.58738028  0.67179402  0.01615926  1
  O2-  O559  1  0.58036210  0.66315743  0.35534147  1
  O2-  O560  1  0.57936453  0.66610997  0.69052830  1
  O2-  O561  1  0.57581464  0.91112725  0.01514537  1
  O2-  O562  1  0.58138872  0.92663619  0.37001224  1
  O2-  O563  1  0.58085174  0.90095174  0.68935130  1
  O2-  O564  1  0.80574760  0.15465757  -0.00120853  1
  O2-  O565  1  0.82978515  0.17199062  0.35276566  1
  O2-  O566  1  0.83910330  0.16090941  0.70315233  1
  O2-  O567  1  0.83099021  0.43010526  0.01912420  1
  O2-  O568  1  0.82426988  0.40666165  0.31526985  1
  O2-  O569  1  0.82646108  0.42433868  0.70204060  1
  O2-  O570  1  0.83661048  0.66561027  0.02705655  1
  O2-  O571  1  0.80287052  0.64311211  0.34964688  1
  O2-  O572  1  0.83376589  0.67255089  0.67887707  1
  O2-  O573  1  0.83214362  0.92883502  0.01691107  1
  O2-  O574  1  0.83855418  0.93784774  0.35732948  1
  O2-  O575  1  0.82773189  0.90528673  0.68130378  1
