# generated using pymatgen
data_H2O
_symmetry_space_group_name_H-M   'P 1'
_cell_length_a   17.98418623
_cell_length_b   17.98898373
_cell_length_c   22.00290694
_cell_angle_alpha   90.00672163
_cell_angle_beta   89.98657203
_cell_angle_gamma   120.00687512
_symmetry_Int_Tables_number   1
_chemical_formula_structural   H2O
_chemical_formula_sum   'H384 O192'
_cell_volume   6164.21829956
_cell_formula_units_Z   192
loop_
 _symmetry_equiv_pos_site_id
 _symmetry_equiv_pos_as_xyz
  1  'x, y, z'
loop_
 _atom_type_symbol
 _atom_type_oxidation_number
  H+  1.0
  O2-  -2.0
loop_
 _atom_site_type_symbol
 _atom_site_label
 _atom_site_symmetry_multiplicity
 _atom_site_fract_x
 _atom_site_fract_y
 _atom_site_fract_z
 _atom_site_occupancy
  H+  H0  1  0.96311326  0.85047568  0.83519594  1
  H+  H1  1  0.63121271  0.36189482  -0.00489035  1
  H+  H2  1  0.68976286  0.71053566  0.44064025  1
  H+  H3  1  0.60739624  0.72022245  0.67444530  1
  H+  H4  1  0.47288283  0.11208483  0.34268361  1
  H+  H5  1  0.77471781  0.61971947  0.82554578  1
  H+  H6  1  0.62917017  0.87109453  0.98754563  1
  H+  H7  1  0.23777687  0.61565190  0.98912975  1
  H+  H8  1  0.14581923  0.85564102  0.13019195  1
  H+  H9  1  0.38041364  0.11894086  0.14805364  1
  H+  H10  1  0.87733446  0.36042817  0.83707207  1
  H+  H11  1  0.23415365  0.11895429  -0.00083226  1
  H+  H12  1  0.66533073  0.62188850  0.53305992  1
  H+  H13  1  0.36478140  0.49101313  1.01171200  1
  H+  H14  1  0.26551088  0.40306665  0.82919929  1
  H+  H15  1  0.13738564  1.03704088  0.30980882  1
  H+  H16  1  0.09334057  0.41595646  0.43533081  1
  H+  H17  1  0.01789863  0.38934709  0.82823742  1
  H+  H18  1  0.64116100  0.36248124  0.32863641  1
  H+  H19  1  0.85412934  0.88170339  0.31751083  1
  H+  H20  1  0.76955709  0.63004732  0.67926781  1
  H+  H21  1  0.74705735  0.59786543  0.19500422  1
  H+  H22  1  0.14708172  0.76015985  0.51356001  1
  H+  H23  1  0.64202613  0.35999383  0.50332377  1
  H+  H24  1  -0.11451534  0.54477898  0.16655499  1
  H+  H25  1  0.10841516  0.87363304  0.67413213  1
  H+  H26  1  0.37149916  0.88592403  0.99596165  1
  H+  H27  1  0.38833772  0.11073237  0.66021087  1
  H+  H28  1  0.83666739  0.91648548  0.57878831  1
  H+  H29  1  -0.02894074  0.60829805  0.65885644  1
  H+  H30  1  0.86249238  0.48165975  0.50489188  1
  H+  H31  1  0.85769014  0.22632192  0.32910847  1
  H+  H32  1  0.75876692  0.90237969  -0.03546983  1
  H+  H33  1  0.09595567  0.13040551  0.83230034  1
  H+  H34  1  -0.03218430  0.86252926  0.33264623  1
  H+  H35  1  0.62832576  0.27064278  0.98584882  1
  H+  H36  1  0.64243121  0.35436701  0.17308730  1
  H+  H37  1  0.63041288  0.26224571  0.65711844  1
  H+  H38  1  0.59979160  0.36737682  0.67019372  1
  H+  H39  1  0.17254379  0.58582506  0.89543047  1
  H+  H40  1  0.14904823  0.40164500  0.51640149  1
  H+  H41  1  -0.00794974  0.10144931  0.47257790  1
  H+  H42  1  0.78143118  0.39382301  0.32718335  1
  H+  H43  1  0.01000538  0.63782050  0.30554831  1
  H+  H44  1  0.83341230  0.16769921  0.73105177  1
  H+  H45  1  0.17383082  0.09830877  0.51627346  1
  H+  H46  1  0.39758488  0.11422348  0.50405688  1
  H+  H47  1  0.11935707  0.64107853  0.99521873  1
  H+  H48  1  0.13731899  0.40375198  0.33189802  1
  H+  H49  1  0.26915870  0.64766036  0.33886499  1
  H+  H50  1  0.37560857  0.61225000  0.50261888  1
  H+  H51  1  0.61217274  0.84973119  0.16366173  1
  H+  H52  1  0.04511961  0.01360748  0.88920076  1
  H+  H53  1  0.64393468  0.26939279  0.50283742  1
  H+  H54  1  0.24088484  0.09139988  0.15438813  1
  H+  H55  1  0.53888098  0.40596901  0.34223828  1
  H+  H56  1  0.82753160  0.91525886  0.22644439  1
  H+  H57  1  0.90226466  0.74255729  0.17239365  1
  H+  H58  1  0.63376298  0.27035920  0.33193503  1
  H+  H59  1  0.27294162  0.42800953  0.21680659  1
  H+  H60  1  0.58145622  0.90766186  0.76343716  1
  H+  H61  1  0.88088303  0.11943715  0.32311366  1
  H+  H62  1  0.86900725  0.97739643  0.66367920  1
  H+  H63  1  0.47607522  0.10795200  0.65954273  1
  H+  H64  1  0.22228025  0.85547329  0.66679014  1
  H+  H65  1  0.91114405  0.33501614  0.89663104  1
  H+  H66  1  0.28297583  0.88675870  0.99937689  1
  H+  H67  1  0.84616975  0.90254616  -0.04631139  1
  H+  H68  1  0.35784995  0.97174320  0.66664555  1
  H+  H69  1  0.11620029  0.76868612  0.34435335  1
  H+  H70  1  0.71499685  0.86508116  0.30861574  1
  H+  H71  1  0.35595915  0.22141837  0.67417700  1
  H+  H72  1  0.41201051  0.91093382  0.81528013  1
  H+  H73  1  0.27836054  0.88254800  0.50124365  1
  H+  H74  1  0.12795257  0.34779843  1.00394184  1
  H+  H75  1  0.11403445  0.19832633  0.17085918  1
  H+  H76  1  0.46675154  0.43131113  0.22960433  1
  H+  H77  1  0.37412399  0.49196016  0.15545001  1
  H+  H78  1  0.12307222  0.63010309  0.14693898  1
  H+  H79  1  0.27178730  0.63455199  0.82486576  1
  H+  H80  1  0.11286329  0.13207774  0.67585240  1
  H+  H81  1  0.86673207  0.67332346  0.07594211  1
  H+  H82  1  0.47153076  0.60943730  0.66019630  1
  H+  H83  1  0.85740165  0.97394369  0.31290790  1
  H+  H84  1  0.40243295  0.28430683  0.50328303  1
  H+  H85  1  0.36678789  0.97462206  0.49767610  1
  H+  H86  1  0.86290064  0.13832183  0.67165221  1
  H+  H87  1  0.52830061  0.39075287  0.49764006  1
  H+  H88  1  0.42907010  0.37587900  0.85160620  1
  H+  H89  1  0.11230813  0.90119232  0.34289179  1
  H+  H90  1  0.85621223  0.03171042  0.88257815  1
  H+  H91  1  0.86777384  0.38878684  0.50586460  1
  H+  H92  1  0.12304880  0.23607300  0.00075235  1
  H+  H93  1  0.78083253  0.14390211  0.82957311  1
  H+  H94  1  0.60271126  0.13483667  0.33977593  1
  H+  H95  1  0.60943273  0.87049993  0.81961765  1
  H+  H96  1  0.39084089  0.36690239  0.50947167  1
  H+  H97  1  0.14083623  0.53319162  0.32642661  1
  H+  H98  1  0.01664362  0.62835909  0.49154862  1
  H+  H99  1  0.64371642  0.77122773  0.51405548  1
  H+  H100  1  0.57531608  0.16267271  0.09824518  1
  H+  H101  1  0.85753204  0.46222876  1.00676339  1
  H+  H102  1  0.89694214  0.87274271  0.16998580  1
  H+  H103  1  0.09464668  0.12909814  0.31815328  1
  H+  H104  1  0.88158167  0.76554582  0.65893763  1
  H+  H105  1  0.49431487  0.61748849  0.16179754  1
  H+  H106  1  0.44307868  0.41446319  0.87187334  1
  H+  H107  1  0.12605210  0.36267249  0.84518070  1
  H+  H108  1  0.52609349  0.39061877  1.01593134  1
  H+  H109  1  0.86096035  0.15585581  0.16291781  1
  H+  H110  1  0.72136719  0.84893916  0.83727712  1
  H+  H111  1  0.98276105  0.87770515  0.14538213  1
  H+  H112  1  0.33951184  0.20261271  0.83389335  1
  H+  H113  1  0.42269460  1.03393601  0.83102719  1
  H+  H114  1  0.37583876  0.52512474  0.83205627  1
  H+  H115  1  0.73831682  0.60638433  0.50973034  1
  H+  H116  1  0.38398889  0.77183550  0.66164701  1
  H+  H117  1  0.83590836  0.66417866  0.73393762  1
  H+  H118  1  0.61166022  0.13733714  1.00099653  1
  H+  H119  1  0.38172841  0.37210780  1.00805856  1
  H+  H120  1  0.13021233  1.00528217  0.67466834  1
  H+  H121  1  0.86814780  0.39752945  0.31291477  1
  H+  H122  1  0.12702353  0.27503379  0.45591011  1
  H+  H123  1  0.96406170  0.12260374  0.16982037  1
  H+  H124  1  0.86173674  0.72263272  0.48484415  1
  H+  H125  1  0.85640199  0.71576493  0.82891531  1
  H+  H126  1  0.26786907  0.63268812  0.67227641  1
  H+  H127  1  0.88719480  0.77820477  0.35855727  1
  H+  H128  1  0.10751221  0.71691822  0.67664720  1
  H+  H129  1  0.13203409  0.60720721  0.50466004  1
  H+  H130  1  0.35313900  0.17931477  0.76512779  1
  H+  H131  1  0.08148276  0.70353377  0.83725916  1
  H+  H132  1  0.13239234  0.61742062  0.31340182  1
  H+  H133  1  0.53432079  0.39413045  0.16576337  1
  H+  H134  1  0.38286585  0.89730840  0.14734176  1
  H+  H135  1  0.11039273  0.25772483  0.48710716  1
  H+  H136  1  0.72365432  0.11220724  0.65356186  1
  H+  H137  1  0.29997850  0.16699157  0.47516911  1
  H+  H138  1  0.57334060  0.67703745  0.38035274  1
  H+  H139  1  0.56342421  0.91046760  0.06460089  1
  H+  H140  1  0.76721595  0.14277946  0.49086079  1
  H+  H141  1  0.76702652  0.38248723  0.50466918  1
  H+  H142  1  0.71754655  0.11556228  0.31844373  1
  H+  H143  1  0.23572766  0.85850693  0.14265321  1
  H+  H144  1  0.38490893  0.76400760  0.98728753  1
  H+  H145  1  0.37907420  0.35901544  0.66332727  1
  H+  H146  1  0.47798627  0.27226266  0.80307285  1
  H+  H147  1  0.04057509  0.88361484  1.01940246  1
  H+  H148  1  0.60852034  0.62283829  0.45478752  1
  H+  H149  1  0.62684065  0.86909500  0.31677632  1
  H+  H150  1  0.87581041  0.85194996  0.83733399  1
  H+  H151  1  0.46517414  0.61521559  0.50449790  1
  H+  H152  1  0.76725158  0.89167916  0.17017374  1
  H+  H153  1  0.12561976  0.80918825  0.91538871  1
  H+  H154  1  0.53914382  0.14165341  0.82885640  1
  H+  H155  1  0.35735346  0.63315557  0.67202548  1
  H+  H156  1  0.25481058  0.87960221  0.83749920  1
  H+  H157  1  0.96756658  0.36421848  0.98969123  1
  H+  H158  1  0.32689918  0.66613254  0.43316427  1
  H+  H159  1  0.35279674  0.96719960  0.34748085  1
  H+  H160  1  0.33143898  0.66693718  0.05702113  1
  H+  H161  1  0.16079937  0.57786782  0.60233691  1
  H+  H162  1  0.70490138  0.10901437  0.16856961  1
  H+  H163  1  0.57275709  -0.03906207  0.16455340  1
  H+  H164  1  0.62021894  0.47585959  0.49907774  1
  H+  H165  1  0.77137816  0.88735739  0.52570436  1
  H+  H166  1  0.13736378  0.52383588  0.83725234  1
  H+  H167  1  0.38752793  0.02374963  0.98947966  1
  H+  H168  1  0.09524593  0.69535119  0.26591646  1
  H+  H169  1  0.27675357  0.39192786  0.01197483  1
  H+  H170  1  -0.00186942  0.12797801  0.32251374  1
  H+  H171  1  0.36052730  0.62109420  0.00339001  1
  H+  H172  1  0.60081859  0.86112684  0.48912401  1
  H+  H173  1  0.14172066  0.99546404  0.54038375  1
  H+  H174  1  0.61334545  -0.02262057  0.66380360  1
  H+  H175  1  0.13117269  0.27633581  0.84309807  1
  H+  H176  1  0.62986370  0.63392594  0.17277439  1
  H+  H177  1  0.96522468  0.59173587  0.83905905  1
  H+  H178  1  0.64589378  0.62623697  0.33293276  1
  H+  H179  1  0.73768340  0.63835976  1.01436632  1
  H+  H180  1  0.22285098  0.61041910  0.50553835  1
  H+  H181  1  0.38380137  0.74158430  0.14842195  1
  H+  H182  1  0.88959741  0.85261470  0.50981382  1
  H+  H183  1  0.01811157  0.83947040  0.47782105  1
  H+  H184  1  0.86787812  0.14608831  0.01192953  1
  H+  H185  1  0.88858716  0.53186234  0.31091782  1
  H+  H186  1  0.08328710  0.86026116  0.83589414  1
  H+  H187  1  0.55047686  0.34795488  0.75218914  1
  H+  H188  1  0.36225889  0.47600185  0.49036875  1
  H+  H189  1  0.38251537  0.62346569  0.83211117  1
  H+  H190  1  0.08221866  0.16613398  0.73184615  1
  H+  H191  1  0.47718904  0.61911460  0.83306609  1
  H+  H192  1  0.64861906  0.04644408  0.50279863  1
  H+  H193  1  0.11410045  0.48143096  0.49186493  1
  H+  H194  1  0.14183725  0.77252121  0.99998274  1
  H+  H195  1  0.89585166  0.60394771  0.26349287  1
  H+  H196  1  0.35853966  0.64880090  0.33455106  1
  H+  H197  1  0.24950362  0.91810983  0.83298724  1
  H+  H198  1  0.04332893  0.38818833  0.33929971  1
  H+  H199  1  0.09176981  0.12764934  0.46950621  1
  H+  H200  1  0.12566971  -0.02368115  0.12220534  1
  H+  H201  1  0.37968415  0.65138649  0.14587352  1
  H+  H202  1  0.61212781  0.12969930  0.66704829  1
  H+  H203  1  0.40169990  0.25750942  0.31879701  1
  H+  H204  1  0.87027816  0.62711138  0.01517562  1
  H+  H205  1  0.87190897  0.23074329  0.82409520  1
  H+  H206  1  0.27075215  0.12850312  0.68251023  1
  H+  H207  1  0.87504803  0.35888588  0.99023970  1
  H+  H208  1  0.86739664  0.88489656  0.66307293  1
  H+  H209  1  0.87578572  0.03018914  0.17795255  1
  H+  H210  1  0.46722617  0.84773622  0.50417634  1
  H+  H211  1  0.40800783  0.11628453  0.83693330  1
  H+  H212  1  0.17406944  0.58229411  0.22659678  1
  H+  H213  1  0.85348978  0.47062727  0.66966264  1
  H+  H214  1  0.36256700  0.22747656  0.00654548  1
  H+  H215  1  0.65596875  0.12301767  0.84334375  1
  H+  H216  1  0.93726589  0.81508537  0.93655313  1
  H+  H217  1  0.87413249  0.11266273  0.83867610  1
  H+  H218  1  0.42080118  0.08393959  0.93075948  1
  H+  H219  1  0.76734705  0.37633759  -0.00047633  1
  H+  H220  1  0.63281365  1.02219158  -0.00293156  1
  H+  H221  1  0.35924209  0.47463592  0.67249696  1
  H+  H222  1  0.88336571  0.61147099  0.65905867  1
  H+  H223  1  0.97746487  0.36912370  0.50739660  1
  H+  H224  1  0.71832386  0.85901639  0.66044645  1
  H+  H225  1  0.38428586  0.85952054  0.50784526  1
  H+  H226  1  0.92020347  0.09295570  0.59753496  1
  H+  H227  1  0.16235220  0.06351945  0.20007869  1
  H+  H228  1  0.35545860  0.72285128  0.49468040  1
  H+  H229  1  0.91055911  0.56978244  0.93673281  1
  H+  H230  1  0.88365104  0.27181448  0.65956888  1
  H+  H231  1  0.86028481  0.22989724  0.00519228  1
  H+  H232  1  0.86063333  0.97038520  0.81201918  1
  H+  H233  1  0.47047524  0.87400314  0.32413099  1
  H+  H234  1  0.65016129  0.54010635  0.34371426  1
  H+  H235  1  0.10811459  0.47094041  0.67387550  1
  H+  H236  1  0.12707912  0.35868506  0.66663310  1
  H+  H237  1  0.36779614  0.17229471  0.42661596  1
  H+  H238  1  0.10724428  0.63002870  0.82903700  1
  H+  H239  1  0.12273595  0.71995891  0.13876138  1
  H+  H240  1  0.89608671  1.03910764  -0.01931409  1
  H+  H241  1  0.92349716  0.75463380  0.99435522  1
  H+  H242  1  0.72379677  0.11047228  1.00071162  1
  H+  H243  1  0.48498477  0.85700709  0.83641458  1
  H+  H244  1  1.03087419  0.13599330  1.00326724  1
  H+  H245  1  0.76484400  0.38069129  0.66902218  1
  H+  H246  1  0.86095722  0.22894934  0.48772792  1
  H+  H247  1  0.38974014  0.77491196  0.83611940  1
  H+  H248  1  0.88169396  0.60122075  0.83942546  1
  H+  H249  1  0.13016885  0.60573670  0.66235032  1
  H+  H250  1  0.60606673  0.71524940  0.82968383  1
  H+  H251  1  0.14615790  0.45021971  0.06602803  1
  H+  H252  1  -0.02336200  0.60338500  -0.00763394  1
  H+  H253  1  0.84916794  0.46682554  0.82595902  1
  H+  H254  1  0.62199916  0.71815403  0.16118326  1
  H+  H255  1  0.35845359  0.88301744  0.66803250  1
  H+  H256  1  0.87567865  1.02838516  0.51706406  1
  H+  H257  1  0.71855376  0.38328370  0.84217589  1
  H+  H258  1  0.87906187  0.11857083  0.50087993  1
  H+  H259  1  0.63414041  0.14398957  0.49790179  1
  H+  H260  1  0.60637296  0.62977535  0.67767148  1
  H+  H261  1  0.88181830  0.36024808  0.65981289  1
  H+  H262  1  0.54021281  0.14234994  0.49676711  1
  H+  H263  1  0.39112306  0.38990573  0.18306158  1
  H+  H264  1  0.14291140  0.52999435  0.98813524  1
  H+  H265  1  0.62628301  0.47778834  0.16958489  1
  H+  H266  1  0.94662804  0.34460908  0.24721967  1
  H+  H267  1  0.45872698  0.61111329  0.31139006  1
  H+  H268  1  0.20426560  0.85233406  0.36389877  1
  H+  H269  1  0.01342050  0.13730339  0.82472646  1
  H+  H270  1  0.62880849  0.50974506  0.67793711  1
  H+  H271  1  0.59996948  -0.01698998  0.32672535  1
  H+  H272  1  0.37881929  0.77362504  0.33604292  1
  H+  H273  1  0.33543701  0.33045719  0.34581142  1
  H+  H274  1  0.51024268  0.36967372  0.67322366  1
  H+  H275  1  0.97847796  0.11486987  0.65736832  1
  H+  H276  1  0.23795012  0.36685686  0.31915346  1
  H+  H277  1  0.77760448  0.64139158  0.38524896  1
  H+  H278  1  0.24363655  0.39770411  0.51973322  1
  H+  H279  1  0.59803247  0.57262424  0.82260049  1
  H+  H280  1  0.10052657  -0.00636314  0.52957075  1
  H+  H281  1  0.60388034  0.21700870  0.15916262  1
  H+  H282  1  0.22971307  0.60387154  0.16689650  1
  H+  H283  1  0.51453221  0.64853920  1.00805607  1
  H+  H284  1  0.60099215  0.73042706  0.32045189  1
  H+  H285  1  0.52310520  0.88857669  0.66779042  1
  H+  H286  1  0.37298609  0.86679333  0.33510980  1
  H+  H287  1  0.21336218  0.13379512  0.29635736  1
  H+  H288  1  0.93375679  0.29717127  0.14349618  1
  H+  H289  1  0.62767433  0.22945725  0.82620793  1
  H+  H290  1  0.65008236  0.08432194  0.26244609  1
  H+  H291  1  0.07353865  0.89806976  0.73385408  1
  H+  H292  1  0.90055243  0.91793806  0.05883039  1
  H+  H293  1  0.20873490  0.19317854  0.53771506  1
  H+  H294  1  0.65084597  0.55302808  1.00559879  1
  H+  H295  1  0.58949557  0.33703734  0.82434205  1
  H+  H296  1  0.51398378  0.88361930  1.00188206  1
  H+  H297  1  -0.02222561  0.57193308  0.14653843  1
  H+  H298  1  0.40620457  0.57219694  0.94717299  1
  H+  H299  1  0.58928236  0.42300191  0.40495612  1
  H+  H300  1  0.38145839  0.30114158  0.26370388  1
  H+  H301  1  0.32158475  0.39898494  0.44059806  1
  H+  H302  1  0.08569022  0.94477895  0.39107225  1
  H+  H303  1  0.81555219  0.40733181  0.76640112  1
  H+  H304  1  0.15468185  0.32578420  0.93719724  1
  H+  H305  1  0.07599036  0.65875845  0.43283919  1
  H+  H306  1  0.91847176  0.33690838  0.56791935  1
  H+  H307  1  0.42625474  0.60494336  0.21297957  1
  H+  H308  1  0.58593455  0.16726785  0.40393573  1
  H+  H309  1  0.46541888  0.93626778  0.23516698  1
  H+  H310  1  0.26926647  0.38648915  0.67531324  1
  H+  H311  1  0.32343945  0.42800171  0.76781922  1
  H+  H312  1  0.14320560  0.03087164  1.01085049  1
  H+  H313  1  0.52157588  0.13636154  0.99973877  1
  H+  H314  1  0.53242553  0.81175821  0.43929638  1
  H+  H315  1  0.16444877  0.82080899  0.60738630  1
  H+  H316  1  0.05084649  0.38245815  0.07651546  1
  H+  H317  1  0.34857640  0.15642862  0.09620538  1
  H+  H318  1  0.64692897  0.83018529  0.22351049  1
  H+  H319  1  0.08193750  0.17773218  0.10366173  1
  H+  H320  1  0.34988688  0.92339191  0.08959147  1
  H+  H321  1  0.68391945  0.09494708  0.90423259  1
  H+  H322  1  0.65312241  0.82523190  0.57520871  1
  H+  H323  1  0.07854627  0.41411998  0.76961777  1
  H+  H324  1  0.65996519  0.35458411  0.90575946  1
  H+  H325  1  0.60849329  0.66009719  0.01473933  1
  H+  H326  1  0.06801858  0.44569133  0.18634354  1
  H+  H327  1  0.67277993  0.48344262  0.85856294  1
  H+  H328  1  0.09758897  0.95569445  0.82975686  1
  H+  H329  1  0.42028327  0.08165112  0.56488818  1
  H+  H330  1  0.37697815  0.93886808  0.75723022  1
  H+  H331  1  0.20225616  0.85698126  0.25536517  1
  H+  H332  1  0.12729976  0.13617676  0.00705788  1
  H+  H333  1  0.07303342  0.65461959  0.73425837  1
  H+  H334  1  0.87840390  0.94217822  0.06807572  1
  H+  H335  1  0.90930427  0.09555043  0.25861980  1
  H+  H336  1  0.41027948  0.33025529  0.60338198  1
  H+  H337  1  0.83352481  0.18435766  0.10319223  1
  H+  H338  1  0.15080316  0.86556049  1.00818616  1
  H+  H339  1  0.66549947  0.32050342  0.23168784  1
  H+  H340  1  0.68173167  0.58247096  0.24752563  1
  H+  H341  1  0.17785127  0.36639015  0.58399602  1
  H+  H342  1  0.83006305  0.17334761  0.39296954  1
  H+  H343  1  0.85426529  0.89223297  0.42321279  1
  H+  H344  1  0.84769489  0.29051741  0.24336611  1
  H+  H345  1  0.91339027  0.58667131  0.56581903  1
  H+  H346  1  0.61488038  0.10725862  0.16774377  1
  H+  H347  1  0.58820607  0.16136662  0.72884544  1
  H+  H348  1  0.91644645  0.81379986  0.56288525  1
  H+  H349  1  0.33230265  0.91074883  0.40761434  1
  H+  H350  1  0.41096765  0.58085450  0.60112406  1
  H+  H351  1  0.33005005  0.66437661  0.76382358  1
  H+  H352  1  0.93967249  0.11481342  0.93572571  1
  H+  H353  1  0.62954230  0.86160227  0.66243319  1
  H+  H354  1  0.01771173  0.38263459  0.67406773  1
  H+  H355  1  0.08571725  0.83551437  0.43026909  1
  H+  H356  1  0.97293573  0.85222669  0.65765592  1
  H+  H357  1  0.32772845  0.41870694  0.10666660  1
  H+  H358  1  0.41799799  0.35002624  0.94923833  1
  H+  H359  1  0.13265006  0.27114667  0.65845438  1
  H+  H360  1  0.66462441  0.56263563  0.61718548  1
  H+  H361  1  0.13828093  0.06591285  0.91360195  1
  H+  H362  1  0.41854206  0.82679918  0.92863972  1
  H+  H363  1  0.67109293  0.09093822  0.59025179  1
  H+  H364  1  0.36338420  0.13736070  -0.00149804  1
  H+  H365  1  0.59203921  0.42002238  0.07044532  1
  H+  H366  1  0.08706438  0.65963623  0.05796597  1
  H+  H367  1  0.82891336  0.90729157  0.75591095  1
  H+  H368  1  0.81207179  0.85091609  0.42445600  1
  H+  H369  1  0.05246699  0.13123314  0.38688710  1
  H+  H370  1  0.17900758  0.88157374  0.25265413  1
  H+  H371  1  0.57160962  0.66101962  0.76755553  1
  H+  H372  1  0.57821409  0.92400230  0.38622174  1
  H+  H373  1  0.36044891  0.53977569  0.28944028  1
  H+  H374  1  0.14039369  0.84334843  0.51111287  1
  H+  H375  1  0.62667356  0.78011395  0.98910205  1
  H+  H376  1  0.34108246  0.12834888  0.31538230  1
  H+  H377  1  0.37250268  0.42955366  0.34823774  1
  H+  H378  1  0.65923525  0.82653319  0.89589692  1
  H+  H379  1  0.88513104  0.61081946  0.50134268  1
  H+  H380  1  0.16386603  0.05993985  0.61597101  1
  H+  H381  1  0.66052826  0.32417218  0.59830250  1
  H+  H382  1  0.41264911  0.82790451  0.60093879  1
  H+  H383  1  0.02909695  0.77363481  0.90781094  1
  O2-  O384  1  0.06708147  0.18935326  0.14415061  1
  O2-  O385  1  0.03723991  0.09857269  0.44706854  1
  O2-  O386  1  0.07441134  0.16576099  0.81258164  1
  O2-  O387  1  0.03061191  0.38289758  0.19267110  1
  O2-  O388  1  0.08873160  0.41853647  0.48058352  1
  O2-  O389  1  0.07965659  0.41630375  0.81498431  1
  O2-  O390  1  0.09132426  0.65653815  0.12875148  1
  O2-  O391  1  0.07770577  0.65579153  0.47707427  1
  O2-  O392  1  0.06867016  0.65122331  0.81368792  1
  O2-  O393  1  0.08699390  0.91537357  0.10348920  1
  O2-  O394  1  0.07885182  0.86643571  0.46532797  1
  O2-  O395  1  0.06917378  0.89843627  0.81059021  1
  O2-  O396  1  0.34717835  0.14744830  0.14090453  1
  O2-  O397  1  0.36118810  0.18473097  0.46940754  1
  O2-  O398  1  0.37859823  0.19469226  0.80767449  1
  O2-  O399  1  0.33553444  0.42752555  0.15196423  1
  O2-  O400  1  0.32754723  0.41219430  0.48506214  1
  O2-  O401  1  0.32410826  0.43919199  0.81230351  1
  O2-  O402  1  0.34556738  0.68010728  0.13734241  1
  O2-  O403  1  0.32658855  0.66201421  0.47875475  1
  O2-  O404  1  0.33286253  0.66397564  0.80952608  1
  O2-  O405  1  0.34383511  0.91836763  0.13448601  1
  O2-  O406  1  0.33752656  0.91320020  0.48352151  1
  O2-  O407  1  0.41579729  0.96084597  0.79277387  1
  O2-  O408  1  0.57035120  0.15685141  0.14288316  1
  O2-  O409  1  0.59972182  0.17567209  0.48113681  1
  O2-  O410  1  0.59813011  0.17154208  0.80946004  1
  O2-  O411  1  0.59315942  0.41999744  0.14977370  1
  O2-  O412  1  0.58803609  0.41768432  0.48075353  1
  O2-  O413  1  0.67806714  0.54109943  0.85530615  1
  O2-  O414  1  0.59279967  0.65517318  0.15627975  1
  O2-  O415  1  0.63330613  0.68478574  0.46025851  1
  O2-  O416  1  0.56804572  0.65536733  0.81290001  1
  O2-  O417  1  0.54500866  0.90122148  0.14719885  1
  O2-  O418  1  0.55793371  0.86538710  0.46216509  1
  O2-  O419  1  0.57713512  0.89952987  0.80796919  1
  O2-  O420  1  0.84230979  0.19619724  0.14772524  1
  O2-  O421  1  0.82965012  0.16970450  0.47194159  1
  O2-  O422  1  0.84128838  0.16976229  0.81007002  1
  O2-  O423  1  0.92294485  0.52089434  0.15738767  1
  O2-  O424  1  0.83270251  0.41784620  0.49356261  1
  O2-  O425  1  0.81284455  0.40551079  0.81170559  1
  O2-  O426  1  0.89867508  0.68909400  0.15497938  1
  O2-  O427  1  0.82987111  0.66069573  0.46869221  1
  O2-  O428  1  0.83469868  0.65765739  0.81058043  1
  O2-  O429  1  0.82926631  0.92306474  0.18120662  1
  O2-  O430  1  0.83432031  0.91856704  0.53429029  1
  O2-  O431  1  0.83086083  0.90894721  0.80103861  1
  O2-  O432  1  0.17648740  0.06219323  0.15709993  1
  O2-  O433  1  0.20022013  0.15807538  0.50165253  1
  O2-  O434  1  0.10420468  0.04848940  0.87493680  1
  O2-  O435  1  0.26598816  0.45121216  0.25645803  1
  O2-  O436  1  0.19695925  0.40154930  0.54366377  1
  O2-  O437  1  0.15816202  0.33440760  0.86172824  1
  O2-  O438  1  0.16974977  0.57226844  0.18205060  1
  O2-  O439  1  0.16229729  0.57754988  0.52093354  1
  O2-  O440  1  0.16982906  0.58558435  0.84968256  1
  O2-  O441  1  0.17156925  0.82246700  0.14553123  1
  O2-  O442  1  0.17509871  0.81947949  0.52989250  1
  O2-  O443  1  0.08000017  0.78635002  0.88291278  1
  O2-  O444  1  0.48354326  -0.01914472  0.26734376  1
  O2-  O445  1  0.42266619  0.07988592  0.51944921  1
  O2-  O446  1  0.43916999  0.08965206  0.85493798  1
  O2-  O447  1  0.43055552  0.37678756  0.20898048  1
  O2-  O448  1  0.42481013  0.34070383  0.52450665  1
  O2-  O449  1  0.54004431  0.30999608  0.79071072  1
  O2-  O450  1  0.43026488  0.59509610  0.16928773  1
  O2-  O451  1  0.40568560  0.58041209  0.51767798  1
  O2-  O452  1  0.41299727  0.59032610  0.84733622  1
  O2-  O453  1  0.45648930  0.85773884  0.17057122  1
  O2-  O454  1  0.40888733  0.82295416  0.52233463  1
  O2-  O455  1  0.42397456  0.83351019  0.85290003  1
  O2-  O456  1  0.64580697  0.07577984  0.18371279  1
  O2-  O457  1  0.68005944  0.10458386  0.51902254  1
  O2-  O458  1  0.69373949  0.10250336  0.85955705  1
  O2-  O459  1  0.66433267  0.31668933  0.18683398  1
  O2-  O460  1  0.67393842  0.33212813  0.51923020  1
  O2-  O461  1  0.66364961  0.37495278  0.86110353  1
  O2-  O462  1  0.68371114  0.57817407  0.20306663  1
  O2-  O463  1  0.68270520  0.57839704  0.53289288  1
  O2-  O464  1  0.60506689  0.52180498  0.81536735  1
  O2-  O465  1  0.65177336  0.83042942  0.17835759  1
  O2-  O466  1  0.65956780  0.82867617  0.52915064  1
  O2-  O467  1  0.66087830  0.81674281  0.85073517  1
  O2-  O468  1  0.90473691  0.09371256  0.18701531  1
  O2-  O469  1  0.91277567  0.09206371  0.51802447  1
  O2-  O470  1  0.89960608  0.07651720  0.85595657  1
  O2-  O471  1  0.98321321  0.35701655  0.13467678  1
  O2-  O472  1  0.91731656  0.34221467  0.52228610  1
  O2-  O473  1  0.91415987  0.33676337  0.85100578  1
  O2-  O474  1  0.84508579  0.61853124  0.19548319  1
  O2-  O475  1  0.91394584  0.58123844  0.51989470  1
  O2-  O476  1  0.90507840  0.56474565  0.85501599  1
  O2-  O477  1  0.93569299  0.84905206  0.17492191  1
  O2-  O478  1  0.91288078  0.81392377  0.51734129  1
  O2-  O479  1  0.90507916  0.82210734  0.85451210  1
  O2-  O480  1  0.15333365  0.09195514  0.28741757  1
  O2-  O481  1  0.16252406  0.06748651  0.65983169  1
  O2-  O482  1  0.16933866  0.08784547  0.98949498  1
  O2-  O483  1  0.20043814  0.37585857  0.29029426  1
  O2-  O484  1  0.16139508  0.33367970  0.64780671  1
  O2-  O485  1  0.15520218  0.31768004  0.98281302  1
  O2-  O486  1  0.17078467  0.59201138  0.30929542  1
  O2-  O487  1  0.16158770  0.57607911  0.64756410  1
  O2-  O488  1  0.17543439  0.58800339  0.97146434  1
  O2-  O489  1  0.14079486  0.82477730  0.36664647  1
  O2-  O490  1  0.16062960  0.82252012  0.65271381  1
  O2-  O491  1  0.17309803  0.83392827  0.98488047  1
  O2-  O492  1  0.40886054  0.07645302  0.33210197  1
  O2-  O493  1  0.41600499  0.07957145  0.64300866  1
  O2-  O494  1  0.41455731  0.08540240  0.97594517  1
  O2-  O495  1  0.35601290  0.26558856  0.30167520  1
  O2-  O496  1  0.40671652  0.32571426  0.64865933  1
  O2-  O497  1  0.41054321  0.33838379  0.99282834  1
  O2-  O498  1  0.40319008  0.60139502  0.29500759  1
  O2-  O499  1  0.41018022  0.57888614  0.64613815  1
  O2-  O500  1  0.40201013  0.57355046  0.99125783  1
  O2-  O501  1  0.40494205  0.83506005  0.32006571  1
  O2-  O502  1  0.41430795  0.83205511  0.64622368  1
  O2-  O503  1  0.41561361  0.82581900  0.97428631  1
  O2-  O504  1  0.65574579  0.08689536  0.30799530  1
  O2-  O505  1  0.66445980  0.08226261  0.63686160  1
  O2-  O506  1  0.66552385  0.08298542  0.98229983  1
  O2-  O507  1  0.66789060  0.32944187  0.31445988  1
  O2-  O508  1  0.65743863  0.32402092  0.64363424  1
  O2-  O509  1  0.65837764  0.33273049  0.97262882  1
  O2-  O510  1  0.68549109  0.60300327  0.33629698  1
  O2-  O511  1  0.65933442  0.56912282  0.66123042  1
  O2-  O512  1  0.67829880  0.61529287  0.99968866  1
  O2-  O513  1  0.65116012  0.83289009  0.30248347  1
  O2-  O514  1  0.65681420  0.82644746  0.64865881  1
  O2-  O515  1  0.65873443  0.84132528  0.97024645  1
  O2-  O516  1  0.91189202  0.09081523  0.30481117  1
  O2-  O517  1  0.91799613  0.08411671  0.64264219  1
  O2-  O518  1  0.93794909  0.10274447  0.97986199  1
  O2-  O519  1  0.89415081  0.31626405  0.27312093  1
  O2-  O520  1  0.91499174  0.33296127  0.64452487  1
  O2-  O521  1  0.90935709  0.32973354  0.97392773  1
  O2-  O522  1  0.91796773  0.59525181  0.30268869  1
  O2-  O523  1  0.91166852  0.58050036  0.64121517  1
  O2-  O524  1  0.91415503  0.57106730  0.98184194  1
  O2-  O525  1  0.90480273  0.82850353  0.33230634  1
  O2-  O526  1  0.91331953  0.82476703  0.64073439  1
  O2-  O527  1  0.96825967  0.80519872  0.96966575  1
  O2-  O528  1  0.09369344  0.16893163  0.01799882  1
  O2-  O529  1  0.06166308  0.15263619  0.34080741  1
  O2-  O530  1  0.08531955  0.16647745  0.68650967  1
  O2-  O531  1  0.09590944  0.40815309  0.04343122  1
  O2-  O532  1  0.10130160  0.42224118  0.35563555  1
  O2-  O533  1  0.07834435  0.41045304  0.68953856  1
  O2-  O534  1  0.08585355  0.66679268  0.01182444  1
  O2-  O535  1  0.07895268  0.67360297  0.30734788  1
  O2-  O536  1  0.07479154  0.65487808  0.68880529  1
  O2-  O537  1  0.09774224  0.92790615  0.03723561  1
  O2-  O538  1  0.08925185  0.94142646  0.34664148  1
  O2-  O539  1  0.07658305  0.90351614  0.68847016  1
  O2-  O540  1  0.33154134  0.16495275  0.01681939  1
  O2-  O541  1  0.37249351  0.12963466  0.35215365  1
  O2-  O542  1  0.33284576  0.16322080  0.69308865  1
  O2-  O543  1  0.33486698  0.42307656  0.02903559  1
  O2-  O544  1  0.32506114  0.37604275  0.36397411  1
  O2-  O545  1  0.32986646  0.41490388  0.68953800  1
  O2-  O546  1  0.32924421  0.65875364  0.01208163  1
  O2-  O547  1  0.32942980  0.67674556  0.35601734  1
  O2-  O548  1  0.32849069  0.66450313  0.68746729  1
  O2-  O549  1  0.34508638  0.92071905  0.00983251  1
  O2-  O550  1  0.32356764  0.90637947  0.36228492  1
  O2-  O551  1  0.32722631  0.91224488  0.68349709  1
  O2-  O552  1  0.58283297  0.17050347  0.01281308  1
  O2-  O553  1  0.57519159  0.16575235  0.35904439  1
  O2-  O554  1  0.58183904  0.15988537  0.68377588  1
  O2-  O555  1  0.58824245  0.41901723  0.02512590  1
  O2-  O556  1  0.59623696  0.43074722  0.35947839  1
  O2-  O557  1  0.56835568  0.39263304  0.69242768  1
  O2-  O558  1  0.57591196  0.69107531  0.01664852  1
  O2-  O559  1  0.57142928  0.66923582  0.33621293  1
  O2-  O560  1  0.57428470  0.65957488  0.68920664  1
  O2-  O561  1  0.57329515  0.91682485  0.02010016  1
  O2-  O562  1  0.57297888  0.92137153  0.34163914  1
  O2-  O563  1  0.58468397  0.91726877  0.68027640  1
  O2-  O564  1  0.83271879  0.17138057  0.02445959  1
  O2-  O565  1  0.82959915  0.16824619  0.34741653  1
  O2-  O566  1  0.83298693  0.16911827  0.68551972  1
  O2-  O567  1  0.82692092  0.39934636  0.01444475  1
  O2-  O568  1  0.84424090  0.42882606  0.33433667  1
  O2-  O569  1  0.82489637  0.41054422  0.68514411  1
  O2-  O570  1  0.85538607  0.67002123  0.03146842  1
  O2-  O571  1  0.83742869  0.67328897  0.40222684  1
  O2-  O572  1  0.83225782  0.66393658  0.68827208  1
  O2-  O573  1  0.82228119  0.94063801  -0.04687299  1
  O2-  O574  1  0.82285019  0.91197188  0.30337569  1
  O2-  O575  1  0.83351395  0.91414522  0.67224430  1
