# generated using pymatgen
data_H2O
_symmetry_space_group_name_H-M   'P 1'
_cell_length_a   17.98644397
_cell_length_b   17.98531741
_cell_length_c   22.00234571
_cell_angle_alpha   90.02256559
_cell_angle_beta   89.99047915
_cell_angle_gamma   119.98466488
_symmetry_Int_Tables_number   1
_chemical_formula_structural   H2O
_chemical_formula_sum   'H384 O192'
_cell_volume   6164.95750673
_cell_formula_units_Z   192
loop_
 _symmetry_equiv_pos_site_id
 _symmetry_equiv_pos_as_xyz
  1  'x, y, z'
loop_
 _atom_type_symbol
 _atom_type_oxidation_number
  H+  1.0
  O2-  -2.0
loop_
 _atom_site_type_symbol
 _atom_site_label
 _atom_site_symmetry_multiplicity
 _atom_site_fract_x
 _atom_site_fract_y
 _atom_site_fract_z
 _atom_site_occupancy
  H+  H0  1  0.61568319  0.62680579  0.34440794  1
  H+  H1  1  0.63927284  0.53088375  0.50638382  1
  H+  H2  1  0.38881060  0.77566584  0.98418099  1
  H+  H3  1  0.63296661  1.03033434  0.36395242  1
  H+  H4  1  0.13419664  0.10623090  0.33535290  1
  H+  H5  1  0.94643351  0.09059591  0.23194587  1
  H+  H6  1  0.47231564  0.62339481  0.86101116  1
  H+  H7  1  0.89460401  0.85457246  0.50966448  1
  H+  H8  1  0.87156282  0.23297794  0.32657514  1
  H+  H9  1  0.50239220  0.87442287  0.00615722  1
  H+  H10  1  0.11416847  0.73384097  0.01454829  1
  H+  H11  1  0.27478477  0.88158368  0.30181997  1
  H+  H12  1  0.11933538  0.72452082  0.49428205  1
  H+  H13  1  0.56867577  0.90497589  0.06964369  1
  H+  H14  1  0.64978664  0.40847339  0.82468492  1
  H+  H15  1  0.13143352  0.51823609  0.65937378  1
  H+  H16  1  0.37899060  0.86096824  0.67602066  1
  H+  H17  1  0.38782703  0.64288690  -0.04664295  1
  H+  H18  1  0.11716831  0.63494478  0.49055007  1
  H+  H19  1  0.31963817  0.64458195  0.09767691  1
  H+  H20  1  0.72807385  0.61837122  0.99783819  1
  H+  H21  1  0.12063977  0.14239471  0.67882011  1
  H+  H22  1  0.63851462  0.11418566  0.84479576  1
  H+  H23  1  0.25754001  0.60854629  0.00352107  1
  H+  H24  1  0.62200364  0.33576177  0.66633120  1
  H+  H25  1  0.38236776  1.02374047  0.16123076  1
  H+  H26  1  0.36014612  0.40103986  0.49226608  1
  H+  H27  1  0.57834365  0.14385247  0.73714490  1
  H+  H28  1  0.90177316  0.63087720  0.84347719  1
  H+  H29  1  0.73169992  0.62420001  0.33595211  1
  H+  H30  1  0.39292089  0.85173355  0.31349186  1
  H+  H31  1  0.62060358  0.85107505  0.33549080  1
  H+  H32  1  0.85598419  0.47219322  0.16236073  1
  H+  H33  1  0.33489077  0.20279309  0.82121581  1
  H+  H34  1  0.22419896  0.59069223  0.50289543  1
  H+  H35  1  0.34036975  0.90963766  0.24795199  1
  H+  H36  1  0.51442324  0.11094452  0.68050437  1
  H+  H37  1  0.48308868  0.11992980  0.98753809  1
  H+  H38  1  0.57942110  0.87711143  0.40741733  1
  H+  H39  1  0.90102024  0.14352084  0.16586421  1
  H+  H40  1  0.38357837  0.75878631  0.32612480  1
  H+  H41  1  0.12889416  0.27189278  0.65981929  1
  H+  H42  1  0.38481664  0.62390510  0.66114800  1
  H+  H43  1  0.14024095  0.10854450  0.52555573  1
  H+  H44  1  0.80662857  0.37681988  0.40273594  1
  H+  H45  1  0.38768378  0.77771785  0.83897969  1
  H+  H46  1  0.70034860  0.12504799  0.14451375  1
  H+  H47  1  0.87702654  0.25877171  0.64888199  1
  H+  H48  1  0.23593408  0.10458157  -0.01779141  1
  H+  H49  1  0.73660906  0.87649503  0.32033646  1
  H+  H50  1  0.10173146  0.38193447  0.67024074  1
  H+  H51  1  0.86825049  0.72432618  0.67682031  1
  H+  H52  1  0.39161476  0.02567963  0.51978333  1
  H+  H53  1  0.34943152  0.91098472  0.45764839  1
  H+  H54  1  0.12650464  0.64346715  0.68113725  1
  H+  H55  1  0.37719269  0.60840473  0.16805835  1
  H+  H56  1  0.87034431  0.50576730  0.65526444  1
  H+  H57  1  0.61030689  0.97141008  0.67699755  1
  H+  H58  1  0.85175357  0.97764158  0.83440278  1
  H+  H59  1  0.01858440  0.14100662  0.82731935  1
  H+  H60  1  0.24897517  0.13082167  0.66962088  1
  H+  H61  1  0.88593583  0.11221932  0.31732071  1
  H+  H62  1  0.60935186  0.63087541  0.01654052  1
  H+  H63  1  0.86322244  0.22585065  0.82053673  1
  H+  H64  1  0.92369902  0.33810839  0.26402404  1
  H+  H65  1  -0.02219753  0.61782554  -0.00076595  1
  H+  H66  1  0.50928152  0.14709191  0.14379749  1
  H+  H67  1  0.86553644  0.37715732  0.76633831  1
  H+  H68  1  0.97244223  0.62852359  0.32625406  1
  H+  H69  1  0.88325114  0.89638736  0.16208924  1
  H+  H70  1  0.67653114  0.03434770  0.36304481  1
  H+  H71  1  0.36365338  0.64454092  0.83709784  1
  H+  H72  1  0.70660946  0.34713585  0.32676316  1
  H+  H73  1  0.61312906  0.39083687  0.49332885  1
  H+  H74  1  0.36570339  0.39778271  0.84154417  1
  H+  H75  1  0.26942719  0.63148503  0.67765389  1
  H+  H76  1  0.51640909  0.14431154  0.34502489  1
  H+  H77  1  0.61490751  0.22616729  0.82307014  1
  H+  H78  1  0.13020020  0.51363197  0.50554375  1
  H+  H79  1  0.36794035  0.89212121  0.82956071  1
  H+  H80  1  0.59423532  0.14208678  0.14509112  1
  H+  H81  1  0.44757679  0.29742848  0.28281399  1
  H+  H82  1  0.75473599  0.94563154  0.56699772  1
  H+  H83  1  0.33390237  0.63739113  0.39662050  1
  H+  H84  1  0.86386415  0.63469584  0.49408704  1
  H+  H85  1  0.63969623  0.90510620  0.49991359  1
  H+  H86  1  0.91779984  0.04118870  0.99636907  1
  H+  H87  1  0.38896696  0.28672226  0.51046903  1
  H+  H88  1  0.65408523  0.88391025  0.16529266  1
  H+  H89  1  0.35155984  0.38413792  0.01849575  1
  H+  H90  1  0.36451723  0.87856928  0.15740189  1
  H+  H91  1  0.49610102  0.36923297  0.33244500  1
  H+  H92  1  0.07910409  0.00685087  0.82133743  1
  H+  H93  1  0.38142453  0.86320328  0.99546467  1
  H+  H94  1  0.88668187  0.11614379  0.84133621  1
  H+  H95  1  1.00696384  0.38447725  0.15437112  1
  H+  H96  1  0.14833556  1.00137231  0.68605050  1
  H+  H97  1  0.30764879  0.06069132  0.28240477  1
  H+  H98  1  0.42254223  0.83647432  0.62115588  1
  H+  H99  1  0.10503701  0.38306295  0.00361678  1
  H+  H100  1  0.26321380  0.38425624  0.01032825  1
  H+  H101  1  0.37758660  0.27231015  0.65612146  1
  H+  H102  1  0.73808295  0.36054387  0.81192341  1
  H+  H103  1  0.64052121  0.02645112  0.84546070  1
  H+  H104  1  0.38263846  0.26985377  0.99563639  1
  H+  H105  1  0.58219357  0.66113230  0.40955836  1
  H+  H106  1  0.91840650  0.03379578  0.17169984  1
  H+  H107  1  0.35394165  0.97214036  0.68029247  1
  H+  H108  1  0.17572886  0.83965041  0.94801925  1
  H+  H109  1  0.85948169  0.12763034  0.64794179  1
  H+  H110  1  0.97414468  0.11215835  0.48578152  1
  H+  H111  1  0.60194970  0.73855192  1.00612714  1
  H+  H112  1  0.97554146  0.90376546  0.81978566  1
  H+  H113  1  0.86114765  0.38812852  0.01005490  1
  H+  H114  1  0.92241239  0.87005576  -0.00436278  1
  H+  H115  1  0.68467537  0.83339325  1.00217971  1
  H+  H116  1  0.75979208  0.88833388  0.83588612  1
  H+  H117  1  0.10818181  0.97930604  0.13746074  1
  H+  H118  1  0.89187755  0.78138871  0.32607707  1
  H+  H119  1  0.88542934  0.78432253  0.83127349  1
  H+  H120  1  0.11601027  0.63842051  0.83261708  1
  H+  H121  1  0.64327460  0.61743288  0.66672296  1
  H+  H122  1  0.87412946  0.35867620  0.17141803  1
  H+  H123  1  0.26585061  0.88065175  0.67804011  1
  H+  H124  1  0.21184514  0.36516421  0.17491968  1
  H+  H125  1  0.13348851  0.85230245  0.65889849  1
  H+  H126  1  0.60230932  0.84367422  0.65621070  1
  H+  H127  1  0.09673445  0.86175974  0.87766520  1
  H+  H128  1  0.72863995  0.61889296  0.50688903  1
  H+  H129  1  0.38991948  0.51292026  0.32033343  1
  H+  H130  1  0.23109538  0.60690574  0.33871886  1
  H+  H131  1  0.60242327  0.72426088  0.83327952  1
  H+  H132  1  0.85935993  0.38464789  0.49638557  1
  H+  H133  1  0.98905135  0.86503327  0.51264954  1
  H+  H134  1  0.12281993  0.51310573  0.17035963  1
  H+  H135  1  0.22766563  0.61426736  0.84206949  1
  H+  H136  1  0.98804768  0.86829837  0.16637082  1
  H+  H137  1  0.52607632  0.89070942  0.83042866  1
  H+  H138  1  0.97443416  0.35998910  0.99514071  1
  H+  H139  1  0.74249648  0.63609989  0.17755717  1
  H+  H140  1  0.98359668  0.86647868  0.66801387  1
  H+  H141  1  0.45363335  0.66521599  0.56994735  1
  H+  H142  1  0.77644497  0.63871860  0.67776875  1
  H+  H143  1  1.01440863  0.12907063  0.34122951  1
  H+  H144  1  0.33036922  0.16857984  0.05652946  1
  H+  H145  1  0.38276901  0.10898826  0.67110625  1
  H+  H146  1  0.35219492  0.22821749  0.14530759  1
  H+  H147  1  0.86846774  0.88885422  0.33161044  1
  H+  H148  1  0.85907143  0.47297804  0.49044482  1
  H+  H149  1  0.84422871  0.35606456  0.34378023  1
  H+  H150  1  0.86689743  0.86669394  0.83950023  1
  H+  H151  1  0.35628019  0.72384097  0.68303129  1
  H+  H152  1  0.11251568  0.38907465  0.82626051  1
  H+  H153  1  0.12339373  -0.02492705  0.50138579  1
  H+  H154  1  0.12343257  0.52105256  -0.00822769  1
  H+  H155  1  0.38894299  0.54504369  0.63081128  1
  H+  H156  1  0.27747549  0.37357295  0.33416405  1
  H+  H157  1  0.67790452  0.60128356  0.90362132  1
  H+  H158  1  0.07742208  0.89033698  0.87716225  1
  H+  H159  1  0.60159026  0.97818423  0.15354719  1
  H+  H160  1  0.11748115  0.48119627  0.82439728  1
  H+  H161  1  0.82835196  0.92065279  0.73570496  1
  H+  H162  1  0.22250167  0.35926279  0.50391760  1
  H+  H163  1  0.61891032  0.64384201  0.49225543  1
  H+  H164  1  0.05310057  0.12023557  0.16125041  1
  H+  H165  1  0.60954449  0.75845885  0.65460605  1
  H+  H166  1  0.22547038  0.11620109  0.34599265  1
  H+  H167  1  0.62812355  0.09810642  0.66353743  1
  H+  H168  1  0.57124507  0.15683643  0.44077032  1
  H+  H169  1  0.88952141  0.52785401  0.99766800  1
  H+  H170  1  0.40874397  0.85997959  0.52620111  1
  H+  H171  1  0.51444029  0.84383244  0.34656079  1
  H+  H172  1  0.87232903  0.72683450  0.50055348  1
  H+  H173  1  0.76606710  0.12595056  0.64769253  1
  H+  H174  1  0.24167431  0.85647042  0.86192483  1
  H+  H175  1  0.13758200  0.27052178  0.99728462  1
  H+  H176  1  0.73398230  0.37331260  -0.01737749  1
  H+  H177  1  0.12009538  0.46029581  0.34090695  1
  H+  H178  1  0.86331147  0.64754701  0.33931006  1
  H+  H179  1  0.51786531  0.88755656  0.68805114  1
  H+  H180  1  0.13642475  0.25701776  0.33492761  1
  H+  H181  1  0.04680241  0.14733197  0.56652357  1
  H+  H182  1  0.28285418  0.87938581  0.51128516  1
  H+  H183  1  0.31668396  0.53449662  0.46841987  1
  H+  H184  1  0.10193805  0.67876915  0.74108784  1
  H+  H185  1  0.11785294  0.36965956  0.34210830  1
  H+  H186  1  0.97303734  0.60836053  0.50603887  1
  H+  H187  1  0.57013330  0.41825567  0.84269323  1
  H+  H188  1  0.32606155  0.91582339  0.77438367  1
  H+  H189  1  0.14848301  0.57302583  0.37873541  1
  H+  H190  1  0.90596473  0.12346283  -0.00188775  1
  H+  H191  1  0.88653942  0.27322112  0.51382272  1
  H+  H192  1  0.52314801  0.13960410  0.83103263  1
  H+  H193  1  0.33237529  0.66546276  0.77347599  1
  H+  H194  1  0.86168622  0.13375638  0.49678746  1
  H+  H195  1  0.36436004  0.62492401  0.33238221  1
  H+  H196  1  0.51962619  0.88212816  0.15853836  1
  H+  H197  1  0.09417276  0.90849581  0.08636424  1
  H+  H198  1  0.33874463  0.46519327  0.15951375  1
  H+  H199  1  0.56046006  0.67577564  0.18642863  1
  H+  H200  1  0.98477053  0.35930173  0.32350056  1
  H+  H201  1  0.70454706  0.23009057  0.28430261  1
  H+  H202  1  0.10853958  0.72487983  0.16236249  1
  H+  H203  1  0.36107270  0.01716394  0.30001652  1
  H+  H204  1  0.72905450  0.11969469  1.00004402  1
  H+  H205  1  0.47828046  0.11633583  0.51638950  1
  H+  H206  1  0.37814885  0.10801856  0.83736919  1
  H+  H207  1  0.52638062  0.39619099  0.49384168  1
  H+  H208  1  0.80757466  0.12169332  0.17961383  1
  H+  H209  1  0.15302645  0.76494136  0.86339724  1
  H+  H210  1  0.04355577  0.13918552  0.00410660  1
  H+  H211  1  0.37048711  0.23469224  0.35734239  1
  H+  H212  1  0.88695931  0.02335883  0.32340892  1
  H+  H213  1  0.88421023  0.27290846  0.17409491  1
  H+  H214  1  0.77032037  0.86894160  0.49846941  1
  H+  H215  1  0.36700246  0.14291076  0.51036675  1
  H+  H216  1  0.59791923  0.13599688  0.33891994  1
  H+  H217  1  0.11639692  -0.02085444  0.34845564  1
  H+  H218  1  0.24899010  0.36354484  0.68804683  1
  H+  H219  1  0.26469127  0.62604122  0.15901266  1
  H+  H220  1  0.88552768  1.02344334  0.66556865  1
  H+  H221  1  0.13382175  0.61574764  0.99482323  1
  H+  H222  1  0.64408091  0.53070943  0.33189364  1
  H+  H223  1  0.10866770  0.14328916  0.82951494  1
  H+  H224  1  0.22093271  0.36444245  0.85058508  1
  H+  H225  1  0.11507676  0.89013217  0.34258836  1
  H+  H226  1  0.86523110  0.72673108  0.00520144  1
  H+  H227  1  0.91742416  0.33777265  0.56870509  1
  H+  H228  1  0.35872504  0.14196399  0.35388652  1
  H+  H229  1  0.13223907  0.35719185  0.50717909  1
  H+  H230  1  0.11249395  0.64978104  0.33667422  1
  H+  H231  1  0.72013231  0.11058766  0.51074079  1
  H+  H232  1  0.03152353  0.64757240  0.83389673  1
  H+  H233  1  0.38416846  0.76161444  0.16604790  1
  H+  H234  1  0.16994239  0.82515634  0.56945568  1
  H+  H235  1  0.63998797  0.52847852  -0.00818381  1
  H+  H236  1  0.17833284  0.40817491  0.22002300  1
  H+  H237  1  0.14023683  0.78275905  0.32346070  1
  H+  H238  1  0.21142508  0.10159329  0.83139113  1
  H+  H239  1  0.46298428  0.74574430  0.53405160  1
  H+  H240  1  0.62938099  0.27925521  0.16727313  1
  H+  H241  1  0.64219108  0.66283252  0.17362922  1
  H+  H242  1  0.52635386  0.38718144  -0.00233250  1
  H+  H243  1  0.89026940  1.02812428  0.46639151  1
  H+  H244  1  0.51800484  0.62065695  0.34245534  1
  H+  H245  1  0.98227433  0.86924311  0.32874253  1
  H+  H246  1  0.66192902  0.54828986  0.84199955  1
  H+  H247  1  0.52147998  0.63411075  0.67919409  1
  H+  H248  1  0.37198813  0.35650366  0.66429669  1
  H+  H249  1  0.61966755  0.97915417  0.48540512  1
  H+  H250  1  0.61773353  0.39317824  0.33874809  1
  H+  H251  1  0.72137469  0.36221980  0.50322838  1
  H+  H252  1  0.78547182  0.65851294  0.83035056  1
  H+  H253  1  0.49456266  0.35760501  0.69362341  1
  H+  H254  1  0.98406768  0.37664597  0.81728730  1
  H+  H255  1  0.37363188  0.62988022  0.49163938  1
  H+  H256  1  0.37336753  0.98401340  0.00864269  1
  H+  H257  1  0.63011514  0.36747326  0.16692531  1
  H+  H258  1  0.36932139  0.37957949  0.33429416  1
  H+  H259  1  0.55254468  0.68198440  0.49383453  1
  H+  H260  1  0.66121647  0.79890790  0.17070343  1
  H+  H261  1  0.07808312  0.40311770  0.43541721  1
  H+  H262  1  0.38291815  0.53894660  0.86882050  1
  H+  H263  1  0.22129882  0.86053516  0.16790616  1
  H+  H264  1  0.61042739  0.22769210  0.49510660  1
  H+  H265  1  0.71864710  0.35754651  0.65912672  1
  H+  H266  1  0.45212560  0.58997797  0.15057789  1
  H+  H267  1  0.86812674  0.22298559  0.01729550  1
  H+  H268  1  0.38703832  0.02459078  0.84067947  1
  H+  H269  1  0.15294448  -0.05069293  0.98781686  1
  H+  H270  1  0.01854388  0.37970364  0.49541804  1
  H+  H271  1  0.23316014  0.11568774  0.51881154  1
  H+  H272  1  0.67267796  0.09243557  0.93993126  1
  H+  H273  1  0.86629984  0.89462115  0.67994886  1
  H+  H274  1  0.68326385  0.60759382  0.23811099  1
  H+  H275  1  -0.03420212  0.35067527  0.66425913  1
  H+  H276  1  0.61741876  0.39049093  0.99029855  1
  H+  H277  1  0.87541051  0.73357033  0.15899901  1
  H+  H278  1  0.88345125  0.61120959  0.17155968  1
  H+  H279  1  0.63048388  0.11124005  0.50494680  1
  H+  H280  1  0.45650414  0.32501217  0.79129041  1
  H+  H281  1  -0.03014751  0.60747369  0.17380643  1
  H+  H282  1  0.58582974  0.85362126  0.01029808  1
  H+  H283  1  0.82835715  0.90710071  0.00852034  1
  H+  H284  1  0.77630872  0.13813258  0.83214521  1
  H+  H285  1  0.62723615  0.86167555  0.84526101  1
  H+  H286  1  0.36920335  0.14101198  -0.00028931  1
  H+  H287  1  0.51484620  0.38229478  0.14692228  1
  H+  H288  1  0.84059369  0.67774508  0.76850012  1
  H+  H289  1  0.31246744  0.99524961  0.40061805  1
  H+  H290  1  0.36531779  0.36205834  0.16081236  1
  H+  H291  1  0.39837102  0.33952543  0.94522787  1
  H+  H292  1  0.15390279  0.56776940  0.23176317  1
  H+  H293  1  0.16724389  0.57965004  0.60147790  1
  H+  H294  1  0.82767713  0.41696009  0.06749839  1
  H+  H295  1  0.67359630  0.59208790  0.60673584  1
  H+  H296  1  0.62145334  0.15210696  -0.00147942  1
  H+  H297  1  0.93356397  0.84265858  0.22932977  1
  H+  H298  1  0.57569964  0.66243220  0.74061175  1
  H+  H299  1  0.90384683  0.31479039  0.94295516  1
  H+  H300  1  0.41420327  0.21822905  0.70776034  1
  H+  H301  1  0.85505351  0.36165330  0.67285814  1
  H+  H302  1  0.76887998  0.79585581  0.45874082  1
  H+  H303  1  0.56666858  0.39152561  0.74743760  1
  H+  H304  1  0.16434432  0.58039794  0.89964082  1
  H+  H305  1  0.92100383  0.83119281  0.93130909  1
  H+  H306  1  0.08386861  0.66842077  0.06993269  1
  H+  H307  1  0.09182211  0.91756815  0.44027435  1
  H+  H308  1  0.09368714  0.38039848  0.15446228  1
  H+  H309  1  0.60747561  0.63890314  0.83540232  1
  H+  H310  1  0.58980987  0.42411032  0.40074696  1
  H+  H311  1  0.10885706  0.63540276  0.16359531  1
  H+  H312  1  0.16506318  0.94294582  0.73188937  1
  H+  H313  1  0.87524253  0.59626868  0.65807669  1
  H+  H314  1  0.33658818  0.17207027  0.45142389  1
  H+  H315  1  0.35378192  0.14039641  0.14457277  1
  H+  H316  1  0.10699966  0.22243727  0.52175622  1
  H+  H317  1  0.82191353  0.16374741  0.37837905  1
  H+  H318  1  0.40398248  0.08924799  0.21577182  1
  H+  H319  1  0.07741658  0.41506995  0.73001173  1
  H+  H320  1  0.91096402  0.37991873  0.85529882  1
  H+  H321  1  0.08349105  0.17078704  0.73495553  1
  H+  H322  1  0.41750831  0.34992133  0.56569194  1
  H+  H323  1  0.64623041  0.28478873  0.97536824  1
  H+  H324  1  0.41816260  0.81587669  0.22756424  1
  H+  H325  1  0.40279437  0.34163262  0.21852360  1
  H+  H326  1  0.08751136  0.67735338  0.39878979  1
  H+  H327  1  0.65711861  0.33986590  0.26373178  1
  H+  H328  1  0.83371920  0.15695307  0.56094022  1
  H+  H329  1  0.33728977  0.91594204  0.10132553  1
  H+  H330  1  0.05681060  0.94629522  0.76035377  1
  H+  H331  1  0.13922596  0.76491434  0.66585857  1
  H+  H332  1  0.64560906  0.82099145  0.90462294  1
  H+  H333  1  0.92340842  0.09031156  0.89977196  1
  H+  H334  1  0.87488510  0.93696647  0.07219352  1
  H+  H335  1  0.14378689  0.09334151  0.98692832  1
  H+  H336  1  0.16181174  0.31318960  0.27349603  1
  H+  H337  1  0.32487660  0.15401203  0.75763160  1
  H+  H338  1  0.32682566  0.42282331  0.78789698  1
  H+  H339  1  0.65214461  0.06918344  0.60018423  1
  H+  H340  1  0.58466163  0.18618897  0.05140810  1
  H+  H341  1  0.41636439  0.08311835  0.93251762  1
  H+  H342  1  0.06426586  0.15101886  0.40388415  1
  H+  H343  1  0.41152567  0.07862603  0.61102923  1
  H+  H344  1  0.50392992  0.87676790  0.52352574  1
  H+  H345  1  0.18562740  0.09084169  0.61218952  1
  H+  H346  1  0.14851059  0.86138236  0.50953046  1
  H+  H347  1  0.27978384  0.90103165  0.01399517  1
  H+  H348  1  0.92798721  0.83923912  0.60797705  1
  H+  H349  1  0.07249854  0.41452054  0.06073329  1
  H+  H350  1  0.92532959  0.59622302  0.90224585  1
  H+  H351  1  0.13115032  0.27548897  0.84221078  1
  H+  H352  1  0.15893482  0.83637660  0.26103694  1
  H+  H353  1  0.44871241  0.29949739  0.86073881  1
  H+  H354  1  0.13552153  0.86648987  0.16440297  1
  H+  H355  1  0.15688089  0.32960253  0.93838791  1
  H+  H356  1  0.58876367  0.91946044  0.77303180  1
  H+  H357  1  0.32819101  0.41401683  0.42861170  1
  H+  H358  1  0.90761985  0.57331193  0.56308812  1
  H+  H359  1  0.67463290  0.85235624  0.58041768  1
  H+  H360  1  0.66839959  0.11970946  0.21313668  1
  H+  H361  1  0.41871194  0.84031475  0.89679159  1
  H+  H362  1  0.83756411  0.67720858  0.40143090  1
  H+  H363  1  0.16197222  0.07492830  0.89646684  1
  H+  H364  1  0.76445288  0.38520388  0.16038890  1
  H+  H365  1  0.83829503  0.67227242  0.10056869  1
  H+  H366  1  0.66056135  0.33556966  0.56151123  1
  H+  H367  1  0.67842838  0.85786520  0.25844884  1
  H+  H368  1  0.86172303  0.63674750  0.00913633  1
  H+  H369  1  0.42302053  0.57679403  0.26311701  1
  H+  H370  1  0.91124167  0.59244189  0.26871345  1
  H+  H371  1  0.79830119  0.90651501  0.15803116  1
  H+  H372  1  0.16626068  0.33547132  0.60206778  1
  H+  H373  1  0.30860059  0.40853585  0.09764497  1
  H+  H374  1  0.27557587  0.95004370  0.40309825  1
  H+  H375  1  0.69648243  0.34601305  0.88030142  1
  H+  H376  1  0.97271502  0.11382613  0.66684991  1
  H+  H377  1  0.10683629  0.15350779  0.05982247  1
  H+  H378  1  0.27165234  0.31018305  0.73236396  1
  H+  H379  1  0.84511265  0.16062833  0.07435873  1
  H+  H380  1  0.82866256  0.90424857  0.39172704  1
  H+  H381  1  0.58024800  0.41072228  0.09169075  1
  H+  H382  1  0.58709748  0.66451167  0.07803401  1
  H+  H383  1  0.73775444  0.16731402  0.30321609  1
  O2-  O384  1  0.10617700  0.13057659  0.13854815  1
  O2-  O385  1  0.07103429  0.15771641  0.52548653  1
  O2-  O386  1  0.08004348  0.17409883  0.81250006  1
  O2-  O387  1  0.06770338  0.41407852  0.13838707  1
  O2-  O388  1  0.07978487  0.40796940  0.48053639  1
  O2-  O389  1  0.08605743  0.42102566  0.80741749  1
  O2-  O390  1  0.07794520  0.66406511  0.14772725  1
  O2-  O391  1  0.08790722  0.66603564  0.47552249  1
  O2-  O392  1  0.09381177  0.67703953  0.82041910  1
  O2-  O393  1  0.08818443  0.91648137  0.13025428  1
  O2-  O394  1  0.09326401  0.91491482  0.48584751  1
  O2-  O395  1  0.02954384  0.96137561  0.79441209  1
  O2-  O396  1  0.32571798  0.17043808  0.12674927  1
  O2-  O397  1  0.33595859  0.17334562  0.49680134  1
  O2-  O398  1  0.30993235  0.14380711  0.80596714  1
  O2-  O399  1  0.30552557  0.40516334  0.14503035  1
  O2-  O400  1  0.32252731  0.42051425  0.47289815  1
  O2-  O401  1  0.33278082  0.42662327  0.83282385  1
  O2-  O402  1  0.32452074  0.65512710  0.14286000  1
  O2-  O403  1  0.32014557  0.59092681  0.46732770  1
  O2-  O404  1  0.33242184  0.67210366  0.81862230  1
  O2-  O405  1  0.33516973  0.91158054  0.14719892  1
  O2-  O406  1  0.34650755  0.91077310  0.50187442  1
  O2-  O407  1  0.33366319  0.92053979  0.81965191  1
  O2-  O408  1  0.57094249  0.17846102  0.13079457  1
  O2-  O409  1  0.57829491  0.16439919  0.48576448  1
  O2-  O410  1  0.58336595  0.16321368  0.81639869  1
  O2-  O411  1  0.57603760  0.40707830  0.13657330  1
  O2-  O412  1  0.58636965  0.42486545  0.47789948  1
  O2-  O413  1  0.62107388  0.44386295  0.81684129  1
  O2-  O414  1  0.60813084  0.69392902  0.15809664  1
  O2-  O415  1  0.59891800  0.68027410  0.47043734  1
  O2-  O416  1  0.56992497  0.66209984  0.82177900  1
  O2-  O417  1  0.57880860  0.91763856  0.14052356  1
  O2-  O418  1  0.59821799  0.91640315  0.47730939  1
  O2-  O419  1  0.58816905  0.91977248  0.81886864  1
  O2-  O420  1  0.85784547  0.16307110  0.15682273  1
  O2-  O421  1  0.83134323  0.16179648  0.51526164  1
  O2-  O422  1  0.83613221  0.16325284  0.81650181  1
  O2-  O423  1  0.82594753  0.41178795  0.14630672  1
  O2-  O424  1  0.82668385  0.41080519  0.47890634  1
  O2-  O425  1  0.82434375  0.39608145  0.75371811  1
  O2-  O426  1  0.84127763  0.67229361  0.14622768  1
  O2-  O427  1  0.83681320  0.66959856  0.48116549  1
  O2-  O428  1  0.84537652  0.68865324  0.81390217  1
  O2-  O429  1  0.85951256  0.93283828  0.14534606  1
  O2-  O430  1  0.80536798  0.85677592  0.46813590  1
  O2-  O431  1  0.81989081  0.91659368  0.81994944  1
  O2-  O432  1  0.13102693  0.07611763  0.16272654  1
  O2-  O433  1  0.17313740  0.07936049  0.53538137  1
  O2-  O434  1  0.15362936  0.08117854  0.85136860  1
  O2-  O435  1  0.15884604  0.35344769  0.19941821  1
  O2-  O436  1  0.16420522  0.32897927  0.52355566  1
  O2-  O437  1  0.15847903  0.33492836  0.85991207  1
  O2-  O438  1  0.15821753  0.57292977  0.18750963  1
  O2-  O439  1  0.16618406  0.57536662  0.51762812  1
  O2-  O440  1  0.16576716  0.57953164  0.85427543  1
  O2-  O441  1  0.16130778  0.83335319  0.18299688  1
  O2-  O442  1  0.17676772  0.82882589  0.52387852  1
  O2-  O443  1  0.19332764  0.81617358  0.88842651  1
  O2-  O444  1  0.40877298  0.08590484  0.17108991  1
  O2-  O445  1  0.41759608  0.08669951  0.53216780  1
  O2-  O446  1  0.41520870  0.08624487  0.85422997  1
  O2-  O447  1  0.40149294  0.33651195  0.17437298  1
  O2-  O448  1  0.41830872  0.34920297  0.52031143  1
  O2-  O449  1  0.42830454  0.32527887  0.83083138  1
  O2-  O450  1  0.40912240  0.57809478  0.18189973  1
  O2-  O451  1  0.46269462  0.69091970  0.52846467  1
  O2-  O452  1  0.41344464  0.60079720  0.87870102  1
  O2-  O453  1  0.41678054  0.82154824  0.18246994  1
  O2-  O454  1  0.44749079  0.84131039  0.54397778  1
  O2-  O455  1  0.42035366  0.83970621  0.85171121  1
  O2-  O456  1  0.65280429  0.09087301  0.17207641  1
  O2-  O457  1  0.65682541  0.07571536  0.51739402  1
  O2-  O458  1  0.67115545  0.08680992  0.86067449  1
  O2-  O459  1  0.66174580  0.33840721  0.18423529  1
  O2-  O460  1  0.65958842  0.33274776  0.51586481  1
  O2-  O461  1  0.68469652  0.34118861  0.83562091  1
  O2-  O462  1  0.68353822  0.61666542  0.19375851  1
  O2-  O463  1  0.66746083  0.59200910  0.52016867  1
  O2-  O464  1  0.68112639  0.60691352  0.85810209  1
  O2-  O465  1  0.68985255  0.86144787  0.18291849  1
  O2-  O466  1  0.71462924  0.89279920  0.54593427  1
  O2-  O467  1  0.65516034  0.82807353  0.86026437  1
  O2-  O468  1  0.95287342  0.09468772  0.18668525  1
  O2-  O469  1  0.92054751  0.09025461  0.46131439  1
  O2-  O470  1  0.91779174  0.08464171  0.85465582  1
  O2-  O471  1  0.91051314  0.33395927  0.18644348  1
  O2-  O472  1  0.91861334  0.33609125  0.52318717  1
  O2-  O473  1  0.91934882  0.34940378  0.82184771  1
  O2-  O474  1  0.90920366  0.57706358  0.18805830  1
  O2-  O475  1  0.91143448  0.57828031  0.51696968  1
  O2-  O476  1  0.93129143  0.60006853  0.85732659  1
  O2-  O477  1  0.92895221  0.84096243  0.18403170  1
  O2-  O478  1  0.92955614  0.83345876  0.53008673  1
  O2-  O479  1  0.90993065  0.84615200  0.84769542  1
  O2-  O480  1  0.16917595  0.07905172  0.32670550  1
  O2-  O481  1  0.18737585  0.09646947  0.65777247  1
  O2-  O482  1  0.17493751  0.06608668  0.96841959  1
  O2-  O483  1  0.16982621  0.31708865  0.31836119  1
  O2-  O484  1  0.16063841  0.33392006  0.64741604  1
  O2-  O485  1  0.15789899  0.33086145  0.98382576  1
  O2-  O486  1  0.16605176  0.57719353  0.33622099  1
  O2-  O487  1  0.16848858  0.57935176  0.64660575  1
  O2-  O488  1  0.16009777  0.58201470  0.97856072  1
  O2-  O489  1  0.17068995  0.84218868  0.30585787  1
  O2-  O490  1  0.16625125  0.82539272  0.64492603  1
  O2-  O491  1  0.17412118  0.85040562  0.99566849  1
  O2-  O492  1  0.36599771  0.07476792  0.29321388  1
  O2-  O493  1  0.40666370  0.07159745  0.65606318  1
  O2-  O494  1  0.42010738  0.08429221  0.97803554  1
  O2-  O495  1  0.43582514  0.32841770  0.31433646  1
  O2-  O496  1  0.40630806  0.33453365  0.64393383  1
  O2-  O497  1  0.41207853  0.33444235  0.98721675  1
  O2-  O498  1  0.42240623  0.57523278  0.30828919  1
  O2-  O499  1  0.42296550  0.60647876  0.63837737  1
  O2-  O500  1  0.38273542  0.67710391  0.98709040  1
  O2-  O501  1  0.42166727  0.81709942  0.30849068  1
  O2-  O502  1  0.41110426  0.83019224  0.66572743  1
  O2-  O503  1  0.41642420  0.83896547  0.97752388  1
  O2-  O504  1  0.68970333  0.16975051  0.28223638  1
  O2-  O505  1  0.65966161  0.06922256  0.64493806  1
  O2-  O506  1  0.67019025  0.09825347  0.98490383  1
  O2-  O507  1  0.65006724  0.33326214  0.30870238  1
  O2-  O508  1  0.66617754  0.34587989  0.63654220  1
  O2-  O509  1  0.67878778  0.34523151  0.95946581  1
  O2-  O510  1  0.67039711  0.59293945  0.32030182  1
  O2-  O511  1  0.67780135  0.59226589  0.65147407  1
  O2-  O512  1  0.66795682  0.59086535  0.98130318  1
  O2-  O513  1  0.67620740  0.84946362  0.30388616  1
  O2-  O514  1  0.60961896  0.80373656  0.62862183  1
  O2-  O515  1  0.62565096  0.80193252  0.98772889  1
  O2-  O516  1  0.91982063  0.08354815  0.30773609  1
  O2-  O517  1  0.91646638  0.08249273  0.64650507  1
  O2-  O518  1  0.94044694  0.09987419  0.97914377  1
  O2-  O519  1  0.92411598  0.33144824  0.30909106  1
  O2-  O520  1  0.90631507  0.32417784  0.64709599  1
  O2-  O521  1  0.91012605  0.32572704  0.98655367  1
  O2-  O522  1  0.91180452  0.60034475  0.31349448  1
  O2-  O523  1  0.89684643  0.56281927  0.63611090  1
  O2-  O524  1  0.91771896  0.58866126  0.98371564  1
  O2-  O525  1  0.92382609  0.84150713  0.30953576  1
  O2-  O526  1  0.92448334  0.83844476  0.65348362  1
  O2-  O527  1  0.92658081  0.82363882  0.97510647  1
  O2-  O528  1  0.10533243  0.16352711  0.01556202  1
  O2-  O529  1  0.07359639  0.15686665  0.36010239  1
  O2-  O530  1  0.08708731  0.17089218  0.68933648  1
  O2-  O531  1  0.07317138  0.41380986  0.01522833  1
  O2-  O532  1  0.08616961  0.39999515  0.35475389  1
  O2-  O533  1  0.07057727  0.41145508  0.68476609  1
  O2-  O534  1  0.08624305  0.67171959  0.02443980  1
  O2-  O535  1  0.08661270  0.68248667  0.35315060  1
  O2-  O536  1  0.10408197  0.68049628  0.69577067  1
  O2-  O537  1  0.12131882  0.89102987  0.00629151  1
  O2-  O538  1  0.08395859  0.91677426  0.36180374  1
  O2-  O539  1  0.12041805  0.94225256  0.70620404  1
  O2-  O540  1  0.33524388  0.16957467  0.00991229  1
  O2-  O541  1  0.33626634  0.17568528  0.37433347  1
  O2-  O542  1  0.35453320  0.17730045  0.69696109  1
  O2-  O543  1  0.32056991  0.41433064  0.03041433  1
  O2-  O544  1  0.33900804  0.41004827  0.34686411  1
  O2-  O545  1  0.29675885  0.36756477  0.71471487  1
  O2-  O546  1  0.31056837  0.61310571  0.02360661  1
  O2-  O547  1  0.33468108  0.65274848  0.35255571  1
  O2-  O548  1  0.32935098  0.66151379  0.69454458  1
  O2-  O549  1  0.34150797  0.92365678  0.02525993  1
  O2-  O550  1  0.33874203  0.91217663  0.29236129  1
  O2-  O551  1  0.32423806  0.91165131  0.69700058  1
  O2-  O552  1  0.58864912  0.18368403  0.00634043  1
  O2-  O553  1  0.54873361  0.12177342  0.36588634  1
  O2-  O554  1  0.57565759  0.13677016  0.69234502  1
  O2-  O555  1  0.58812231  0.41962597  0.00892866  1
  O2-  O556  1  0.58948597  0.42650450  0.35501707  1
  O2-  O557  1  0.52063822  0.34019863  0.72651832  1
  O2-  O558  1  0.57551783  0.65657054  0.03377627  1
  O2-  O559  1  0.57783139  0.65207532  0.36027266  1
  O2-  O560  1  0.58075192  0.66302689  0.69539589  1
  O2-  O561  1  0.56372764  0.89458605  0.02356787  1
  O2-  O562  1  0.56401505  0.84398979  0.36765822  1
  O2-  O563  1  0.58040059  0.91341612  0.69723108  1
  O2-  O564  1  0.84196030  0.16155244  0.02946593  1
  O2-  O565  1  0.83084709  0.16901305  0.33447162  1
  O2-  O566  1  0.82883939  0.16032702  0.63702225  1
  O2-  O567  1  0.83203570  0.42038711  0.02200377  1
  O2-  O568  1  0.79123047  0.34942500  0.36188693  1
  O2-  O569  1  0.82180512  0.39265010  0.68688229  1
  O2-  O570  1  0.83142082  0.66757428  0.02346627  1
  O2-  O571  1  0.83352859  0.67903477  0.35615834  1
  O2-  O572  1  0.83752248  0.66535984  0.69359699  1
  O2-  O573  1  0.88485108  0.94136250  0.02660546  1
  O2-  O574  1  0.83538346  0.91688352  0.34749685  1
  O2-  O575  1  0.83532597  0.92509184  0.69103826  1
