# generated using pymatgen
data_H2O
_symmetry_space_group_name_H-M   'P 1'
_cell_length_a   17.98349442
_cell_length_b   17.98173585
_cell_length_c   21.99848337
_cell_angle_alpha   89.95918094
_cell_angle_beta   89.98751921
_cell_angle_gamma   120.00850881
_symmetry_Int_Tables_number   1
_chemical_formula_structural   H2O
_chemical_formula_sum   'H384 O192'
_cell_volume   6160.15474340
_cell_formula_units_Z   192
loop_
 _symmetry_equiv_pos_site_id
 _symmetry_equiv_pos_as_xyz
  1  'x, y, z'
loop_
 _atom_type_symbol
 _atom_type_oxidation_number
  H+  1.0
  O2-  -2.0
loop_
 _atom_site_type_symbol
 _atom_site_label
 _atom_site_symmetry_multiplicity
 _atom_site_fract_x
 _atom_site_fract_y
 _atom_site_fract_z
 _atom_site_occupancy
  H+  H0  1  0.11264369  0.71771622  0.67835152  1
  H+  H1  1  0.15006423  0.12244947  0.49920256  1
  H+  H2  1  0.89368417  0.28813755  0.32449785  1
  H+  H3  1  0.41567723  0.54018732  0.99110896  1
  H+  H4  1  0.13831681  0.27288699  0.66140158  1
  H+  H5  1  0.29421109  0.42525426  -0.00205123  1
  H+  H6  1  0.36521693  0.22684542  0.52887416  1
  H+  H7  1  0.63417656  0.29153295  0.50962448  1
  H+  H8  1  0.39610677  0.60812177  0.66001841  1
  H+  H9  1  0.61275551  0.13652339  1.00746541  1
  H+  H10  1  0.09379431  0.18991794  0.00247222  1
  H+  H11  1  0.59567916  0.42866430  0.43829782  1
  H+  H12  1  0.47922870  0.86586193  0.50767652  1
  H+  H13  1  0.70900681  0.05044096  0.85219302  1
  H+  H14  1  0.88181140  0.14069953  0.98392542  1
  H+  H15  1  0.33861124  0.42043183  0.09347489  1
  H+  H16  1  0.62376696  -0.00544597  0.50228928  1
  H+  H17  1  0.27729954  0.24086089  0.37462674  1
  H+  H18  1  0.75326848  0.10530246  0.14176282  1
  H+  H19  1  0.61573628  0.87007630  0.49698596  1
  H+  H20  1  0.26050266  0.87068726  0.00697786  1
  H+  H21  1  0.86355769  0.26703699  0.50552930  1
  H+  H22  1  0.63367624  0.52089568  0.17568002  1
  H+  H23  1  0.88714099  0.37817259  0.00084912  1
  H+  H24  1  0.46649154  0.33235580  0.83682036  1
  H+  H25  1  0.43453489  0.35759862  0.26868265  1
  H+  H26  1  0.62106997  0.14568794  0.34544760  1
  H+  H27  1  0.86594905  0.38984455  0.50299637  1
  H+  H28  1  0.09592580  0.16881866  0.44355427  1
  H+  H29  1  0.86125791  0.73375160  0.81887481  1
  H+  H30  1  0.89480463  0.77889430  0.65830374  1
  H+  H31  1  0.72538782  0.09709411  0.65009511  1
  H+  H32  1  0.35807251  0.70373704  0.82633740  1
  H+  H33  1  0.77614282  0.39008876  0.68305233  1
  H+  H34  1  0.63923532  0.02656343  0.32545192  1
  H+  H35  1  0.29162556  0.39355528  0.49820679  1
  H+  H36  1  0.88857534  0.52476152  0.66814721  1
  H+  H37  1  0.72985639  0.61655475  0.00539352  1
  H+  H38  1  0.83719680  0.67658359  0.06983796  1
  H+  H39  1  0.41168591  0.61969981  0.50133938  1
  H+  H40  1  0.90794119  0.31446316  0.84545150  1
  H+  H41  1  0.60643157  0.38642568  0.16355123  1
  H+  H42  1  0.12605607  0.54697328  0.33618810  1
  H+  H43  1  0.97955893  0.13692902  0.83251848  1
  H+  H44  1  0.13675228  0.85726148  0.00061083  1
  H+  H45  1  0.47525169  0.61194372  0.32958580  1
  H+  H46  1  0.02220793  0.88299008  0.48824646  1
  H+  H47  1  0.13488767  0.55308158  0.17708563  1
  H+  H48  1  0.76434170  0.86817020  0.48907633  1
  H+  H49  1  0.09978692  0.13129616  0.82956843  1
  H+  H50  1  0.77194615  0.50637222  0.12103538  1
  H+  H51  1  0.90258586  0.80206934  0.26321116  1
  H+  H52  1  0.40380814  0.61043291  0.83471498  1
  H+  H53  1  0.41595966  0.62929667  -0.00742096  1
  H+  H54  1  0.86049880  0.14309440  0.33699434  1
  H+  H55  1  0.27495301  0.62593262  0.68321789  1
  H+  H56  1  0.91284297  0.25465883  0.16256896  1
  H+  H57  1  0.61461755  0.38990301  0.00577469  1
  H+  H58  1  0.54691780  0.64230883  0.66992907  1
  H+  H59  1  0.72901072  0.11795959  0.99192993  1
  H+  H60  1  0.72808377  0.59853576  0.82576726  1
  H+  H61  1  0.10977461  0.75105957  0.16328578  1
  H+  H62  1  0.88880880  0.76995635  0.50582232  1
  H+  H63  1  0.64608060  0.62954588  0.66125431  1
  H+  H64  1  0.13972811  0.54097221  0.85927564  1
  H+  H65  1  0.13984745  0.78544958  0.32783226  1
  H+  H66  1  0.29151317  0.39171497  0.85604104  1
  H+  H67  1  0.63804561  0.27919213  0.17361244  1
  H+  H68  1  0.66548133  0.33739127  0.23444608  1
  H+  H69  1  1.03745197  0.15761768  0.32682518  1
  H+  H70  1  1.01454449  0.37626135  0.65045414  1
  H+  H71  1  0.73132185  0.61484009  0.33158221  1
  H+  H72  1  0.37942922  0.26081717  0.43892576  1
  H+  H73  1  0.89591991  0.14823022  0.82627686  1
  H+  H74  1  0.35160793  0.89712646  0.34811830  1
  H+  H75  1  0.16788491  0.27591995  0.50384321  1
  H+  H76  1  0.15999718  0.85218381  0.23717868  1
  H+  H77  1  0.52978562  0.88499128  0.33763906  1
  H+  H78  1  0.64190110  0.75640636  0.66021729  1
  H+  H79  1  0.63889924  0.35547366  0.83653300  1
  H+  H80  1  0.96039521  0.10971495  0.97984808  1
  H+  H81  1  0.37026579  0.23334510  0.67366741  1
  H+  H82  1  0.87242544  -0.01670790  0.31729960  1
  H+  H83  1  0.10692751  0.97447724  0.48831568  1
  H+  H84  1  0.64318172  0.02539791  0.99956234  1
  H+  H85  1  0.86429100  0.86602816  0.84765439  1
  H+  H86  1  0.07922172  0.08107954  0.14191651  1
  H+  H87  1  0.35230338  0.12918233  0.01919637  1
  H+  H88  1  0.73646825  0.37822724  0.84647023  1
  H+  H89  1  1.02850587  0.13181637  0.53140244  1
  H+  H90  1  0.82712454  -0.07036568  0.16865727  1
  H+  H91  1  0.86190581  0.71603825  0.34258633  1
  H+  H92  1  0.40174948  0.26614715  0.36976763  1
  H+  H93  1  0.89428321  0.77852039  0.99972743  1
  H+  H94  1  0.67755902  0.34507477  0.60359358  1
  H+  H95  1  0.12948776  0.55233265  0.95705650  1
  H+  H96  1  0.36832898  0.39980560  1.00433110  1
  H+  H97  1  0.48122799  0.11675617  0.83868816  1
  H+  H98  1  0.38232641  0.84824881  0.66396224  1
  H+  H99  1  0.73407023  0.86475611  1.00441520  1
  H+  H100  1  0.62295475  0.17511806  0.50850972  1
  H+  H101  1  0.10314108  0.96611880  0.32938573  1
  H+  H102  1  0.14865083  0.39385893  0.35481255  1
  H+  H103  1  0.47030484  0.35443032  0.50560740  1
  H+  H104  1  -0.03186025  0.84985860  0.31892036  1
  H+  H105  1  0.61334318  0.46276811  0.82425826  1
  H+  H106  1  0.14686018  0.35214711  0.50829546  1
  H+  H107  1  0.17558944  0.63430841  0.50640978  1
  H+  H108  1  0.73431504  0.13976341  0.48022281  1
  H+  H109  1  0.82916748  0.08378035  0.13776392  1
  H+  H110  1  0.88685620  0.01341919  0.66515420  1
  H+  H111  1  0.77699122  0.64277434  0.66785749  1
  H+  H112  1  0.04590057  0.42225764  0.82909544  1
  H+  H113  1  0.35073205  -0.03542069  0.83150322  1
  H+  H114  1  0.13581560  0.19272105  0.34713981  1
  H+  H115  1  0.61482689  0.63448533  0.16262210  1
  H+  H116  1  0.58472948  0.95224000  0.82365974  1
  H+  H117  1  0.87894857  0.25419336  0.75496029  1
  H+  H118  1  0.84551642  0.85855470  0.33654710  1
  H+  H119  1  0.11728397  0.13767617  0.67910306  1
  H+  H120  1  0.41526294  0.39200856  0.33136432  1
  H+  H121  1  0.12956731  0.62322870  0.86744670  1
  H+  H122  1  1.02490228  0.13118345  0.68150121  1
  H+  H123  1  0.72536623  0.85619092  0.32171325  1
  H+  H124  1  0.03121636  0.88529026  0.01237370  1
  H+  H125  1  0.39569686  0.91825135  0.18257809  1
  H+  H126  1  0.76750197  0.39317955  -0.00087381  1
  H+  H127  1  0.39519771  0.12069861  0.53134182  1
  H+  H128  1  0.63727243  0.52166439  0.00388822  1
  H+  H129  1  0.21815944  0.88862949  0.17832093  1
  H+  H130  1  0.28111466  0.38491213  0.66909134  1
  H+  H131  1  0.77442095  0.63999996  0.49494687  1
  H+  H132  1  0.52037339  0.14529134  0.50616245  1
  H+  H133  1  0.30106475  0.36857785  0.36133485  1
  H+  H134  1  0.63517486  0.27457964  -0.00789642  1
  H+  H135  1  0.53946888  0.39777381  0.33977032  1
  H+  H136  1  0.39066491  0.36309328  0.65452405  1
  H+  H137  1  0.10539090  0.38070534  0.64538491  1
  H+  H138  1  0.63310941  0.72990497  0.15487964  1
  H+  H139  1  0.15174836  0.53972774  0.74155300  1
  H+  H140  1  0.39377617  0.03988412  0.33000997  1
  H+  H141  1  0.43916187  0.09378645  0.58160154  1
  H+  H142  1  0.40040172  0.52329131  0.50729168  1
  H+  H143  1  0.12082550  0.97015651  0.00161837  1
  H+  H144  1  0.63361672  0.11583060  0.17301106  1
  H+  H145  1  0.62136056  0.88995239  0.01229368  1
  H+  H146  1  0.19807675  0.06907711  0.15970188  1
  H+  H147  1  0.16934441  0.08893367  0.60210709  1
  H+  H148  1  0.87203357  0.07679702  0.50161483  1
  H+  H149  1  0.12980194  0.41487940  0.82584151  1
  H+  H150  1  0.85011756  0.36561500  0.17877622  1
  H+  H151  1  0.27997511  0.13402126  0.52414012  1
  H+  H152  1  0.88344725  0.60951531  0.33047936  1
  H+  H153  1  0.85688823  0.22210132  0.66275311  1
  H+  H154  1  0.35463496  0.75861117  0.31888504  1
  H+  H155  1  0.52604023  0.14853981  0.16313753  1
  H+  H156  1  0.67329857  0.15417387  0.82532860  1
  H+  H157  1  0.02773374  0.64772648  0.34313755  1
  H+  H158  1  0.61185893  0.72442672  0.33494291  1
  H+  H159  1  0.79645040  0.21975229  0.79618006  1
  H+  H160  1  0.15505565  0.34077346  1.00868995  1
  H+  H161  1  0.68535031  0.25002474  0.82313801  1
  H+  H162  1  0.88895771  0.23863917  0.19206539  1
  H+  H163  1  0.11984451  0.65463961  0.33763974  1
  H+  H164  1  0.83220222  0.16141791  0.05627724  1
  H+  H165  1  -0.00046974  0.42870882  0.36998109  1
  H+  H166  1  0.62110759  0.48880192  0.49789541  1
  H+  H167  1  0.45943416  0.83908199  0.83623249  1
  H+  H168  1  0.77907763  0.39234451  0.50022167  1
  H+  H169  1  0.89007151  0.86510228  0.65944535  1
  H+  H170  1  0.19642909  0.48480680  0.12985140  1
  H+  H171  1  0.38607633  0.36952260  0.16863054  1
  H+  H172  1  -0.00846081  0.60960728  0.18241801  1
  H+  H173  1  0.87048463  0.99256040  0.81913135  1
  H+  H174  1  0.84499195  0.67849837  0.75706499  1
  H+  H175  1  0.62634437  0.02327286  0.17453501  1
  H+  H176  1  0.27421179  0.63545311  0.34043948  1
  H+  H177  1  0.26411066  0.12771357  0.00871154  1
  H+  H178  1  0.38456929  0.01873571  1.00650203  1
  H+  H179  1  0.36143057  1.01029164  0.16866078  1
  H+  H180  1  0.13964908  0.87013623  0.50763328  1
  H+  H181  1  0.12505687  0.93155447  0.16506989  1
  H+  H182  1  0.37445570  0.88990039  0.82682779  1
  H+  H183  1  0.32755105  0.08546638  0.85385933  1
  H+  H184  1  0.86211805  0.36748576  0.14588814  1
  H+  H185  1  0.13239061  0.76602167  0.99448803  1
  H+  H186  1  0.36349854  0.76666580  0.13368236  1
  H+  H187  1  0.80659172  0.78152661  0.88334569  1
  H+  H188  1  0.57672490  0.87497223  0.16917916  1
  H+  H189  1  0.72164628  0.61267343  0.17864854  1
  H+  H190  1  0.81871006  0.88278300  0.07885474  1
  H+  H191  1  0.07878249  0.05526191  0.53985345  1
  H+  H192  1  0.86254716  0.64209434  1.00956451  1
  H+  H193  1  0.94216357  0.06261064  0.15767134  1
  H+  H194  1  0.64273630  0.61856872  0.51018688  1
  H+  H195  1  0.54579968  0.63884203  0.81680868  1
  H+  H196  1  0.13250429  0.33817524  0.13934652  1
  H+  H197  1  0.38684639  0.52316057  0.33020568  1
  H+  H198  1  0.08738677  0.17440192  0.14165150  1
  H+  H199  1  0.34369365  0.59854718  0.15306283  1
  H+  H200  1  0.10730435  0.35548798  0.34473276  1
  H+  H201  1  0.53382793  0.63760208  0.00501459  1
  H+  H202  1  0.13235757  0.86981389  0.32878739  1
  H+  H203  1  0.15947464  0.06481165  0.92312471  1
  H+  H204  1  0.88863991  0.10380414  0.65646840  1
  H+  H205  1  0.86640457  0.64061249  0.66905090  1
  H+  H206  1  0.26602976  0.35755862  0.13830113  1
  H+  H207  1  0.77205482  0.14207193  0.32793932  1
  H+  H208  1  0.64393036  0.38402349  0.51147014  1
  H+  H209  1  0.11143777  0.62818450  0.69301313  1
  H+  H210  1  0.51023464  0.90852589  0.16743015  1
  H+  H211  1  0.76446840  0.38832110  0.32838776  1
  H+  H212  1  0.48359334  0.64006689  0.17627164  1
  H+  H213  1  0.15145933  0.29797538  0.19567688  1
  H+  H214  1  0.50056700  0.13516100  0.67107248  1
  H+  H215  1  0.66402906  0.33243561  0.93125280  1
  H+  H216  1  0.13392001  0.85778451  0.66762429  1
  H+  H217  1  0.48562985  0.12514660  0.32920024  1
  H+  H218  1  0.64263355  0.60267765  0.82582598  1
  H+  H219  1  0.61511901  0.39015336  0.67177115  1
  H+  H220  1  0.20534121  0.24089346  0.41501344  1
  H+  H221  1  0.12278365  0.08879993  -0.01906498  1
  H+  H222  1  0.46977766  0.36179163  1.00334941  1
  H+  H223  1  0.37293544  0.98963808  0.50690594  1
  H+  H224  1  0.14276500  0.64439240  0.17580225  1
  H+  H225  1  0.02694239  -0.10411853  0.67674546  1
  H+  H226  1  0.87712050  0.41687545  0.84038165  1
  H+  H227  1  0.37690291  0.38179962  0.49742962  1
  H+  H228  1  0.83633607  0.08224071  0.48846421  1
  H+  H229  1  0.63123646  0.13883483  0.66897509  1
  H+  H230  1  0.89399261  0.53275180  0.17599170  1
  H+  H231  1  0.88166323  0.52495854  0.50964399  1
  H+  H232  1  0.52324727  0.13570229  0.00840774  1
  H+  H233  1  0.52742941  0.13429461  0.82983200  1
  H+  H234  1  0.38530492  0.28194856  0.17877794  1
  H+  H235  1  1.05019279  0.42545056  0.18846379  1
  H+  H236  1  0.38421741  0.47431644  0.85672779  1
  H+  H237  1  0.37645286  0.72247358  1.00969834  1
  H+  H238  1  0.28339184  0.14358737  0.67170504  1
  H+  H239  1  0.40963888  0.13135952  0.66804474  1
  H+  H240  1  0.39495717  0.73641984  0.48812809  1
  H+  H241  1  0.91329963  0.30819098  0.56824753  1
  H+  H242  1  0.32799056  0.77096644  0.11913721  1
  H+  H243  1  0.62911555  0.48408410  0.34276688  1
  H+  H244  1  0.34366601  0.21225178  0.82859050  1
  H+  H245  1  0.69432566  0.87712355  0.13757457  1
  H+  H246  1  0.98317547  0.39219211  1.00093280  1
  H+  H247  1  0.52538079  0.38832750  0.66791597  1
  H+  H248  1  0.39315541  0.87266729  0.51020462  1
  H+  H249  1  0.11776775  0.93787690  0.83894996  1
  H+  H250  1  0.13142083  0.09244782  0.30793056  1
  H+  H251  1  0.36492656  0.63786397  0.33332189  1
  H+  H252  1  0.77869372  0.91284965  0.83103247  1
  H+  H253  1  0.23154859  0.87700601  0.51541422  1
  H+  H254  1  0.14357456  0.03018995  0.66109924  1
  H+  H255  1  0.39061479  0.13269729  0.18455011  1
  H+  H256  1  0.60763739  -0.03806930  0.67298864  1
  H+  H257  1  0.63292690  0.62103842  0.00741108  1
  H+  H258  1  0.87497707  0.24593885  0.00755604  1
  H+  H259  1  0.88114960  0.53392557  0.98971474  1
  H+  H260  1  0.89276653  0.54513686  0.84605490  1
  H+  H261  1  0.21337295  0.09686245  0.82626085  1
  H+  H262  1  0.76817304  0.87614317  0.67003705  1
  H+  H263  1  0.33920438  -0.09220757  0.73006423  1
  H+  H264  1  0.52782188  0.63188159  0.49612492  1
  H+  H265  1  0.91742905  0.83943016  0.94234365  1
  H+  H266  1  0.89569943  0.63513833  0.83907731  1
  H+  H267  1  0.64306968  0.88134478  0.84668331  1
  H+  H268  1  0.01349624  0.34777745  0.49383487  1
  H+  H269  1  0.13183870  0.73507124  0.49773728  1
  H+  H270  1  0.42478666  0.60926526  0.23551227  1
  H+  H271  1  0.12664125  0.50704097  0.67526860  1
  H+  H272  1  0.86223280  0.39065090  0.32915769  1
  H+  H273  1  0.86410718  0.48822963  0.33150474  1
  H+  H274  1  0.63844789  0.84866260  0.65959509  1
  H+  H275  1  0.86573137  -0.11874051  1.01833881  1
  H+  H276  1  0.26364662  0.61288549  0.15016424  1
  H+  H277  1  0.01331357  0.63940560  0.01106262  1
  H+  H278  1  0.85551484  0.87223908  0.48666288  1
  H+  H279  1  -0.02160412  0.61162770  0.66692128  1
  H+  H280  1  0.37982047  0.27501589  0.00820403  1
  H+  H281  1  0.63416016  0.76469108  0.50977366  1
  H+  H282  1  0.39530900  0.86320780  -0.00920894  1
  H+  H283  1  0.64221274  0.37144733  0.33024470  1
  H+  H284  1  0.02898879  0.65682208  0.83588169  1
  H+  H285  1  0.64508677  0.77743770  0.99706022  1
  H+  H286  1  0.64300975  0.28061718  0.33132644  1
  H+  H287  1  0.26845168  0.86553728  0.67717352  1
  H+  H288  1  0.19247905  0.08541901  0.25927245  1
  H+  H289  1  0.66942909  0.58464672  0.27248128  1
  H+  H290  1  0.66629911  0.82455619  0.57053180  1
  H+  H291  1  0.09065460  0.62154827  0.02105119  1
  H+  H292  1  0.91033049  0.10856017  0.91476313  1
  H+  H293  1  0.14222353  0.84479148  0.90351966  1
  H+  H294  1  0.58674675  0.66657346  0.43562483  1
  H+  H295  1  0.37139446  0.47159061  0.66927145  1
  H+  H296  1  0.58054705  0.40390432  0.76611019  1
  H+  H297  1  0.66020252  0.06625716  0.90526387  1
  H+  H298  1  0.92337406  0.57941490  0.27281517  1
  H+  H299  1  0.65209824  0.28022753  0.66066488  1
  H+  H300  1  0.51851339  0.87265362  0.67230837  1
  H+  H301  1  0.32548828  0.95245649  0.10845215  1
  H+  H302  1  0.26919206  0.00075076  0.89041702  1
  H+  H303  1  0.08128416  0.41339395  0.44814399  1
  H+  H304  1  0.92095388  0.83419119  0.56335042  1
  H+  H305  1  0.38915918  0.07090106  0.94826798  1
  H+  H306  1  0.83956867  0.43477137  0.77945513  1
  H+  H307  1  0.99431573  0.46931947  0.20545751  1
  H+  H308  1  0.84102260  0.30208502  0.63100400  1
  H+  H309  1  0.31524066  0.85673503  0.05739996  1
  H+  H310  1  0.58747254  0.05786867  0.50573881  1
  H+  H311  1  0.90922257  0.58458634  0.56834232  1
  H+  H312  1  0.42599498  0.10082010  0.24093338  1
  H+  H313  1  0.41144206  0.86968281  0.23778640  1
  H+  H314  1  0.95539616  0.37030693  0.28047925  1
  H+  H315  1  0.58615300  0.41847154  0.06744453  1
  H+  H316  1  0.65418541  0.06338557  0.59703198  1
  H+  H317  1  0.41694250  0.33020462  0.59413031  1
  H+  H318  1  0.67416529  0.59130592  0.57140420  1
  H+  H319  1  0.08921983  0.67961161  0.77839486  1
  H+  H320  1  0.67679652  0.83813297  0.25809802  1
  H+  H321  1  0.79928656  0.18186326  0.42442137  1
  H+  H322  1  0.82725529  0.91069088  0.73062379  1
  H+  H323  1  0.91655865  0.60238942  0.93441275  1
  H+  H324  1  0.02943280  0.50563588  0.41674422  1
  H+  H325  1  0.40872327  0.81611671  0.89851120  1
  H+  H326  1  0.58205758  0.91756289  0.06832410  1
  H+  H327  1  0.11720870  0.80190213  0.83974624  1
  H+  H328  1  0.07286895  0.91364796  0.39317417  1
  H+  H329  1  0.96655881  0.03932003  0.29471383  1
  H+  H330  1  0.35845298  0.43069543  0.41217449  1
  H+  H331  1  0.59341746  0.66549384  0.06876638  1
  H+  H332  1  0.58900362  0.90054247  0.43447358  1
  H+  H333  1  0.59088917  0.17689119  0.40459726  1
  H+  H334  1  0.63892944  0.18685899  0.73087191  1
  H+  H335  1  0.17442924  0.32747087  0.59943903  1
  H+  H336  1  0.29443231  0.78590749  0.28623221  1
  H+  H337  1  0.66289493  0.08515592  0.26563529  1
  H+  H338  1  0.23696796  0.39231141  0.25921002  1
  H+  H339  1  0.81967483  0.43841151  0.05885230  1
  H+  H340  1  0.44725680  0.59919809  0.89487248  1
  H+  H341  1  0.16731954  0.35330565  0.90053886  1
  H+  H342  1  0.31217197  0.16132355  0.10815612  1
  H+  H343  1  0.42895533  0.58242875  0.60098301  1
  H+  H344  1  0.13978124  0.28692749  0.84514025  1
  H+  H345  1  0.33812973  0.93474875  0.44543733  1
  H+  H346  1  0.56819884  0.89623966  0.76364774  1
  H+  H347  1  0.16029724  0.83041027  0.60615888  1
  H+  H348  1  0.64578800  0.53559561  0.66053657  1
  H+  H349  1  0.41682164  0.82643363  0.60293878  1
  H+  H350  1  0.74899659  0.41960835  0.15358320  1
  H+  H351  1  0.34632531  0.65398111  0.76462565  1
  H+  H352  1  0.89152180  0.04124412  0.22052481  1
  H+  H353  1  0.61765048  0.88499259  0.33051951  1
  H+  H354  1  0.51942871  0.39084366  0.16007458  1
  H+  H355  1  0.27034796  0.90656737  0.34876212  1
  H+  H356  1  0.11421284  0.44422607  0.08698572  1
  H+  H357  1  0.68306502  0.86752605  0.90861680  1
  H+  H358  1  0.81934770  0.13723452  0.71462781  1
  H+  H359  1  0.36244600  0.71615253  0.66989819  1
  H+  H360  1  0.48570906  0.86655786  -0.00660245  1
  H+  H361  1  0.08390531  0.17088195  0.77001505  1
  H+  H362  1  0.18516522  0.58456994  0.56066934  1
  H+  H363  1  0.10645563  0.68310036  0.43653004  1
  H+  H364  1  0.08149959  0.68616415  0.10529984  1
  H+  H365  1  0.10923442  0.95407768  0.09896931  1
  H+  H366  1  0.81766702  0.89022262  0.39824617  1
  H+  H367  1  0.08818140  0.93949550  0.73479582  1
  H+  H368  1  0.14757515  0.42051279  -0.01039544  1
  H+  H369  1  0.05150455  0.11994386  0.05414969  1
  H+  H370  1  0.86115269  0.38370790  0.69227498  1
  H+  H371  1  0.33260846  0.64159712  0.05673465  1
  H+  H372  1  0.58400854  0.17218561  0.10258599  1
  H+  H373  1  0.60583311  0.66927817  0.75766191  1
  H+  H374  1  0.31865093  0.15724541  0.76596814  1
  H+  H375  1  0.21567978  0.34601517  0.26940409  1
  H+  H376  1  0.16410987  0.59537937  0.27075855  1
  H+  H377  1  0.96773074  0.07611423  0.58546910  1
  H+  H378  1  0.37087744  0.68310677  0.42704176  1
  H+  H379  1  0.83275720  0.65937897  0.40449765  1
  H+  H380  1  0.93177989  0.36365791  0.90971204  1
  H+  H381  1  0.38759232  0.34257034  0.85841278  1
  H+  H382  1  0.86104390  0.63415542  0.49640319  1
  H+  H383  1  0.61518823  0.63762186  0.33996322  1
  O2-  O384  1  0.05175288  0.11352757  0.12811521  1
  O2-  O385  1  0.14782706  0.19507768  0.46838946  1
  O2-  O386  1  0.07883841  0.17018539  0.81612596  1
  O2-  O387  1  0.13496461  0.43706241  0.12864533  1
  O2-  O388  1  0.06822110  0.36298574  0.47289032  1
  O2-  O389  1  0.10553674  0.45177767  0.81362685  1
  O2-  O390  1  0.08622012  0.68980712  0.15062348  1
  O2-  O391  1  0.11420072  0.67783591  0.48033600  1
  O2-  O392  1  0.09054185  0.68925990  0.82317468  1
  O2-  O393  1  0.11917782  0.97586420  0.14166529  1
  O2-  O394  1  0.08191838  0.91481938  0.47106004  1
  O2-  O395  1  0.10259900  0.97782616  0.81644306  1
  O2-  O396  1  0.31916955  0.16648216  0.15407321  1
  O2-  O397  1  0.33801634  0.16305730  0.54055178  1
  O2-  O398  1  0.30520791  0.15054754  0.81099438  1
  O2-  O399  1  0.32690109  0.40204791  0.13708070  1
  O2-  O400  1  0.35264517  0.42283248  0.48384719  1
  O2-  O401  1  0.35120545  0.41239289  0.86839532  1
  O2-  O402  1  0.29105111  0.58517925  0.12812371  1
  O2-  O403  1  0.40623846  0.69676100  0.46408116  1
  O2-  O404  1  0.34332105  0.64690339  0.80957002  1
  O2-  O405  1  0.32494606  0.94890123  0.15293504  1
  O2-  O406  1  0.34002824  0.92963001  0.49040405  1
  O2-  O407  1  0.37186440  0.93632518  0.80405433  1
  O2-  O408  1  0.58656367  0.17481471  0.14797665  1
  O2-  O409  1  0.57985050  0.17920686  0.48417062  1
  O2-  O410  1  0.69665524  0.20790457  0.80092139  1
  O2-  O411  1  0.58121129  0.42028264  0.14592555  1
  O2-  O412  1  0.59314485  0.42759248  0.48338366  1
  O2-  O413  1  0.58316263  0.40023933  0.81134762  1
  O2-  O414  1  0.59225826  0.66985372  0.14339410  1
  O2-  O415  1  0.58960608  0.66599560  0.48066829  1
  O2-  O416  1  0.60666159  0.66601665  0.80355324  1
  O2-  O417  1  0.56622297  0.91622416  0.14775624  1
  O2-  O418  1  0.58650409  0.90196152  0.47928920  1
  O2-  O419  1  0.56240949  0.89283928  0.80949921  1
  O2-  O420  1  0.79705303  0.10554880  0.11414399  1
  O2-  O421  1  0.78050328  0.19435222  0.46322403  1
  O2-  O422  1  0.85525021  0.22544117  0.79401880  1
  O2-  O423  1  0.79586536  0.46970855  0.13068923  1
  O2-  O424  1  0.83946180  0.42178010  0.48573384  1
  O2-  O425  1  0.84102056  0.44094094  0.82479168  1
  O2-  O426  1  0.83486652  0.68777565  0.15530809  1
  O2-  O427  1  0.83415589  0.66773622  0.47776731  1
  O2-  O428  1  0.84557833  0.67646827  0.80294659  1
  O2-  O429  1  0.79242407  0.86595537  0.15933118  1
  O2-  O430  1  0.81984339  0.89322933  0.46658478  1
  O2-  O431  1  0.83657306  0.93045771  0.81115369  1
  O2-  O432  1  0.23164596  0.12901429  0.17852095  1
  O2-  O433  1  0.13718028  0.06810721  0.52565642  1
  O2-  O434  1  0.15040476  0.06278797  0.84569606  1
  O2-  O435  1  0.14175578  0.28951415  0.15189593  1
  O2-  O436  1  0.18649327  0.33359377  0.52535694  1
  O2-  O437  1  0.16927668  0.34848604  0.85569099  1
  O2-  O438  1  0.17086721  0.61188022  0.19181348  1
  O2-  O439  1  0.20970377  0.60804375  0.52106501  1
  O2-  O440  1  0.14818757  0.58679281  0.88860467  1
  O2-  O441  1  0.15704168  0.85585907  0.19167452  1
  O2-  O442  1  0.17013915  0.84346463  0.52813863  1
  O2-  O443  1  0.13192557  0.85627146  0.86125211  1
  O2-  O444  1  0.42365133  0.10369275  0.19402809  1
  O2-  O445  1  0.43275281  0.09267614  0.53520959  1
  O2-  O446  1  0.32931022  0.04177875  0.88176633  1
  O2-  O447  1  0.41987993  0.34392238  0.18786235  1
  O2-  O448  1  0.40827369  0.32361741  0.51341734  1
  O2-  O449  1  0.40720031  0.29970403  0.85276014  1
  O2-  O450  1  0.43077607  0.63423705  0.19428549  1
  O2-  O451  1  0.43328597  0.58438238  0.52238024  1
  O2-  O452  1  0.44094154  0.58692117  0.85075270  1
  O2-  O453  1  0.43981336  0.90916662  0.20302050  1
  O2-  O454  1  0.42022695  0.83904061  0.52446721  1
  O2-  O455  1  0.40031762  0.81287026  0.85388422  1
  O2-  O456  1  0.66208793  0.08380707  0.18844896  1
  O2-  O457  1  0.63860940  0.05493095  0.51660124  1
  O2-  O458  1  0.66127468  0.06047031  0.85975176  1
  O2-  O459  1  0.66307257  0.33954881  0.18906221  1
  O2-  O460  1  0.67106064  0.34949955  0.52676383  1
  O2-  O461  1  0.67565009  0.33330633  0.85564241  1
  O2-  O462  1  0.66135741  0.58065702  0.19294734  1
  O2-  O463  1  0.67401062  0.58905624  0.52503172  1
  O2-  O464  1  0.66842414  0.56693431  0.84043452  1
  O2-  O465  1  0.70351027  0.84664729  0.17122375  1
  O2-  O466  1  0.66407928  0.82604922  0.52403924  1
  O2-  O467  1  0.69733312  0.89660973  0.86846916  1
  O2-  O468  1  0.88351889  0.03625286  0.17500122  1
  O2-  O469  1  0.99410248  0.07297216  0.54625122  1
  O2-  O470  1  0.91710897  0.11272910  0.84550783  1
  O2-  O471  1  1.02175620  0.43819971  0.22213881  1
  O2-  O472  1  0.91197479  0.31975085  0.52455663  1
  O2-  O473  1  0.93592183  0.37205588  0.86454958  1
  O2-  O474  1  0.94479983  0.55765531  0.20305279  1
  O2-  O475  1  0.90409446  0.58538767  0.52365846  1
  O2-  O476  1  0.92365076  0.60599375  0.86091338  1
  O2-  O477  1  0.88046331  0.76244978  0.17930035  1
  O2-  O478  1  0.91992203  0.83213036  0.51800257  1
  O2-  O479  1  0.86602330  0.81807829  0.87038958  1
  O2-  O480  1  0.16409787  0.06307598  0.29864907  1
  O2-  O481  1  0.17339615  0.09151173  0.64753020  1
  O2-  O482  1  0.16280713  0.06884720  0.96863145  1
  O2-  O483  1  0.23304676  0.25929863  0.37170115  1
  O2-  O484  1  0.16812800  0.33203957  0.64481382  1
  O2-  O485  1  0.17822912  0.38679702  0.97882365  1
  O2-  O486  1  0.16967352  0.60092113  0.31588752  1
  O2-  O487  1  0.15829628  0.56205560  0.69986238  1
  O2-  O488  1  0.12305913  0.54585374  1.00341812  1
  O2-  O489  1  0.17022666  0.84693361  0.31387034  1
  O2-  O490  1  0.15772173  0.82266725  0.65135585  1
  O2-  O491  1  0.16554861  0.82751960  0.98115456  1
  O2-  O492  1  0.42788938  0.09689344  0.31038068  1
  O2-  O493  1  0.44265850  0.10434364  0.65312637  1
  O2-  O494  1  0.40944656  0.07806933  0.99147802  1
  O2-  O495  1  0.44576965  0.36329294  0.31309420  1
  O2-  O496  1  0.42213244  0.33251827  0.63980443  1
  O2-  O497  1  0.40737630  0.33619798  0.99770778  1
  O2-  O498  1  0.41524289  0.58317733  0.31361993  1
  O2-  O499  1  0.42867561  0.57980017  0.64628300  1
  O2-  O500  1  0.45112860  0.60197146  0.97802746  1
  O2-  O501  1  0.35344272  0.81037590  0.30058360  1
  O2-  O502  1  0.41695846  0.82114118  0.64807150  1
  O2-  O503  1  0.42501552  0.83189759  0.97917937  1
  O2-  O504  1  0.66755786  0.08723011  0.31128947  1
  O2-  O505  1  0.66138317  0.06886295  0.64182940  1
  O2-  O506  1  0.66747090  0.08408227  0.98070261  1
  O2-  O507  1  0.67183815  0.33986757  0.31273269  1
  O2-  O508  1  0.67935832  0.34237462  0.64917921  1
  O2-  O509  1  0.66358428  0.33500554  0.97714227  1
  O2-  O510  1  0.66973396  0.58579277  0.31773297  1
  O2-  O511  1  0.67862532  0.59500319  0.64459842  1
  O2-  O512  1  0.66740718  0.58553657  0.99260438  1
  O2-  O513  1  0.66637065  0.83362005  0.30218267  1
  O2-  O514  1  0.67223225  0.82362326  0.64291913  1
  O2-  O515  1  0.67370448  0.83963867  0.98763432  1
  O2-  O516  1  0.91145964  0.03794089  0.29388172  1
  O2-  O517  1  0.92445315  0.07531005  0.65326685  1
  O2-  O518  1  0.90536745  0.10178246  0.96165129  1
  O2-  O519  1  0.92170645  0.35165947  0.31907816  1
  O2-  O520  1  0.88551265  0.30115379  0.65605558  1
  O2-  O521  1  0.92144825  0.35100840  0.98808891  1
  O2-  O522  1  0.91540767  0.57856651  0.31825862  1
  O2-  O523  1  0.91808035  0.58383162  0.65120889  1
  O2-  O524  1  0.91273784  0.59687128  0.98049500  1
  O2-  O525  1  0.90589546  0.81348181  0.30721356  1
  O2-  O526  1  0.92613651  0.84057289  0.64479608  1
  O2-  O527  1  0.92808050  0.83989770  0.98686052  1
  O2-  O528  1  0.05387915  0.12881394  0.00840224  1
  O2-  O529  1  0.07718953  0.13979129  0.34173135  1
  O2-  O530  1  0.08572160  0.16576221  0.69631318  1
  O2-  O531  1  0.08609355  0.45320435  0.01709581  1
  O2-  O532  1  0.05040674  0.47804959  0.38878952  1
  O2-  O533  1  0.07543251  0.41461785  0.64091537  1
  O2-  O534  1  0.07305253  0.66537968  0.02789773  1
  O2-  O535  1  0.08915033  0.68424010  0.35371674  1
  O2-  O536  1  0.07974683  0.66021243  0.69829584  1
  O2-  O537  1  0.09308523  0.91515820  0.02518305  1
  O2-  O538  1  0.06853641  0.90725033  0.34766754  1
  O2-  O539  1  0.08823096  0.92717043  0.69113495  1
  O2-  O540  1  0.31841827  0.15642731  0.03234537  1
  O2-  O541  1  0.36143668  0.22696256  0.40047210  1
  O2-  O542  1  0.34058749  0.17386445  0.69191851  1
  O2-  O543  1  0.35000149  0.44227619  0.01729893  1
  O2-  O544  1  0.35373948  0.42667694  0.36562488  1
  O2-  O545  1  0.34182183  0.41000819  0.68176545  1
  O2-  O546  1  0.35438124  0.66045263  0.01487971  1
  O2-  O547  1  0.33692310  0.67057928  0.34873482  1
  O2-  O548  1  0.33844458  0.65608509  0.68562955  1
  O2-  O549  1  0.32038446  0.89825924  0.02665265  1
  O2-  O550  1  0.33076195  0.93454669  0.36443503  1
  O2-  O551  1  0.33011385  0.89071746  0.68646479  1
  O2-  O552  1  0.58394122  0.16820298  0.02252392  1
  O2-  O553  1  0.59465550  0.17990496  0.35934881  1
  O2-  O554  1  0.61543104  0.17920413  0.68899492  1
  O2-  O555  1  0.58805281  0.42327632  0.02206345  1
  O2-  O556  1  0.59989621  0.42271398  0.35671272  1
  O2-  O557  1  0.58419833  0.41932647  0.68669820  1
  O2-  O558  1  0.59738768  0.66527332  0.02294884  1
  O2-  O559  1  0.58269961  0.66643510  0.35355567  1
  O2-  O560  1  0.60811838  0.67464883  0.68161224  1
  O2-  O561  1  0.59040736  0.92179824  0.02346148  1
  O2-  O562  1  0.58990344  0.91592886  0.35001641  1
  O2-  O563  1  0.57902018  0.90211844  0.68892082  1
  O2-  O564  1  0.84424744  0.18130654  0.01171695  1
  O2-  O565  1  0.83299644  0.17753525  0.34317063  1
  O2-  O566  1  0.82651990  0.14687020  0.67083338  1
  O2-  O567  1  0.82757718  0.42864891  0.01544116  1
  O2-  O568  1  0.82929390  0.42132934  0.34072862  1
  O2-  O569  1  0.83479409  0.41907156  0.70267532  1
  O2-  O570  1  0.83090096  0.67196881  0.02507702  1
  O2-  O571  1  0.83197414  0.65560448  0.35810309  1
  O2-  O572  1  0.83937245  0.67487127  0.68222140  1
  O2-  O573  1  0.82873034  0.90235454  0.03607785  1
  O2-  O574  1  0.81716607  0.89086120  0.35077408  1
  O2-  O575  1  0.82998583  0.90939600  0.68556572  1
