# generated using pymatgen
data_H2O
_symmetry_space_group_name_H-M   'P 1'
_cell_length_a   17.99714017
_cell_length_b   17.99471437
_cell_length_c   21.99017407
_cell_angle_alpha   89.98986136
_cell_angle_beta   90.02836323
_cell_angle_gamma   119.99907791
_symmetry_Int_Tables_number   1
_chemical_formula_structural   H2O
_chemical_formula_sum   'H384 O192'
_cell_volume   6167.53660733
_cell_formula_units_Z   192
loop_
 _symmetry_equiv_pos_site_id
 _symmetry_equiv_pos_as_xyz
  1  'x, y, z'
loop_
 _atom_type_symbol
 _atom_type_oxidation_number
  H+  1.0
  O2-  -2.0
loop_
 _atom_site_type_symbol
 _atom_site_label
 _atom_site_symmetry_multiplicity
 _atom_site_fract_x
 _atom_site_fract_y
 _atom_site_fract_z
 _atom_site_occupancy
  H+  H0  1  0.27874311  0.38113530  0.34020755  1
  H+  H1  1  0.01983675  0.62918473  0.00524192  1
  H+  H2  1  0.88325920  0.11646206  0.84462869  1
  H+  H3  1  0.63018435  0.22829181  0.48321607  1
  H+  H4  1  0.14580207  0.28051961  0.32120295  1
  H+  H5  1  0.14775746  0.55855051  0.17887752  1
  H+  H6  1  0.63798603  0.36309968  0.85178322  1
  H+  H7  1  0.39175263  1.02025269  0.32577988  1
  H+  H8  1  0.35925091  0.58342636  0.65084409  1
  H+  H9  1  0.90468700  0.28190526  -0.00701988  1
  H+  H10  1  0.15153752  0.78295797  0.83017274  1
  H+  H11  1  0.38668815  0.35650702  0.32230261  1
  H+  H12  1  0.99277103  0.12634868  0.32080791  1
  H+  H13  1  0.47581664  0.96916217  0.64132525  1
  H+  H14  1  0.35741107  0.97360485  0.00588780  1
  H+  H15  1  0.82800118  0.15356271  0.39874196  1
  H+  H16  1  0.15701504  0.30909755  1.05193818  1
  H+  H17  1  0.64884775  0.04100697  0.84210082  1
  H+  H18  1  0.34176349  0.16067379  0.41309706  1
  H+  H19  1  0.75336704  0.13440366  0.31597595  1
  H+  H20  1  0.38033867  0.34995297  0.82790320  1
  H+  H21  1  0.36988777  0.20599455  0.67263514  1
  H+  H22  1  0.57827733  0.46860410  -0.01206005  1
  H+  H23  1  0.23031387  0.86830794  0.32924952  1
  H+  H24  1  0.36377277  0.98858646  0.82495727  1
  H+  H25  1  0.10498814  0.63952170  0.49252883  1
  H+  H26  1  0.10454554  0.97261662  0.79317940  1
  H+  H27  1  0.87043627  0.23933520  0.83580537  1
  H+  H28  1  0.60718013  0.94219145  0.14875721  1
  H+  H29  1  0.97962812  0.87320940  0.98735593  1
  H+  H30  1  0.33596122  0.60311831  0.47910733  1
  H+  H31  1  0.38540156  0.90514828  0.66394476  1
  H+  H32  1  0.74190728  0.96685183  0.12882266  1
  H+  H33  1  0.72911025  0.37769882  0.50045265  1
  H+  H34  1  0.20892603  0.41564340  0.62365315  1
  H+  H35  1  0.86104754  0.72488158  0.36597230  1
  H+  H36  1  0.88627533  0.61326834  0.99788416  1
  H+  H37  1  0.85331396  0.84388903  0.54321381  1
  H+  H38  1  0.72975532  0.31370465  0.54730623  1
  H+  H39  1  0.79589613  0.17815539  0.14519438  1
  H+  H40  1  0.52927003  0.38559740  0.32229911  1
  H+  H41  1  0.60320410  0.22538081  0.68216969  1
  H+  H42  1  0.97424344  0.36019344  0.83892123  1
  H+  H43  1  0.90367321  0.86121473  0.33739138  1
  H+  H44  1  0.59090516  0.70817110  0.34742040  1
  H+  H45  1  0.61607723  0.47633885  0.32647131  1
  H+  H46  1  0.40204088  0.53031922  0.17016281  1
  H+  H47  1  0.87868202  0.87668162  0.12131436  1
  H+  H48  1  0.02753726  0.64529140  0.33510424  1
  H+  H49  1  0.83649623  0.16182050  0.75221367  1
  H+  H50  1  0.65367700  0.61710837  0.67253187  1
  H+  H51  1  0.36410231  0.45521446  0.67856257  1
  H+  H52  1  0.57141672  0.95223970  0.34270026  1
  H+  H53  1  0.36340519  0.39854570  0.15144537  1
  H+  H54  1  0.53830818  0.64178536  1.00951473  1
  H+  H55  1  0.38466675  0.11028452  -0.00606786  1
  H+  H56  1  0.88325750  0.36046630  0.84423504  1
  H+  H57  1  0.68057984  0.84123546  0.35083177  1
  H+  H58  1  0.58046175  0.86848602  0.33583019  1
  H+  H59  1  0.59628026  0.39173240  0.15037321  1
  H+  H60  1  0.12284285  0.66004445  0.82151258  1
  H+  H61  1  0.35166460  0.22291317  0.85047108  1
  H+  H62  1  0.16271569  0.42594482  0.50372105  1
  H+  H63  1  0.87006139  0.74473577  0.53227711  1
  H+  H64  1  0.38664031  0.29804868  0.13454570  1
  H+  H65  1  0.67447895  0.58454564  0.23547976  1
  H+  H66  1  0.87727860  0.05156398  0.16706512  1
  H+  H67  1  0.17036652  0.84515201  0.24158036  1
  H+  H68  1  0.51260362  0.87959749  0.20984023  1
  H+  H69  1  0.61101601  0.47152655  0.83264889  1
  H+  H70  1  0.38489108  0.50968704  0.32847574  1
  H+  H71  1  0.39821881  0.62268402  -0.01478030  1
  H+  H72  1  0.98224999  0.62204500  0.50577231  1
  H+  H73  1  0.47485082  0.10541091  0.16695538  1
  H+  H74  1  0.97114920  0.11199139  0.84671275  1
  H+  H75  1  0.10048773  0.87411252  0.00055352  1
  H+  H76  1  0.87142840  0.25004597  0.66707684  1
  H+  H77  1  0.50179815  0.12278684  -0.00257859  1
  H+  H78  1  0.62341134  0.48180777  0.51175173  1
  H+  H79  1  0.67567631  0.55639152  1.01739944  1
  H+  H80  1  0.10389970  0.12318762  0.14328182  1
  H+  H81  1  0.54742309  0.92011984  0.83406553  1
  H+  H82  1  0.42306880  0.07216442  0.23038922  1
  H+  H83  1  0.62888564  0.64053879  0.01068548  1
  H+  H84  1  0.64477506  0.07449834  0.58543613  1
  H+  H85  1  0.78305920  0.65382058  -0.00092881  1
  H+  H86  1  -0.00809206  0.36323546  0.34008397  1
  H+  H87  1  0.36728390  0.13308628  0.32414251  1
  H+  H88  1  0.23094359  0.87314540  0.17435858  1
  H+  H89  1  0.89024878  0.52338455  0.30746638  1
  H+  H90  1  0.61268949  0.72026326  0.49888618  1
  H+  H91  1  0.50905142  0.61580001  0.34729808  1
  H+  H92  1  0.09621605  0.52402500  0.50785817  1
  H+  H93  1  0.46775114  0.34675260  0.82628981  1
  H+  H94  1  0.79738112  0.65915668  0.68634861  1
  H+  H95  1  0.08592657  0.90873246  0.73644574  1
  H+  H96  1  0.85794385  0.37584361  0.56379408  1
  H+  H97  1  0.59895608  0.82259569  0.14064108  1
  H+  H98  1  0.58300216  0.17301075  0.77597460  1
  H+  H99  1  0.89349980  0.61207712  0.29266939  1
  H+  H100  1  0.64634103  0.86769805  0.66156152  1
  H+  H101  1  0.62811521  0.61113739  0.33032919  1
  H+  H102  1  0.29380175  0.14147928  0.47937969  1
  H+  H103  1  0.85667930  0.12661144  0.00048931  1
  H+  H104  1  0.09286713  0.64382744  0.15939587  1
  H+  H105  1  0.23440355  0.38716876  0.16605831  1
  H+  H106  1  0.60304330  0.24103147  0.14222852  1
  H+  H107  1  0.35737531  0.75171993  0.31560507  1
  H+  H108  1  0.91012449  0.36507150  0.17184554  1
  H+  H109  1  0.90242178  0.36164973  0.33309805  1
  H+  H110  1  0.67473115  0.07883226  0.15217877  1
  H+  H111  1  0.27859029  0.89690603  0.82632624  1
  H+  H112  1  0.71324102  0.40445817  0.16582333  1
  H+  H113  1  0.05418598  0.42872652  0.16453599  1
  H+  H114  1  0.27619779  0.37004675  0.67828199  1
  H+  H115  1  0.14929308  0.37060858  0.32460170  1
  H+  H116  1  0.90298509  0.66657231  0.51869294  1
  H+  H117  1  0.62069398  0.89258799  -0.00043756  1
  H+  H118  1  0.85776806  0.97511860  0.82853339  1
  H+  H119  1  0.08716714  0.46506311  0.67009127  1
  H+  H120  1  0.36811308  0.47230934  0.83000377  1
  H+  H121  1  0.27280428  0.40109622  1.00702166  1
  H+  H122  1  0.75093422  0.36630646  0.68123753  1
  H+  H123  1  0.09715945  0.20437081  -0.00815182  1
  H+  H124  1  0.60542315  0.13048379  -0.00223940  1
  H+  H125  1  0.14097228  0.42782955  0.16072783  1
  H+  H126  1  0.45013824  0.34498833  0.99708050  1
  H+  H127  1  0.38052343  0.32463347  0.67763240  1
  H+  H128  1  -0.01475764  0.38293063  0.49496283  1
  H+  H129  1  0.13771607  0.02483642  0.32302118  1
  H+  H130  1  0.67651536  0.05013856  0.28879484  1
  H+  H131  1  0.08249154  0.69272270  0.63072120  1
  H+  H132  1  0.03305727  0.39749499  0.00927895  1
  H+  H133  1  1.03204465  0.88641131  0.34595194  1
  H+  H134  1  0.33725949  0.40442800  0.40087766  1
  H+  H135  1  0.66732949  0.76197562  0.19230710  1
  H+  H136  1  0.35981066  0.96111513  0.16182552  1
  H+  H137  1  0.89656855  0.24277501  0.50875412  1
  H+  H138  1  0.62430322  0.63384352  0.84830261  1
  H+  H139  1  0.41531357  0.61530383  0.82498501  1
  H+  H140  1  0.12748744  0.61177826  0.33838040  1
  H+  H141  1  -0.00952494  0.62542389  0.69327045  1
  H+  H142  1  0.64441292  0.86799091  0.84644884  1
  H+  H143  1  0.59549921  0.17195494  0.38812101  1
  H+  H144  1  0.32069428  0.67288449  0.67564223  1
  H+  H145  1  0.80508236  0.93972001  0.09826054  1
  H+  H146  1  0.45503776  0.59866873  0.66175702  1
  H+  H147  1  0.10467010  0.21759213  0.84092843  1
  H+  H148  1  0.41361096  0.90810252  0.84396557  1
  H+  H149  1  0.81459897  0.90588416  0.33471050  1
  H+  H150  1  0.14061632  0.58349742  0.69735900  1
  H+  H151  1  0.36280787  0.34593333  0.00118139  1
  H+  H152  1  0.36244612  0.75294928  0.83015549  1
  H+  H153  1  0.66883991  0.83217091  -0.06417054  1
  H+  H154  1  0.20958646  0.08848527  0.16861833  1
  H+  H155  1  0.13114497  0.09710274  0.97969151  1
  H+  H156  1  0.56739455  0.43773798  0.65183518  1
  H+  H157  1  0.39617127  0.74782554  0.81242260  1
  H+  H158  1  0.13969116  0.77839986  0.32637712  1
  H+  H159  1  0.32791927  0.85735742  0.16046460  1
  H+  H160  1  0.63886137  0.36879099  0.31253440  1
  H+  H161  1  0.34531238  0.78746361  0.23340653  1
  H+  H162  1  0.86687601  0.88929217  0.66427671  1
  H+  H163  1  0.64045573  0.77336599  -0.00274060  1
  H+  H164  1  0.14751374  0.25319367  0.51030263  1
  H+  H165  1  0.77816834  0.15097533  0.83561247  1
  H+  H166  1  0.36605211  0.22253178  0.32455304  1
  H+  H167  1  0.10583196  0.96541804  0.00101407  1
  H+  H168  1  0.89119714  0.78473641  0.64714539  1
  H+  H169  1  0.87565607  0.22684995  0.34699319  1
  H+  H170  1  0.47540468  0.33477425  0.67587455  1
  H+  H171  1  0.61411990  0.36173607  0.66812543  1
  H+  H172  1  0.86482048  0.39429451  0.53226422  1
  H+  H173  1  0.71896485  0.61912640  0.33915855  1
  H+  H174  1  0.37196193  0.38229628  0.49815883  1
  H+  H175  1  0.12674029  0.98687658  0.49665983  1
  H+  H176  1  0.12312859  0.14251686  0.33267205  1
  H+  H177  1  0.57815807  0.65113254  0.61433322  1
  H+  H178  1  0.61248454  0.38907666  0.51417515  1
  H+  H179  1  0.88210447  0.87923597  0.98768492  1
  H+  H180  1  0.28592132  0.59767629  0.14003187  1
  H+  H181  1  0.84189922  0.10803909  0.49567243  1
  H+  H182  1  0.39462057  0.13287811  0.47892207  1
  H+  H183  1  0.12024831  0.48515180  0.34644170  1
  H+  H184  1  0.16066885  0.39912404  0.47677987  1
  H+  H185  1  0.10607926  0.72164146  0.00105820  1
  H+  H186  1  0.26387100  0.62189715  0.32438210  1
  H+  H187  1  0.10290762  0.72861711  0.49078951  1
  H+  H188  1  0.83738647  0.62868739  0.38241680  1
  H+  H189  1  0.55563481  0.78781241  0.13023890  1
  H+  H190  1  0.61211169  0.23156372  0.83751134  1
  H+  H191  1  0.35793462  0.46313595  0.49314132  1
  H+  H192  1  0.71981984  0.13110235  0.63391732  1
  H+  H193  1  0.47775111  0.12102506  0.84475841  1
  H+  H194  1  0.26902349  0.11772493  0.68495761  1
  H+  H195  1  0.60727059  0.96868193  0.49312031  1
  H+  H196  1  0.88141063  0.01397996  0.51764525  1
  H+  H197  1  0.96249153  0.10145210  0.98793378  1
  H+  H198  1  0.49728649  0.13361086  0.48495904  1
  H+  H199  1  0.12386802  0.89475564  0.34151433  1
  H+  H200  1  0.47304588  0.37305592  0.16030774  1
  H+  H201  1  0.34068833  0.73626947  0.17221697  1
  H+  H202  1  0.23417100  0.59801786  0.64756005  1
  H+  H203  1  0.63919290  0.12643159  0.84272083  1
  H+  H204  1  0.13125435  0.36725827  1.01400690  1
  H+  H205  1  0.88146236  0.16585719  0.14915620  1
  H+  H206  1  -0.03530617  0.59127637  0.14952174  1
  H+  H207  1  0.27329269  0.54226243  0.83837632  1
  H+  H208  1  0.62204794  0.72254856  0.84312915  1
  H+  H209  1  0.84879822  0.40433889  0.26836832  1
  H+  H210  1  0.95483136  0.34265417  0.66102886  1
  H+  H211  1  1.02774479  0.14318672  0.14336661  1
  H+  H212  1  0.21310479  0.65975681  0.19710863  1
  H+  H213  1  0.83653735  0.83488465  0.12015896  1
  H+  H214  1  0.66115240  0.53370977  0.68285373  1
  H+  H215  1  0.60835004  0.13994742  0.67916125  1
  H+  H216  1  0.47095478  0.60116869  0.51000954  1
  H+  H217  1  0.21719335  0.85942888  0.99100372  1
  H+  H218  1  0.08866936  0.37507233  0.66499246  1
  H+  H219  1  0.07396752  0.89965783  0.09763879  1
  H+  H220  1  0.89738720  0.99434134  0.34041566  1
  H+  H221  1  0.13908280  0.82932502  0.56470143  1
  H+  H222  1  0.49104187  0.87936495  0.18025809  1
  H+  H223  1  0.83506629  0.35778844  0.67705209  1
  H+  H224  1  0.75380718  0.10981164  0.49156911  1
  H+  H225  1  0.67135954  0.57932724  0.91916385  1
  H+  H226  1  0.62530336  0.63408269  0.16190453  1
  H+  H227  1  0.55489931  1.02424462  0.52850817  1
  H+  H228  1  0.85025644  0.46053378  0.82746896  1
  H+  H229  1  0.86973738  -0.02170640  0.67299475  1
  H+  H230  1  0.17129942  0.57634992  0.83699889  1
  H+  H231  1  0.35385093  0.10837561  0.16525335  1
  H+  H232  1  0.64706170  0.61290666  0.51907428  1
  H+  H233  1  0.48263977  0.10950894  0.32187799  1
  H+  H234  1  0.61067584  0.12908409  0.48527748  1
  H+  H235  1  0.34965368  0.87778973  0.34134645  1
  H+  H236  1  0.64010832  0.85989483  0.50563065  1
  H+  H237  1  0.34724617  0.21061511  0.01136872  1
  H+  H238  1  0.77048623  0.10089764  0.70234289  1
  H+  H239  1  0.92410959  0.29398679  0.57071738  1
  H+  H240  1  0.72929463  0.61170364  0.85935484  1
  H+  H241  1  0.38532331  0.11685486  0.85634408  1
  H+  H242  1  0.09886847  0.36883687  0.82218351  1
  H+  H243  1  0.32608305  0.99275658  0.67235412  1
  H+  H244  1  0.38066501  0.90576401  0.49849094  1
  H+  H245  1  0.89192752  0.11111156  0.67123492  1
  H+  H246  1  0.92836962  0.58958799  0.79712068  1
  H+  H247  1  0.11801904  0.22773518  0.68565874  1
  H+  H248  1  0.87103878  0.70084290  0.16553076  1
  H+  H249  1  0.06904317  0.68691909  0.77566365  1
  H+  H250  1  0.98273790  0.11587466  0.66582795  1
  H+  H251  1  0.77242592  0.88098613  0.49792082  1
  H+  H252  1  0.86323296  0.44938971  0.13557410  1
  H+  H253  1  0.73129424  0.86435765  0.84417260  1
  H+  H254  1  0.63896066  0.03222616  0.98679003  1
  H+  H255  1  0.40540158  1.04127305  0.49449038  1
  H+  H256  1  0.44190957  0.84323003  0.31987309  1
  H+  H257  1  0.61651379  0.72704987  0.65967411  1
  H+  H258  1  0.25123323  0.60661312  0.48035345  1
  H+  H259  1  0.00738046  0.11182029  0.49269010  1
  H+  H260  1  0.28418066  0.64742711  0.00115489  1
  H+  H261  1  0.20769806  0.87423239  0.67217576  1
  H+  H262  1  0.34530807  0.18998422  0.17738478  1
  H+  H263  1  0.48446621  0.37348448  0.52137890  1
  H+  H264  1  0.13244470  0.86720764  0.17422958  1
  H+  H265  1  0.35461609  0.62561657  0.32138446  1
  H+  H266  1  0.53786560  0.90264096  0.68058573  1
  H+  H267  1  0.16731508  0.13330717  0.51413674  1
  H+  H268  1  0.13367224  0.03172702  0.71065466  1
  H+  H269  1  0.78350144  0.35358821  0.13691346  1
  H+  H270  1  0.98414080  0.83974531  0.18275633  1
  H+  H271  1  0.77023765  0.13775592  0.00232166  1
  H+  H272  1  0.57481622  0.16780864  0.05738904  1
  H+  H273  1  0.14920398  0.53585318  0.99520329  1
  H+  H274  1  0.62570799  0.98587525  0.67009611  1
  H+  H275  1  0.11820817  0.86293554  0.50484054  1
  H+  H276  1  0.39768703  0.78425303  0.99289042  1
  H+  H277  1  0.38237207  0.63086023  0.15674004  1
  H+  H278  1  0.85665331  0.60798459  0.14977147  1
  H+  H279  1  0.62236344  0.16497049  0.14619048  1
  H+  H280  1  0.72470275  0.35875972  0.84845319  1
  H+  H281  1  0.21942955  0.09705802  0.99092027  1
  H+  H282  1  0.10155223  0.96284208  0.15616337  1
  H+  H283  1  0.62543151  0.14633249  0.32686402  1
  H+  H284  1  0.84537510  0.51130080  0.49402568  1
  H+  H285  1  0.24582339  0.32622828  0.51325740  1
  H+  H286  1  0.14465024  0.62213475  0.99778015  1
  H+  H287  1  0.48043544  0.86935718  0.51210634  1
  H+  H288  1  0.32104574  0.14403160  0.06679546  1
  H+  H289  1  0.42898148  0.58937931  0.92827183  1
  H+  H290  1  0.41702193  0.08163777  0.93258998  1
  H+  H291  1  0.22761395  0.11132666  0.31508470  1
  H+  H292  1  0.95415370  0.60398024  0.57314309  1
  H+  H293  1  0.49470339  0.61698035  0.17548747  1
  H+  H294  1  0.20714945  0.09659147  0.89225718  1
  H+  H295  1  0.93845687  0.66869176  0.71690231  1
  H+  H296  1  0.14493767  0.86905832  0.83939738  1
  H+  H297  1  0.07212620  0.14483650  0.04975401  1
  H+  H298  1  0.91087248  0.55212193  0.20964441  1
  H+  H299  1  0.14775141  0.57935777  0.56550719  1
  H+  H300  1  0.18267217  0.32479265  0.59650508  1
  H+  H301  1  0.07528172  0.15831830  0.78321254  1
  H+  H302  1  0.09529615  0.44000601  0.06884553  1
  H+  H303  1  0.76908420  0.87988009  0.00120357  1
  H+  H304  1  0.73417255  0.86549536  0.66049929  1
  H+  H305  1  0.81528690  0.38893277  0.03555564  1
  H+  H306  1  0.07698784  0.60085567  0.63607733  1
  H+  H307  1  0.04755781  0.06137041  0.46311019  1
  H+  H308  1  0.53254814  0.89688129  0.00464490  1
  H+  H309  1  0.66961453  0.09859320  0.93059834  1
  H+  H310  1  0.91502978  0.08287865  0.57206432  1
  H+  H311  1  0.22313466  0.12024324  0.56306665  1
  H+  H312  1  0.15097362  0.59698781  0.90225607  1
  H+  H313  1  0.83584183  0.45284568  0.43866402  1
  H+  H314  1  0.42836409  0.86704904  0.57183532  1
  H+  H315  1  0.92506954  0.10858944  0.22535286  1
  H+  H316  1  0.77189687  0.38452894  0.31085983  1
  H+  H317  1  0.16559166  0.33497812  0.90452838  1
  H+  H318  1  0.84204959  0.17589693  0.07558748  1
  H+  H319  1  0.64685858  0.32758831  0.61005467  1
  H+  H320  1  0.89200299  0.82650505  0.18891196  1
  H+  H321  1  0.90105509  0.07571279  0.92955368  1
  H+  H322  1  0.16161367  0.83160374  0.93021183  1
  H+  H323  1  0.08816483  0.16561711  0.39245033  1
  H+  H324  1  0.63914898  0.27788661  0.31323251  1
  H+  H325  1  0.93185452  0.34291053  0.93624995  1
  H+  H326  1  0.49935129  0.61179442  0.84231844  1
  H+  H327  1  0.39158731  0.86987797  0.99939211  1
  H+  H328  1  0.37364070  0.66448162  0.76591256  1
  H+  H329  1  0.57899324  0.65392313  0.44371977  1
  H+  H330  1  0.06914062  0.66316737  0.09304044  1
  H+  H331  1  0.73643984  0.86180590  0.19237279  1
  H+  H332  1  0.69823736  0.13317776  0.21449462  1
  H+  H333  1  0.57318831  0.90138177  0.43672918  1
  H+  H334  1  0.34901159  0.67049230  0.05703444  1
  H+  H335  1  0.17466449  0.35381263  0.22410489  1
  H+  H336  1  0.31088901  0.61224092  0.78329185  1
  H+  H337  1  0.31975264  0.93504692  0.73249869  1
  H+  H338  1  0.85440368  0.72007724  0.73900074  1
  H+  H339  1  0.87908604  0.59575391  0.85361456  1
  H+  H340  1  0.69910169  0.35611738  0.94729248  1
  H+  H341  1  0.01824247  0.43471323  0.43273364  1
  H+  H342  1  0.41703121  0.33037273  0.57557585  1
  H+  H343  1  0.32891646  0.40792313  0.77340038  1
  H+  H344  1  0.81559494  0.39322691  0.77214447  1
  H+  H345  1  0.66460331  0.81842390  0.27877351  1
  H+  H346  1  0.62836807  0.96411258  0.07925989  1
  H+  H347  1  0.32299796  0.91232713  0.06437564  1
  H+  H348  1  0.14998525  0.06860449  0.22606551  1
  H+  H349  1  0.83851793  0.67133548  0.05817492  1
  H+  H350  1  0.14804203  0.04184798  0.64012281  1
  H+  H351  1  0.89980235  0.11832674  0.32661567  1
  H+  H352  1  0.33616238  0.92166556  0.40154012  1
  H+  H353  1  0.60422445  0.93461296  0.77377792  1
  H+  H354  1  0.42153370  0.57275091  0.27008730  1
  H+  H355  1  0.60698273  0.48424590  0.15848514  1
  H+  H356  1  0.73340146  0.60488107  0.17482542  1
  H+  H357  1  0.90413645  0.82143256  0.93113897  1
  H+  H358  1  0.94339259  0.35042358  0.23697296  1
  H+  H359  1  0.44361126  0.88084090  0.90523406  1
  H+  H360  1  0.11828605  0.13935088  0.68627086  1
  H+  H361  1  0.40580968  0.56495672  0.56582862  1
  H+  H362  1  0.14675616  0.58212415  0.27538290  1
  H+  H363  1  0.29268191  0.90896988  0.49895435  1
  H+  H364  1  0.06384978  0.39364495  0.76275303  1
  H+  H365  1  0.92364379  0.81323355  0.28355097  1
  H+  H366  1  0.68509006  0.59015139  0.57683008  1
  H+  H367  1  0.56511580  0.42433844  0.05172450  1
  H+  H368  1  0.59924423  0.67197210  0.10449485  1
  H+  H369  1  0.22648952  0.35960802  0.84681117  1
  H+  H370  1  0.67196196  0.83374726  0.56601355  1
  H+  H371  1  0.85603451  0.97300472  -0.00094946  1
  H+  H372  1  0.66532093  0.34376787  0.22273624  1
  H+  H373  1  0.36684449  0.48678549  -0.00184256  1
  H+  H374  1  0.33994345  0.43502936  0.09229612  1
  H+  H375  1  0.58420020  0.41854358  0.77008024  1
  H+  H376  1  0.12742977  0.43133647  0.40235839  1
  H+  H377  1  0.87497006  0.51949755  0.98805474  1
  H+  H378  1  0.84700581  0.91179385  0.44736547  1
  H+  H379  1  0.40875720  0.33008423  0.25823510  1
  H+  H380  1  0.83152936  0.91286448  0.77150631  1
  H+  H381  1  0.85539920  0.69447341  0.46263162  1
  H+  H382  1  0.07903437  0.67398446  0.39901099  1
  H+  H383  1  0.09090243  0.93314031  0.43594298  1
  O2-  O384  1  0.08106578  0.15606777  0.12200642  1
  O2-  O385  1  0.06025929  0.12013452  0.47064444  1
  O2-  O386  1  0.06969475  0.15686302  0.82782035  1
  O2-  O387  1  0.11356161  0.46276082  0.14697748  1
  O2-  O388  1  0.00922028  0.44153495  0.47550662  1
  O2-  O389  1  0.06344769  0.39285893  0.80785534  1
  O2-  O390  1  0.05492128  0.66005147  0.13751022  1
  O2-  O391  1  0.07431426  0.66864636  0.47409553  1
  O2-  O392  1  0.12543249  0.70760688  0.79512798  1
  O2-  O393  1  0.07688999  0.90074342  0.14327436  1
  O2-  O394  1  0.08166110  0.93150307  0.48059482  1
  O2-  O395  1  0.08118885  0.95904299  0.75221041  1
  O2-  O396  1  0.31985510  0.13693001  0.15368694  1
  O2-  O397  1  0.35000254  0.16308314  0.45853465  1
  O2-  O398  1  0.32604046  0.16261491  0.87125644  1
  O2-  O399  1  0.33969694  0.43523639  0.13831982  1
  O2-  O400  1  0.33364317  0.40257614  0.47845595  1
  O2-  O401  1  0.32860324  0.41107903  0.81882422  1
  O2-  O402  1  0.34267255  0.64849109  0.13639047  1
  O2-  O403  1  0.29609038  0.61070521  0.45277318  1
  O2-  O404  1  0.25484646  0.56122055  0.80283929  1
  O2-  O405  1  0.31633223  0.90386426  0.14522684  1
  O2-  O406  1  0.35032898  0.93700058  0.48084368  1
  O2-  O407  1  0.33656873  0.92973414  0.80697407  1
  O2-  O408  1  0.57908949  0.18003894  0.13074276  1
  O2-  O409  1  0.59451778  0.17067622  0.46412930  1
  O2-  O410  1  0.58124505  0.17088452  0.82198419  1
  O2-  O411  1  0.57000287  0.42654509  0.13875191  1
  O2-  O412  1  0.58572790  0.42072561  0.49883654  1
  O2-  O413  1  0.58221682  0.41270825  0.81510078  1
  O2-  O414  1  0.59865248  0.66925484  0.15039231  1
  O2-  O415  1  0.58214495  0.65782290  0.48902450  1
  O2-  O416  1  0.59316292  0.66157201  0.83017863  1
  O2-  O417  1  0.65247661  0.98402984  0.12222797  1
  O2-  O418  1  0.58520966  0.90630107  0.48084081  1
  O2-  O419  1  0.60743282  0.93834829  0.81875501  1
  O2-  O420  1  0.85271753  0.19362384  0.12554740  1
  O2-  O421  1  0.81206841  0.13586101  0.47519425  1
  O2-  O422  1  0.83883978  0.17639722  0.82111953  1
  O2-  O423  1  0.84124652  0.38878534  0.12064136  1
  O2-  O424  1  0.80256908  0.46808904  0.46556092  1
  O2-  O425  1  0.81928998  0.39713443  0.81801869  1
  O2-  O426  1  0.83164347  0.64658139  0.14450384  1
  O2-  O427  1  0.89048799  0.71335223  0.50122388  1
  O2-  O428  1  0.84729161  0.70776865  0.83439983  1
  O2-  O429  1  0.79090214  0.95736080  0.13720059  1
  O2-  O430  1  0.83676707  0.90948014  0.49153126  1
  O2-  O431  1  0.82713222  0.91380450  0.81617762  1
  O2-  O432  1  0.14822519  0.06217827  0.18068423  1
  O2-  O433  1  0.20116924  0.10485525  0.52167694  1
  O2-  O434  1  0.23590693  0.11182740  0.85168352  1
  O2-  O435  1  0.17415790  0.36315749  0.17979505  1
  O2-  O436  1  0.19699417  0.27913087  0.53734814  1
  O2-  O437  1  0.16503798  0.32797903  0.86055704  1
  O2-  O438  1  0.15478503  0.61002667  0.20226277  1
  O2-  O439  1  0.14430285  0.58170997  0.52094868  1
  O2-  O440  1  0.13172727  0.58962691  0.85946961  1
  O2-  O441  1  0.17020728  0.84616584  0.19426533  1
  O2-  O442  1  0.14695916  0.83104648  0.52032873  1
  O2-  O443  1  0.17556326  0.84152969  0.85545418  1
  O2-  O444  1  0.41709342  0.06778580  0.18464752  1
  O2-  O445  1  0.43533371  0.10568100  0.50006167  1
  O2-  O446  1  0.41808213  0.08555402  0.86175866  1
  O2-  O447  1  0.40956580  0.33427623  0.17056806  1
  O2-  O448  1  0.42182575  0.34365159  0.53198388  1
  O2-  O449  1  0.40415918  0.31094023  0.82464386  1
  O2-  O450  1  0.43354214  0.58855041  0.18985864  1
  O2-  O451  1  0.40906573  0.56722185  0.52069468  1
  O2-  O452  1  0.43290760  0.58137295  0.84979686  1
  O2-  O453  1  0.31770101  0.77000825  0.19240551  1
  O2-  O454  1  0.42365295  0.85800217  0.52716746  1
  O2-  O455  1  0.46277715  0.90914727  0.86522539  1
  O2-  O456  1  0.69683627  0.13820422  0.16924432  1
  O2-  O457  1  0.61672843  0.05681179  0.52096894  1
  O2-  O458  1  0.67451179  0.10109539  0.85870264  1
  O2-  O459  1  0.66466781  0.34845888  0.17645986  1
  O2-  O460  1  0.68957635  0.32358635  0.52364393  1
  O2-  O461  1  0.66676573  0.33300532  0.86946197  1
  O2-  O462  1  0.67275308  0.57907831  0.19026095  1
  O2-  O463  1  0.68234950  0.58751937  0.53204879  1
  O2-  O464  1  0.66959270  0.57544930  0.87215715  1
  O2-  O465  1  0.70675322  0.81109015  0.21914581  1
  O2-  O466  1  0.67181496  0.83051362  0.52042709  1
  O2-  O467  1  0.67114724  0.83495126  0.86222871  1
  O2-  O468  1  0.91990661  0.11112238  0.18036595  1
  O2-  O469  1  0.91002228  0.07683900  0.52656819  1
  O2-  O470  1  0.90801633  0.08074469  0.85920882  1
  O2-  O471  1  0.95729096  0.36368490  0.19370049  1
  O2-  O472  1  0.94554103  0.29050676  0.52955196  1
  O2-  O473  1  0.91574210  0.33231753  0.85985095  1
  O2-  O474  1  0.90275289  0.54772264  0.16525798  1
  O2-  O475  1  0.92881556  0.60137225  0.53227907  1
  O2-  O476  1  0.90610050  0.56440446  0.83805297  1
  O2-  O477  1  0.92838663  0.80494920  0.20505682  1
  O2-  O478  1  0.84490620  0.79420333  0.56922539  1
  O2-  O479  1  0.89661308  0.77905792  0.86133340  1
  O2-  O480  1  0.16542973  0.08327469  0.30381695  1
  O2-  O481  1  0.16571439  0.07763652  0.67652727  1
  O2-  O482  1  0.16272107  0.06622286  0.96965368  1
  O2-  O483  1  0.17857087  0.34127025  0.30709975  1
  O2-  O484  1  0.18157246  0.35522773  0.63520664  1
  O2-  O485  1  0.15841206  0.32888253  1.01032158  1
  O2-  O486  1  0.14842391  0.57454907  0.32060727  1
  O2-  O487  1  0.13315715  0.55999441  0.65625243  1
  O2-  O488  1  0.18020085  0.59720403  0.98230719  1
  O2-  O489  1  0.17090263  0.83937594  0.31069202  1
  O2-  O490  1  0.14690820  0.84251179  0.65446530  1
  O2-  O491  1  0.15696311  0.83003368  0.97601712  1
  O2-  O492  1  0.42233860  0.07844524  0.30622260  1
  O2-  O493  1  0.34175185  0.08217389  0.64016078  1
  O2-  O494  1  0.41766706  0.08153614  0.97949248  1
  O2-  O495  1  0.41499592  0.32640481  0.30239397  1
  O2-  O496  1  0.41115375  0.29567276  0.66163661  1
  O2-  O497  1  0.38632140  0.30723142  0.99568974  1
  O2-  O498  1  0.41600253  0.57121476  0.31522666  1
  O2-  O499  1  0.39722548  0.55660989  0.64713707  1
  O2-  O500  1  0.42655607  0.58906067  0.97370660  1
  O2-  O501  1  0.38095321  0.81614862  0.30786242  1
  O2-  O502  1  0.43915665  0.90765067  0.64784369  1
  O2-  O503  1  0.42892459  0.84743087  0.98433999  1
  O2-  O504  1  0.69754584  0.11153622  0.29161382  1
  O2-  O505  1  0.66057920  0.08433946  0.63249501  1
  O2-  O506  1  0.66656424  0.09502700  0.97722742  1
  O2-  O507  1  0.66990718  0.33727211  0.29627555  1
  O2-  O508  1  0.64575743  0.32734332  0.65451558  1
  O2-  O509  1  0.71191645  0.36383207  0.99225172  1
  O2-  O510  1  0.66668001  0.58988539  0.31421226  1
  O2-  O511  1  0.69125682  0.59205962  0.66534208  1
  O2-  O512  1  0.67388236  0.59594818  0.98804305  1
  O2-  O513  1  0.63602020  0.81776730  0.31980869  1
  O2-  O514  1  0.67359555  0.83580891  0.64455272  1
  O2-  O515  1  0.66890974  0.83456704  0.98204778  1
  O2-  O516  1  0.93111755  0.09156479  0.30749432  1
  O2-  O517  1  0.92267939  0.08543060  0.64985047  1
  O2-  O518  1  0.90014721  0.07429646  0.97646041  1
  O2-  O519  1  0.93255909  0.32998274  0.32335328  1
  O2-  O520  1  0.89457883  0.30505876  0.64507107  1
  O2-  O521  1  0.93825175  0.34243807  0.98151897  1
  O2-  O522  1  0.92826390  0.58456744  0.29440633  1
  O2-  O523  1  0.96782569  0.63808984  0.73092110  1
  O2-  O524  1  0.91713945  0.58025466  0.99493436  1
  O2-  O525  1  0.92330262  0.81925878  0.32879209  1
  O2-  O526  1  0.90733292  0.83562407  0.61888395  1
  O2-  O527  1  0.92508080  0.86397431  0.96551778  1
  O2-  O528  1  0.06840697  0.14327372  0.00342126  1
  O2-  O529  1  0.09429884  0.17455718  0.34782291  1
  O2-  O530  1  0.08425802  0.16745918  0.69734619  1
  O2-  O531  1  0.09503955  0.42988510  0.02410853  1
  O2-  O532  1  0.09896090  0.42428188  0.36311123  1
  O2-  O533  1  0.05593092  0.39990618  0.68269911  1
  O2-  O534  1  0.08230809  0.66283807  0.01802418  1
  O2-  O535  1  0.08560878  0.67767383  0.35329726  1
  O2-  O536  1  0.04182140  0.63111329  0.62726605  1
  O2-  O537  1  0.07052111  0.90496332  0.01703655  1
  O2-  O538  1  0.09379928  0.92562471  0.35563262  1
  O2-  O539  1  0.09005212  0.82710299  0.70200285  1
  O2-  O540  1  0.32297027  0.14706533  0.02206575  1
  O2-  O541  1  0.33418076  0.16085248  0.33821967  1
  O2-  O542  1  0.33305076  0.13800347  0.68567735  1
  O2-  O543  1  0.33454031  0.42838306  0.01765438  1
  O2-  O544  1  0.33922315  0.40670399  0.35504168  1
  O2-  O545  1  0.33466478  0.39571134  0.69570433  1
  O2-  O546  1  0.34713184  0.67696522  0.01227275  1
  O2-  O547  1  0.32325088  0.65529716  0.30899625  1
  O2-  O548  1  0.29993103  0.62771862  0.64502491  1
  O2-  O549  1  0.32608024  0.91253453  0.01926116  1
  O2-  O550  1  0.33009895  0.91841203  0.35626588  1
  O2-  O551  1  0.31100036  0.93277602  0.68708733  1
  O2-  O552  1  0.56908226  0.15685684  0.01182859  1
  O2-  O553  1  0.59105596  0.17128606  0.34232745  1
  O2-  O554  1  0.58052597  0.16722763  0.70078465  1
  O2-  O555  1  0.55537735  0.41243819  0.00782356  1
  O2-  O556  1  0.59087429  0.41379001  0.33305932  1
  O2-  O557  1  0.56899705  0.40540891  0.68689939  1
  O2-  O558  1  0.59710459  0.67325868  0.02652125  1
  O2-  O559  1  0.57031241  0.64952109  0.36304585  1
  O2-  O560  1  0.58374701  0.66259888  0.65793540  1
  O2-  O561  1  0.59625128  0.92958495  0.01309022  1
  O2-  O562  1  0.54667150  0.89266951  0.35531161  1
  O2-  O563  1  0.59945841  0.92839563  0.69016784  1
  O2-  O564  1  0.83081297  0.16179847  0.01755834  1
  O2-  O565  1  0.83888067  0.16342426  0.35387833  1
  O2-  O566  1  0.82967369  0.14720934  0.70635695  1
  O2-  O567  1  0.80496075  0.39838568  -0.00745665  1
  O2-  O568  1  0.83730012  0.41424587  0.31012098  1
  O2-  O569  1  0.81032935  0.38964137  0.69701206  1
  O2-  O570  1  0.84402973  0.67884776  0.01371044  1
  O2-  O571  1  0.82134503  0.67213684  0.39034031  1
  O2-  O572  1  0.85731771  0.70450024  0.69668351  1
  O2-  O573  1  0.83118858  0.91286799  0.01567004  1
  O2-  O574  1  0.86873871  0.93360389  0.35685400  1
  O2-  O575  1  0.83742766  0.91657401  0.68509911  1
