# generated using pymatgen
data_H2O
_symmetry_space_group_name_H-M   'P 1'
_cell_length_a   17.98997310
_cell_length_b   17.98583749
_cell_length_c   22.00723880
_cell_angle_alpha   89.95751342
_cell_angle_beta   90.02021201
_cell_angle_gamma   120.00050568
_symmetry_Int_Tables_number   1
_chemical_formula_structural   H2O
_chemical_formula_sum   'H384 O192'
_cell_volume   6166.73142301
_cell_formula_units_Z   192
loop_
 _symmetry_equiv_pos_site_id
 _symmetry_equiv_pos_as_xyz
  1  'x, y, z'
loop_
 _atom_type_symbol
 _atom_type_oxidation_number
  H+  1.0
  O2-  -2.0
loop_
 _atom_site_type_symbol
 _atom_site_label
 _atom_site_symmetry_multiplicity
 _atom_site_fract_x
 _atom_site_fract_y
 _atom_site_fract_z
 _atom_site_occupancy
  H+  H0  1  0.62202189  -0.01698928  0.16503367  1
  H+  H1  1  0.10057805  0.12494770  0.33941977  1
  H+  H2  1  0.88811259  0.51716974  0.82974762  1
  H+  H3  1  0.10760153  0.38416385  0.17192451  1
  H+  H4  1  0.78891671  0.14069076  0.00704011  1
  H+  H5  1  0.42067951  0.60767864  0.92257084  1
  H+  H6  1  0.89222270  0.36903072  0.17285688  1
  H+  H7  1  0.77214703  0.87083864  0.33882551  1
  H+  H8  1  0.12665019  0.26280793  0.99124457  1
  H+  H9  1  0.19566080  0.77898590  0.28204949  1
  H+  H10  1  0.85049283  0.71692189  0.65919505  1
  H+  H11  1  0.63924665  0.30150166  0.33893712  1
  H+  H12  1  0.77414405  0.10899751  0.32914921  1
  H+  H13  1  0.53186039  -0.10931559  0.34804323  1
  H+  H14  1  -0.01144528  0.12103729  0.83455576  1
  H+  H15  1  0.37590619  0.87008285  0.02498820  1
  H+  H16  1  0.36087587  0.09881146  0.33235476  1
  H+  H17  1  0.35472540  0.97379458  0.66815640  1
  H+  H18  1  0.95772966  0.85400480  0.84379961  1
  H+  H19  1  0.95552117  0.84877982  0.65714111  1
  H+  H20  1  0.25747605  0.86992864  0.00671018  1
  H+  H21  1  0.52201618  0.39587984  0.49906073  1
  H+  H22  1  0.34986575  0.37015056  0.50451784  1
  H+  H23  1  0.86402887  0.21942627  0.66717580  1
  H+  H24  1  0.11452655  0.63469909  0.50145977  1
  H+  H25  1  0.69997646  0.61491418  0.13573452  1
  H+  H26  1  0.90426526  0.17630203  0.35474588  1
  H+  H27  1  0.77724710  0.64675131  0.33780886  1
  H+  H28  1  0.59612911  0.71466233  0.34321101  1
  H+  H29  1  0.03036548  0.90378334  0.15931930  1
  H+  H30  1  0.36744480  0.72828163  0.49925224  1
  H+  H31  1  0.90560032  0.38390092  0.50885567  1
  H+  H32  1  0.10064503  0.72496848  0.66710342  1
  H+  H33  1  0.03452634  0.39484459  0.50171242  1
  H+  H34  1  0.13314402  0.35611246  0.51376116  1
  H+  H35  1  0.14695188  1.02890792  0.17460803  1
  H+  H36  1  0.12791575  0.76749275  -0.00747257  1
  H+  H37  1  0.99991853  0.61430818  0.17378106  1
  H+  H38  1  0.38829256  0.62490868  0.82943196  1
  H+  H39  1  1.02791004  0.39330456  0.82117253  1
  H+  H40  1  0.36549926  0.21587274  0.16272958  1
  H+  H41  1  0.89965423  0.27775038  0.98587355  1
  H+  H42  1  0.08334075  0.18775371  0.75690852  1
  H+  H43  1  0.13221577  0.39715975  0.00853736  1
  H+  H44  1  0.60770511  0.88809649  0.01234739  1
  H+  H45  1  0.11156186  0.47715783  0.16854967  1
  H+  H46  1  0.34034015  0.13597618  0.81386028  1
  H+  H47  1  0.50723324  0.88303661  0.68110024  1
  H+  H48  1  0.02859259  0.62358344  0.00600432  1
  H+  H49  1  0.34476422  0.88456251  0.81326903  1
  H+  H50  1  0.89438970  0.49658609  0.99559664  1
  H+  H51  1  0.64900403  0.02375037  0.83260785  1
  H+  H52  1  0.36208541  0.72460525  0.16452004  1
  H+  H53  1  0.46156337  0.87005579  0.81617988  1
  H+  H54  1  0.47697448  0.62115710  0.83506767  1
  H+  H55  1  0.84318197  0.64770463  0.96366295  1
  H+  H56  1  0.83961119  0.87341526  0.66740752  1
  H+  H57  1  0.28986359  0.91120070  0.50445988  1
  H+  H58  1  0.52368807  0.38354768  0.82646146  1
  H+  H59  1  0.63816016  0.09746484  0.51849853  1
  H+  H60  1  0.89034695  0.77119541  0.32579059  1
  H+  H61  1  0.64166366  0.37570171  0.49964113  1
  H+  H62  1  0.38815027  0.85969812  0.17853288  1
  H+  H63  1  0.36802684  0.12314240  0.17760367  1
  H+  H64  1  0.88560830  0.78308656  1.00606769  1
  H+  H65  1  0.25647773  0.14450478  0.99976175  1
  H+  H66  1  0.09099896  0.17270280  0.65482245  1
  H+  H67  1  0.38268996  0.55318900  -0.01494535  1
  H+  H68  1  0.62847121  0.76743211  0.14870533  1
  H+  H69  1  0.56929018  0.15553006  0.03084357  1
  H+  H70  1  0.37277289  0.06323063  0.93048385  1
  H+  H71  1  0.77038692  0.11691208  0.49148451  1
  H+  H72  1  0.74070654  0.11796033  0.17383377  1
  H+  H73  1  0.61191219  0.72699208  0.67189012  1
  H+  H74  1  0.99235599  0.37315957  0.16923124  1
  H+  H75  1  0.34345181  0.50375132  0.07397678  1
  H+  H76  1  0.90401309  0.78655508  0.17961050  1
  H+  H77  1  0.61608883  0.72364631  0.82915581  1
  H+  H78  1  0.92752819  0.84548599  0.23709584  1
  H+  H79  1  0.23400822  0.61428585  0.50871297  1
  H+  H80  1  0.58805222  0.92950928  0.07095659  1
  H+  H81  1  0.87141867  0.89292000  0.16335727  1
  H+  H82  1  0.65045606  0.63270214  0.50824343  1
  H+  H83  1  0.38316790  0.27112388  0.50904125  1
  H+  H84  1  0.58813655  0.16307076  0.37158883  1
  H+  H85  1  0.98035646  0.11483728  0.99475398  1
  H+  H86  1  0.63974179  0.36807059  0.83396737  1
  H+  H87  1  0.63249777  0.81570145  0.50562672  1
  H+  H88  1  0.60127650  0.63207991  0.00548021  1
  H+  H89  1  0.09916214  0.88532065  0.83221756  1
  H+  H90  1  0.75435789  0.62262344  0.66135377  1
  H+  H91  1  0.17830276  0.08676109  0.23737309  1
  H+  H92  1  0.12570587  1.02744052  0.83478237  1
  H+  H93  1  0.63104093  0.60481900  0.84763613  1
  H+  H94  1  0.12218329  0.14362265  0.16465204  1
  H+  H95  1  0.12878547  0.11862934  0.82850986  1
  H+  H96  1  0.92815405  0.34477960  0.56655048  1
  H+  H97  1  0.58869132  0.66675879  0.76870703  1
  H+  H98  1  0.35390130  0.88292674  0.67360427  1
  H+  H99  1  0.77781944  -0.01915965  0.78375603  1
  H+  H100  1  0.70616462  0.86260274  0.65046697  1
  H+  H101  1  0.34845667  0.38043573  0.35919451  1
  H+  H102  1  0.33924950  0.96379740  0.00449111  1
  H+  H103  1  0.72262916  0.86863615  0.84012553  1
  H+  H104  1  0.43004008  0.09163517  -0.00771980  1
  H+  H105  1  0.77787933  0.63846268  0.49441918  1
  H+  H106  1  0.78003356  0.40011406  0.48991681  1
  H+  H107  1  0.65622389  0.11018267  0.98163101  1
  H+  H108  1  0.13412659  0.91240233  0.67642081  1
  H+  H109  1  0.86723418  0.63787836  0.49395167  1
  H+  H110  1  0.25852197  0.38365333  0.35780200  1
  H+  H111  1  0.85907524  0.11616815  0.49077593  1
  H+  H112  1  0.16294348  0.54030966  0.99173911  1
  H+  H113  1  0.11781817  0.23840222  0.81901472  1
  H+  H114  1  0.89554394  0.27746168  0.82862413  1
  H+  H115  1  0.63648419  0.53632540  0.50676832  1
  H+  H116  1  0.20599864  0.14708963  0.64787888  1
  H+  H117  1  0.27968721  0.65408368  0.00096137  1
  H+  H118  1  0.12523425  0.27001581  0.18396837  1
  H+  H119  1  0.10391249  0.72015585  0.16074773  1
  H+  H120  1  1.02998145  0.40419850  0.34642497  1
  H+  H121  1  0.63973087  0.10070496  0.65724024  1
  H+  H122  1  0.90938506  0.37029505  -0.01769429  1
  H+  H123  1  0.78418424  0.39705425  0.17803471  1
  H+  H124  1  0.60091280  0.18214059  0.58071091  1
  H+  H125  1  0.89375002  0.03116150  0.16721948  1
  H+  H126  1  0.11746440  0.88695628  0.33826683  1
  H+  H127  1  0.23845064  0.12139588  0.32834827  1
  H+  H128  1  0.97564664  0.35403200  0.66140571  1
  H+  H129  1  0.39819872  0.53731295  0.66153067  1
  H+  H130  1  0.38793465  0.35758511  0.98768445  1
  H+  H131  1  0.08484390  0.41111661  0.73025207  1
  H+  H132  1  0.39608213  0.86319318  0.33420763  1
  H+  H133  1  0.60468231  0.40135732  0.34339647  1
  H+  H134  1  0.76894583  0.85558091  0.48642258  1
  H+  H135  1  0.89456323  0.27353836  0.16641926  1
  H+  H136  1  0.90497789  0.61424635  0.18759096  1
  H+  H137  1  0.01430058  0.88022453  0.48574286  1
  H+  H138  1  0.36542937  0.48615546  0.83102522  1
  H+  H139  1  0.39669509  0.86880059  0.51464203  1
  H+  H140  1  -0.01753866  0.61845947  0.51390038  1
  H+  H141  1  0.12418269  0.81409715  0.23073494  1
  H+  H142  1  0.60823850  0.88575128  0.82971287  1
  H+  H143  1  0.09923596  0.20931776  0.49517465  1
  H+  H144  1  0.44880144  0.10271577  0.33883431  1
  H+  H145  1  0.89107487  0.53033399  0.50879692  1
  H+  H146  1  0.88813448  0.68296288  -0.02886566  1
  H+  H147  1  0.39623192  0.62764104  0.66459442  1
  H+  H148  1  0.09389318  0.42044022  0.44223111  1
  H+  H149  1  0.35031422  0.21315921  0.71990667  1
  H+  H150  1  0.37099072  0.14689878  0.49083417  1
  H+  H151  1  0.59754413  0.46690396  0.67195781  1
  H+  H152  1  0.65916419  0.13884936  0.33096812  1
  H+  H153  1  0.67440556  0.06906706  0.57240599  1
  H+  H154  1  0.47627716  0.87405004  0.02458037  1
  H+  H155  1  0.64628232  0.01895843  0.99251373  1
  H+  H156  1  0.12179434  0.77007118  0.83750589  1
  H+  H157  1  -0.01259542  0.60505759  0.34866561  1
  H+  H158  1  0.34188632  0.66942142  0.74932373  1
  H+  H159  1  0.88320237  1.00661751  0.50253794  1
  H+  H160  1  0.15255934  0.02920223  0.32688263  1
  H+  H161  1  0.63442896  0.53103646  0.32545116  1
  H+  H162  1  0.41208325  0.20474699  0.36112502  1
  H+  H163  1  0.80027633  0.64092450  0.19479854  1
  H+  H164  1  0.40738234  0.32215732  0.57184679  1
  H+  H165  1  0.37538621  0.72623994  0.34363185  1
  H+  H166  1  0.86409418  0.87383217  0.33604640  1
  H+  H167  1  0.83570861  0.05494472  0.30251514  1
  H+  H168  1  0.36668325  0.39696810  0.83205882  1
  H+  H169  1  0.72791401  0.39127507  0.33715833  1
  H+  H170  1  1.00723628  0.11244112  0.33922765  1
  H+  H171  1  0.63869647  0.52395030  0.16505918  1
  H+  H172  1  0.90123709  0.51961344  0.18346629  1
  H+  H173  1  0.11739515  0.39395972  0.82342005  1
  H+  H174  1  0.84990795  0.96772057  0.66196498  1
  H+  H175  1  0.61861658  0.12717909  0.18501162  1
  H+  H176  1  0.61131256  0.47370378  0.83080307  1
  H+  H177  1  0.66639253  0.83345551  0.09538156  1
  H+  H178  1  0.96739964  0.61680469  0.65940209  1
  H+  H179  1  0.51958967  0.64622254  0.00096796  1
  H+  H180  1  0.22947382  0.37040681  0.83787507  1
  H+  H181  1  0.11315758  0.88931176  0.00556351  1
  H+  H182  1  0.88641719  0.87236638  0.00242625  1
  H+  H183  1  0.60278923  0.96888138  0.67681573  1
  H+  H184  1  0.43006116  0.09516603  0.84041864  1
  H+  H185  1  0.78019312  0.88873324  0.15399565  1
  H+  H186  1  0.88117416  0.14998357  0.16014478  1
  H+  H187  1  0.51858450  0.37655975  1.00765796  1
  H+  H188  1  0.36699658  0.59601895  0.15107387  1
  H+  H189  1  0.65849465  0.57907197  0.94018476  1
  H+  H190  1  -0.02734738  0.09754601  0.50348271  1
  H+  H191  1  0.06979069  0.15040309  0.43619871  1
  H+  H192  1  0.88802772  0.35753872  0.65895030  1
  H+  H193  1  0.10921689  0.13458746  0.00565689  1
  H+  H194  1  0.41507654  0.32264157  0.10733918  1
  H+  H195  1  0.55326757  0.67562612  0.50490180  1
  H+  H196  1  0.73100553  0.10306128  0.66315508  1
  H+  H197  1  0.62213521  -0.04875519  0.52704224  1
  H+  H198  1  0.21734993  0.86327971  0.66203877  1
  H+  H199  1  0.76463226  0.37836967  0.00837913  1
  H+  H200  1  0.91191226  0.58581940  0.59701935  1
  H+  H201  1  0.37327059  0.66030212  -0.00071144  1
  H+  H202  1  0.73127177  0.37196749  0.65105594  1
  H+  H203  1  0.28118497  0.64206799  0.81273621  1
  H+  H204  1  0.51260850  0.39658746  0.34487940  1
  H+  H205  1  0.46521677  0.33313882  0.67076238  1
  H+  H206  1  0.76426581  0.72479339  0.07035050  1
  H+  H207  1  0.66207284  0.38221549  0.17929255  1
  H+  H208  1  1.02045972  0.63485305  0.82072982  1
  H+  H209  1  0.47717253  0.86109227  0.17815322  1
  H+  H210  1  0.34899934  -0.03768628  0.34727314  1
  H+  H211  1  0.77804219  0.38907396  0.81962240  1
  H+  H212  1  0.52517077  0.63849795  0.67569795  1
  H+  H213  1  0.12232869  0.73753334  0.33061779  1
  H+  H214  1  0.17328090  0.59283907  0.88913127  1
  H+  H215  1  0.22508867  0.61216659  0.17153448  1
  H+  H216  1  0.38196453  0.77444452  1.02471469  1
  H+  H217  1  0.60747751  0.87409388  0.57020974  1
  H+  H218  1  0.85503232  0.62345411  0.65955516  1
  H+  H219  1  0.37801929  0.77731306  0.80931812  1
  H+  H220  1  0.84596313  0.17320750  0.41105792  1
  H+  H221  1  0.51793176  0.12564557  0.66524521  1
  H+  H222  1  0.42108858  0.64146773  0.51194427  1
  H+  H223  1  0.39375738  0.13202004  0.65661905  1
  H+  H224  1  0.86582905  0.38496959  0.81807096  1
  H+  H225  1  0.62590927  0.09760114  0.34609696  1
  H+  H226  1  0.84628123  0.43836475  0.43469624  1
  H+  H227  1  0.13013560  0.02435895  0.98542647  1
  H+  H228  1  0.48798323  0.12544291  0.52200006  1
  H+  H229  1  0.37279972  0.26994019  0.33945861  1
  H+  H230  1  0.64090733  0.36977330  0.65306219  1
  H+  H231  1  0.11836470  0.33427590  0.66830886  1
  H+  H232  1  0.38191673  0.27525772  0.83319255  1
  H+  H233  1  0.88312997  0.14595352  0.82465887  1
  H+  H234  1  0.46323131  0.60234368  0.32893738  1
  H+  H235  1  0.45226904  0.61706845  0.57289626  1
  H+  H236  1  0.21450110  0.35049973  0.98673281  1
  H+  H237  1  0.26969455  0.86693342  0.35212253  1
  H+  H238  1  0.89142123  0.58152088  0.98582183  1
  H+  H239  1  0.12519071  0.59837527  0.65712879  1
  H+  H240  1  0.53614589  0.38567466  0.15992766  1
  H+  H241  1  0.37330788  0.51889609  0.34127431  1
  H+  H242  1  0.59552448  0.62934227  0.16008559  1
  H+  H243  1  0.20897787  0.85970186  0.83683566  1
  H+  H244  1  0.37934239  0.76554513  0.67051839  1
  H+  H245  1  0.88281160  0.09826183  0.65357029  1
  H+  H246  1  0.63425821  0.61495331  0.66145903  1
  H+  H247  1  0.03018768  0.13801599  0.16315784  1
  H+  H248  1  0.79093074  0.13930733  0.82203519  1
  H+  H249  1  0.14627902  0.52347315  0.50743998  1
  H+  H250  1  0.47648720  0.10618566  0.19059155  1
  H+  H251  1  0.98133221  0.86293887  0.32534611  1
  H+  H252  1  0.28865751  0.64099919  0.67137970  1
  H+  H253  1  0.33666932  0.13222892  0.00339572  1
  H+  H254  1  0.86460013  0.47554411  0.66594308  1
  H+  H255  1  0.40107084  0.03540644  0.50654494  1
  H+  H256  1  0.88446577  0.85417276  0.50401633  1
  H+  H257  1  0.61290362  0.38846469  1.00241802  1
  H+  H258  1  0.72876159  0.86743149  1.00239315  1
  H+  H259  1  0.63803958  0.77484665  1.00121104  1
  H+  H260  1  0.21139958  0.35672954  0.19487300  1
  H+  H261  1  0.02595016  0.89242551  0.00931006  1
  H+  H262  1  0.12823881  0.05412928  0.65574957  1
  H+  H263  1  0.86642665  0.98442982  0.00533117  1
  H+  H264  1  0.56340445  0.14372063  0.80844580  1
  H+  H265  1  0.25958604  0.14700773  0.81305202  1
  H+  H266  1  0.12350780  0.49059681  0.34553453  1
  H+  H267  1  0.13906868  0.53076504  0.83149871  1
  H+  H268  1  0.85090960  0.62697360  0.83735869  1
  H+  H269  1  0.14694719  0.88140596  0.50594445  1
  H+  H270  1  0.24973367  0.62445193  0.32835367  1
  H+  H271  1  0.84748245  0.71417194  0.84090737  1
  H+  H272  1  0.36467917  0.97042841  0.16674339  1
  H+  H273  1  0.63670638  0.86042379  0.33604557  1
  H+  H274  1  0.11287552  0.64172407  0.81932848  1
  H+  H275  1  0.14794268  0.62090261  -0.00966165  1
  H+  H276  1  0.08293941  0.91653306  0.39457662  1
  H+  H277  1  0.65570065  0.82781073  0.27454922  1
  H+  H278  1  0.13937227  0.37849270  0.34266309  1
  H+  H279  1  0.60210671  0.63136293  0.33572865  1
  H+  H280  1  0.34557182  1.00419628  0.83248899  1
  H+  H281  1  0.34839560  0.45782775  0.16607776  1
  H+  H282  1  0.63747934  0.28648790  0.97728154  1
  H+  H283  1  0.50963864  0.07257272  0.06658897  1
  H+  H284  1  0.72030517  0.60430693  0.85209921  1
  H+  H285  1  0.10614473  0.96744841  0.48582137  1
  H+  H286  1  0.90061159  0.29240771  0.33882618  1
  H+  H287  1  0.11591803  0.85502524  0.16871790  1
  H+  H288  1  0.66698581  0.58767901  0.26518391  1
  H+  H289  1  0.08562254  0.66089168  0.06583741  1
  H+  H290  1  0.45402532  0.59267170  0.14709051  1
  H+  H291  1  0.58214675  0.91726332  0.76866275  1
  H+  H292  1  0.54994281  0.20255041  0.41625861  1
  H+  H293  1  0.81376741  0.92769001  0.75336202  1
  H+  H294  1  0.57981761  0.41290354  0.73280275  1
  H+  H295  1  0.40582931  0.07117092  0.24425832  1
  H+  H296  1  0.91755177  0.08098535  0.22931856  1
  H+  H297  1  0.83497870  0.41551238  0.72446847  1
  H+  H298  1  0.60015375  0.17989127  0.70710709  1
  H+  H299  1  0.73076006  0.63737803  0.03393720  1
  H+  H300  1  0.65206818  0.15112798  0.81771856  1
  H+  H301  1  0.36624214  0.38514882  0.68001869  1
  H+  H302  1  0.07443029  0.66720414  0.72648904  1
  H+  H303  1  0.65101789  0.28338377  0.83393653  1
  H+  H304  1  0.31519799  0.40012028  0.43843665  1
  H+  H305  1  0.07557707  0.92004621  0.77326099  1
  H+  H306  1  0.15599055  0.82719902  0.93281512  1
  H+  H307  1  0.15190298  0.31285921  0.57209132  1
  H+  H308  1  0.84248744  0.16356863  0.72753473  1
  H+  H309  1  0.59829499  0.18387693  0.14018648  1
  H+  H310  1  0.25681203  0.46950675  0.03736068  1
  H+  H311  1  0.11664538  0.63459044  0.16364647  1
  H+  H312  1  0.90716438  0.82280477  0.59278439  1
  H+  H313  1  0.16193175  0.57476613  0.59962652  1
  H+  H314  1  0.45057046  0.85679487  0.92206082  1
  H+  H315  1  0.57558761  0.42926853  0.43727484  1
  H+  H316  1  0.84053164  0.42540232  0.11522589  1
  H+  H317  1  0.89519767  0.03502958  0.83396581  1
  H+  H318  1  0.62587986  0.23990634  0.52240573  1
  H+  H319  1  0.56870369  0.65631596  0.09783147  1
  H+  H320  1  0.39504423  0.33853983  0.28353011  1
  H+  H321  1  0.69031906  0.01367471  0.32875781  1
  H+  H322  1  0.92730950  0.34126076  0.27639079  1
  H+  H323  1  0.34341172  0.42632274  0.73485199  1
  H+  H324  1  0.32969574  0.67279050  0.10162867  1
  H+  H325  1  0.44457126  0.81252929  0.91998772  1
  H+  H326  1  0.87836832  0.14438037  0.00603675  1
  H+  H327  1  0.26717557  0.12320896  0.17509382  1
  H+  H328  1  0.16203355  0.33145717  0.89315545  1
  H+  H329  1  0.90620922  0.82860420  0.90486971  1
  H+  H330  1  0.30937244  0.91636317  0.75963653  1
  H+  H331  1  0.16047827  0.33599083  0.28686740  1
  H+  H332  1  0.68772671  0.35853009  0.24284184  1
  H+  H333  1  0.36687875  0.63101796  0.34307285  1
  H+  H334  1  0.67752676  0.35484802  0.55993943  1
  H+  H335  1  0.61716078  0.85776697  0.66556057  1
  H+  H336  1  0.87560064  -0.00175624  0.31947580  1
  H+  H337  1  0.11724560  0.43432581  0.07078924  1
  H+  H338  1  0.11120026  0.46236796  0.66777626  1
  H+  H339  1  0.33998122  0.91792357  0.44301725  1
  H+  H340  1  0.84248559  0.92981795  0.06793257  1
  H+  H341  1  0.40686253  0.82984669  0.61225318  1
  H+  H342  1  0.16897858  0.07464207  0.56080515  1
  H+  H343  1  0.92524904  0.08791525  0.93283389  1
  H+  H344  1  0.61458538  0.89138203  0.15273674  1
  H+  H345  1  0.41665049  0.32613222  0.89590148  1
  H+  H346  1  0.08993844  0.93047748  0.09912648  1
  H+  H347  1  0.83540109  0.66405946  0.12926255  1
  H+  H348  1  0.66079245  0.58463975  0.59967581  1
  H+  H349  1  0.15361622  0.08517657  0.92556582  1
  H+  H350  1  0.47881839  0.85582860  0.52672318  1
  H+  H351  1  0.68680876  0.08264222  0.89151877  1
  H+  H352  1  0.37458104  0.26175918  -0.00692346  1
  H+  H353  1  0.83187186  0.89859084  0.42965037  1
  H+  H354  1  0.29690530  0.38026393  0.12363232  1
  H+  H355  1  0.18374140  0.99711613  0.71407855  1
  H+  H356  1  0.33691046  0.17576609  0.43207083  1
  H+  H357  1  0.92297480  0.33529539  0.88862807  1
  H+  H358  1  0.20571632  0.96306981  0.54012025  1
  H+  H359  1  0.62388840  0.51727139  -0.00096683  1
  H+  H360  1  0.83760908  0.67385767  0.39601046  1
  H+  H361  1  0.25277931  0.36448344  0.50613552  1
  H+  H362  1  0.32902981  0.91108674  0.10824737  1
  H+  H363  1  0.42723154  0.83703064  0.27364185  1
  H+  H364  1  0.67085012  0.83618983  0.90304921  1
  H+  H365  1  0.38268406  0.35020589  0.16394310  1
  H+  H366  1  0.67668621  0.34912490  0.92162447  1
  H+  H367  1  0.23832019  0.09891802  0.50750031  1
  H+  H368  1  0.34317043  0.66946270  0.43946940  1
  H+  H369  1  0.58977418  0.91448404  0.40794913  1
  H+  H370  1  0.17355919  0.58594956  0.23403513  1
  H+  H371  1  0.70131877  0.07508520  0.23723524  1
  H+  H372  1  0.07814352  0.66558266  0.44748380  1
  H+  H373  1  0.80760398  0.33491602  0.04428930  1
  H+  H374  1  0.41110874  0.09007645  0.59884868  1
  H+  H375  1  0.90859044  0.06497464  0.59456313  1
  H+  H376  1  0.59260556  0.41418789  0.10083973  1
  H+  H377  1  0.16497772  0.63195406  0.32381630  1
  H+  H378  1  0.85101186  0.17858424  0.09921119  1
  H+  H379  1  0.05621712  0.58384521  0.37054128  1
  H+  H380  1  0.08633098  0.16717888  0.06815663  1
  H+  H381  1  0.16325380  0.85392939  0.60393063  1
  H+  H382  1  0.92307817  0.56617947  0.89221192  1
  H+  H383  1  0.88776895  0.76644726  0.50534093  1
  O2-  O384  1  0.09120199  0.17226039  0.14870621  1
  O2-  O385  1  0.06958599  0.14904640  0.48151537  1
  O2-  O386  1  0.08603329  0.17874436  0.80129300  1
  O2-  O387  1  0.07949539  0.41590792  0.15321083  1
  O2-  O388  1  0.09652595  0.41839766  0.48738317  1
  O2-  O389  1  0.08892859  0.42537869  0.80706747  1
  O2-  O390  1  0.07996909  0.65786296  0.14679163  1
  O2-  O391  1  0.08188236  0.66487503  0.49188985  1
  O2-  O392  1  0.08054201  0.67072293  0.80521482  1
  O2-  O393  1  0.09117749  0.93159605  0.14477921  1
  O2-  O394  1  0.07257750  0.90987001  0.46627113  1
  O2-  O395  1  0.07042184  0.91784304  0.81801996  1
  O2-  O396  1  0.33338390  0.15128642  0.16065133  1
  O2-  O397  1  0.33613679  0.17351347  0.47857097  1
  O2-  O398  1  0.32054239  0.17505631  0.79838790  1
  O2-  O399  1  0.31755491  0.39263960  0.16568833  1
  O2-  O400  1  0.31454427  0.39579196  0.48858460  1
  O2-  O401  1  0.33376435  0.42451595  0.81798311  1
  O2-  O402  1  0.32718670  0.66554459  0.14653413  1
  O2-  O403  1  0.34210104  0.66781496  0.48470584  1
  O2-  O404  1  0.34170959  0.67058269  0.79943181  1
  O2-  O405  1  0.34090009  0.91091264  0.15192137  1
  O2-  O406  1  0.34785149  0.92800022  0.48770144  1
  O2-  O407  1  0.30925236  0.91423814  0.80530342  1
  O2-  O408  1  0.57971663  0.15082533  0.17766278  1
  O2-  O409  1  0.59587039  0.17818698  0.53596015  1
  O2-  O410  1  0.62406026  0.18367208  0.80147864  1
  O2-  O411  1  0.59642348  0.41944390  0.14628077  1
  O2-  O412  1  0.58117738  0.42862180  0.48246181  1
  O2-  O413  1  0.58488741  0.41460358  0.81244390  1
  O2-  O414  1  0.56506408  0.65826108  0.14341259  1
  O2-  O415  1  0.61488077  0.70166247  0.48461725  1
  O2-  O416  1  0.58543049  0.66340491  0.81425625  1
  O2-  O417  1  0.58534872  0.92524143  0.14571144  1
  O2-  O418  1  0.59197376  0.88722718  0.52987487  1
  O2-  O419  1  0.58679365  0.92358890  0.81441671  1
  O2-  O420  1  0.85262939  0.18281195  0.14499759  1
  O2-  O421  1  0.82929783  0.14658234  0.47463249  1
  O2-  O422  1  0.85103249  0.17289958  0.80655070  1
  O2-  O423  1  0.84811039  0.42430668  0.15964965  1
  O2-  O424  1  0.84264514  0.43210823  0.47932512  1
  O2-  O425  1  0.83717618  0.41706278  0.80250170  1
  O2-  O426  1  0.85441211  0.66635934  0.17183166  1
  O2-  O427  1  0.83770304  0.66878850  0.47812138  1
  O2-  O428  1  0.81428022  0.65221034  0.82889533  1
  O2-  O429  1  0.84256148  0.92358979  0.14555706  1
  O2-  O430  1  0.82997047  0.89592434  0.47511869  1
  O2-  O431  1  0.80613260  0.94845379  0.79464680  1
  O2-  O432  1  0.18129146  0.08954428  0.19099694  1
  O2-  O433  1  0.18768311  0.05009291  0.52793272  1
  O2-  O434  1  0.15891653  0.08959031  0.84645487  1
  O2-  O435  1  0.14859222  0.32897701  0.20167443  1
  O2-  O436  1  0.15964206  0.32074368  0.52743266  1
  O2-  O437  1  0.16648370  0.33734198  0.84819223  1
  O2-  O438  1  0.16508803  0.58145395  0.18869708  1
  O2-  O439  1  0.17248050  0.58465006  0.52154590  1
  O2-  O440  1  0.16841757  0.59245693  0.84432028  1
  O2-  O441  1  0.12633861  0.80994065  0.18654549  1
  O2-  O442  1  0.19619565  0.90367285  0.53451930  1
  O2-  O443  1  0.15003753  0.82965204  0.85517806  1
  O2-  O444  1  0.41282643  0.07761258  0.19899214  1
  O2-  O445  1  0.42363386  0.09547379  0.52170845  1
  O2-  O446  1  0.36962377  0.06487792  0.85147693  1
  O2-  O447  1  0.41639148  0.32142924  0.15179697  1
  O2-  O448  1  0.40981053  0.33065485  0.52725580  1
  O2-  O449  1  0.41797796  0.33367929  0.85121305  1
  O2-  O450  1  0.39042686  0.55699123  0.14269896  1
  O2-  O451  1  0.46479952  0.62852099  0.52843149  1
  O2-  O452  1  0.41694125  0.59470690  0.85080218  1
  O2-  O453  1  0.41788650  0.82827061  0.19440410  1
  O2-  O454  1  0.41573257  0.82975387  0.53165575  1
  O2-  O455  1  0.39856981  0.83992906  0.81593125  1
  O2-  O456  1  0.68503591  0.08299442  0.19489954  1
  O2-  O457  1  0.66672174  0.06381719  0.52682430  1
  O2-  O458  1  0.68604781  0.08570508  0.84663412  1
  O2-  O459  1  0.69711026  0.35972710  0.19807579  1
  O2-  O460  1  0.67536261  0.34871190  0.51367504  1
  O2-  O461  1  0.67483922  0.34262368  0.85066484  1
  O2-  O462  1  0.66724422  0.58744955  0.17325325  1
  O2-  O463  1  0.67283950  0.59510042  0.52399666  1
  O2-  O464  1  0.65715749  0.57248850  0.86622916  1
  O2-  O465  1  0.66532735  0.83068799  0.13999979  1
  O2-  O466  1  0.66646079  0.78672747  0.51230089  1
  O2-  O467  1  0.66487480  0.83128738  0.85849890  1
  O2-  O468  1  0.92455077  0.09079789  0.18389187  1
  O2-  O469  1  0.91027013  0.06620351  0.51797086  1
  O2-  O470  1  0.93035425  0.09140293  0.85441173  1
  O2-  O471  1  0.92519830  0.33720234  0.18269971  1
  O2-  O472  1  0.93923999  0.35739537  0.52245647  1
  O2-  O473  1  0.92114366  0.33821420  0.84321495  1
  O2-  O474  1  0.93752254  0.58282975  0.19613502  1
  O2-  O475  1  0.91945953  0.59039634  0.52567842  1
  O2-  O476  1  0.91821355  0.57596536  0.84875499  1
  O2-  O477  1  0.92782313  0.84744741  0.19067303  1
  O2-  O478  1  0.91753842  0.82730718  0.52167379  1
  O2-  O479  1  0.89905537  0.82035897  0.86060586  1
  O2-  O480  1  0.18041261  0.08891298  0.31039193  1
  O2-  O481  1  0.14724730  0.10879884  0.63383149  1
  O2-  O482  1  0.15435496  0.08492405  0.97110997  1
  O2-  O483  1  0.17103409  0.34833992  0.33051889  1
  O2-  O484  1  0.14214739  0.29642011  0.65446181  1
  O2-  O485  1  0.15493960  0.32232228  0.97286373  1
  O2-  O486  1  0.18834091  0.59620765  0.31020387  1
  O2-  O487  1  0.15649415  0.56876053  0.64486286  1
  O2-  O488  1  0.18409006  0.59810834  0.97321962  1
  O2-  O489  1  0.16474677  0.79345415  0.31193770  1
  O2-  O490  1  0.15635760  0.84048448  0.64843580  1
  O2-  O491  1  0.15864121  0.82839817  0.97853803  1
  O2-  O492  1  0.39129310  0.06622187  0.32083918  1
  O2-  O493  1  0.41116853  0.08996221  0.64454822  1
  O2-  O494  1  0.37097329  0.06143972  0.97594870  1
  O2-  O495  1  0.40114595  0.33620969  0.32731189  1
  O2-  O496  1  0.40327319  0.30546726  0.65671174  1
  O2-  O497  1  0.41668011  0.32495601  0.97924198  1
  O2-  O498  1  0.40016214  0.57373092  0.31877831  1
  O2-  O499  1  0.43028523  0.59870758  0.64918900  1
  O2-  O500  1  0.42190788  0.61189432  0.96917207  1
  O2-  O501  1  0.43137499  0.83854304  0.31912300  1
  O2-  O502  1  0.40524988  0.83116714  0.65738555  1
  O2-  O503  1  0.41284593  0.84109504  1.03488933  1
  O2-  O504  1  0.73759166  0.05648075  0.30322681  1
  O2-  O505  1  0.67032925  0.06878028  0.64724465  1
  O2-  O506  1  0.68514826  0.07759038  0.97416276  1
  O2-  O507  1  0.66873582  0.35901514  0.32021465  1
  O2-  O508  1  0.67354048  0.34679287  0.63180913  1
  O2-  O509  1  0.67407005  0.34749019  0.96853918  1
  O2-  O510  1  0.67003603  0.59095995  0.30958403  1
  O2-  O511  1  0.66176514  0.58137911  0.64545319  1
  O2-  O512  1  0.65349052  0.57880710  0.98642102  1
  O2-  O513  1  0.66461677  0.82902909  0.31823554  1
  O2-  O514  1  0.64407330  0.83206008  0.63961325  1
  O2-  O515  1  0.66551657  0.83822941  0.99388543  1
  O2-  O516  1  0.89162919  0.05610965  0.30154536  1
  O2-  O517  1  0.90569374  0.06104523  0.64002152  1
  O2-  O518  1  0.92017438  0.08614248  0.97830195  1
  O2-  O519  1  0.93125751  0.35081705  0.32016491  1
  O2-  O520  1  0.91554121  0.32410876  0.64530510  1
  O2-  O521  1  0.93112754  0.33472284  0.96545096  1
  O2-  O522  1  0.88472886  0.53767699  0.32780833  1
  O2-  O523  1  0.90644578  0.58490191  0.64339356  1
  O2-  O524  1  0.92567860  0.55421372  0.97723814  1
  O2-  O525  1  0.92168920  0.83319172  0.30903578  1
  O2-  O526  1  0.89849192  0.81631771  0.63919823  1
  O2-  O527  1  0.91815092  0.84165731  0.99050301  1
  O2-  O528  1  0.08120676  0.16648850  0.02294842  1
  O2-  O529  1  0.06380918  0.14449766  0.35832314  1
  O2-  O530  1  0.07667410  0.21157269  0.67764979  1
  O2-  O531  1  0.14836322  0.45076113  0.03167232  1
  O2-  O532  1  0.09006230  0.43277257  0.36372786  1
  O2-  O533  1  0.08182453  0.40264114  0.68508175  1
  O2-  O534  1  0.08802029  0.66278873  0.02067059  1
  O2-  O535  1  0.04995510  0.63343705  0.36077150  1
  O2-  O536  1  0.06949861  0.66431679  0.68107806  1
  O2-  O537  1  0.08793458  0.92430136  0.02092031  1
  O2-  O538  1  0.08995496  0.92039161  0.34843124  1
  O2-  O539  1  0.12711498  0.95952588  0.69663328  1
  O2-  O540  1  0.31636879  0.17211236  0.01608785  1
  O2-  O541  1  0.35040931  0.18327616  0.35908264  1
  O2-  O542  1  0.35987757  0.21391585  0.67503806  1
  O2-  O543  1  0.31178593  0.46865898  0.03777636  1
  O2-  O544  1  0.31883626  0.40969581  0.37776833  1
  O2-  O545  1  0.35144838  0.42939288  0.69021250  1
  O2-  O546  1  0.33893068  0.68325915  0.02066629  1
  O2-  O547  1  0.33919454  0.66639661  0.35824073  1
  O2-  O548  1  0.34757179  0.67464130  0.68674503  1
  O2-  O549  1  0.31787626  0.90539083  0.02295989  1
  O2-  O550  1  0.33023790  0.90391181  0.36415731  1
  O2-  O551  1  0.32129431  0.91425117  0.68362527  1
  O2-  O552  1  0.51277854  0.12419566  0.04945123  1
  O2-  O553  1  0.55453996  0.19252356  0.37311965  1
  O2-  O554  1  0.58125824  0.14965046  0.66817276  1
  O2-  O555  1  0.57885756  0.41040405  0.02359552  1
  O2-  O556  1  0.57365898  0.43080295  0.35821603  1
  O2-  O557  1  0.57197024  0.40730921  0.68772287  1
  O2-  O558  1  0.57706806  0.66800269  0.02129084  1
  O2-  O559  1  0.56389992  0.65237795  0.35021427  1
  O2-  O560  1  0.58800773  0.66812342  0.68932929  1
  O2-  O561  1  0.58219051  0.92417813  0.02505588  1
  O2-  O562  1  0.59270910  0.91731600  0.36366850  1
  O2-  O563  1  0.56900561  0.91046288  0.69530468  1
  O2-  O564  1  0.84862599  0.17520561  0.02244257  1
  O2-  O565  1  0.85809984  0.18809230  0.36437448  1
  O2-  O566  1  0.83408575  0.15864291  0.68266360  1
  O2-  O567  1  0.81786404  0.39163662  0.03221626  1
  O2-  O568  1  0.84351550  0.46125091  0.35121462  1
  O2-  O569  1  0.83530506  0.41440434  0.67906366  1
  O2-  O570  1  0.76993410  0.67364541  0.06843744  1
  O2-  O571  1  0.83812885  0.67881289  0.35105665  1
  O2-  O572  1  0.82014995  0.65426697  0.67259061  1
  O2-  O573  1  0.83536237  0.92446149  0.02267516  1
  O2-  O574  1  0.83314705  0.90340201  0.35230112  1
  O2-  O575  1  0.81268316  0.90699953  0.68015760  1
