# generated using pymatgen
data_H2O
_symmetry_space_group_name_H-M   'P 1'
_cell_length_a   17.98690806
_cell_length_b   17.98882943
_cell_length_c   22.00129720
_cell_angle_alpha   90.01686877
_cell_angle_beta   90.01128123
_cell_angle_gamma   119.96574356
_symmetry_Int_Tables_number   1
_chemical_formula_structural   H2O
_chemical_formula_sum   'H384 O192'
_cell_volume   6167.20089685
_cell_formula_units_Z   192
loop_
 _symmetry_equiv_pos_site_id
 _symmetry_equiv_pos_as_xyz
  1  'x, y, z'
loop_
 _atom_type_symbol
 _atom_type_oxidation_number
  H+  1.0
  O2-  -2.0
loop_
 _atom_site_type_symbol
 _atom_site_label
 _atom_site_symmetry_multiplicity
 _atom_site_fract_x
 _atom_site_fract_y
 _atom_site_fract_z
 _atom_site_occupancy
  H+  H0  1  0.51910564  0.87595641  -0.00585235  1
  H+  H1  1  0.48391408  0.62518038  0.67208232  1
  H+  H2  1  0.51945200  0.13367372  0.34265455  1
  H+  H3  1  0.59933558  0.96469536  0.15146911  1
  H+  H4  1  0.63080391  0.52088498  0.50977875  1
  H+  H5  1  -0.02954324  0.60103795  0.50770472  1
  H+  H6  1  0.61489846  0.47732519  0.67710137  1
  H+  H7  1  0.62060973  0.73266905  0.67435349  1
  H+  H8  1  0.13428047  0.09915679  -0.01068197  1
  H+  H9  1  0.36972821  0.48975573  0.67966865  1
  H+  H10  1  0.37924823  0.75966946  0.81881764  1
  H+  H11  1  0.58438006  0.41745347  0.43723765  1
  H+  H12  1  0.63900283  0.53048321  0.17036551  1
  H+  H13  1  0.61792673  0.47885811  0.34153983  1
  H+  H14  1  0.82463154  0.66291636  0.73294270  1
  H+  H15  1  0.11853517  0.64144570  0.01058848  1
  H+  H16  1  0.85551560  0.38318140  0.16228738  1
  H+  H17  1  0.46905569  0.85111466  0.32795454  1
  H+  H18  1  0.26909846  0.87781283  0.84449167  1
  H+  H19  1  0.62813926  0.26535802  0.67132890  1
  H+  H20  1  0.81304523  0.30230436  -0.03218233  1
  H+  H21  1  0.34439993  0.36180798  0.00808736  1
  H+  H22  1  0.97097010  0.36903215  0.16860855  1
  H+  H23  1  0.51810064  0.87047018  0.14974167  1
  H+  H24  1  0.62596170  0.77096913  0.51200578  1
  H+  H25  1  0.27685126  0.13140112  0.82116011  1
  H+  H26  1  0.14215134  0.61803585  0.66234514  1
  H+  H27  1  0.08160353  0.97054526  0.66648151  1
  H+  H28  1  0.13713822  0.61146647  0.17480979  1
  H+  H29  1  0.37039832  0.10359552  0.17632148  1
  H+  H30  1  0.00279295  0.37605282  0.50858093  1
  H+  H31  1  0.39880555  0.31006044  0.92922395  1
  H+  H32  1  0.63629058  0.76950665  0.99370955  1
  H+  H33  1  0.88099712  0.51603737  0.83707246  1
  H+  H34  1  0.01489507  0.88938938  0.51594397  1
  H+  H35  1  0.73325052  0.85843311  0.84609231  1
  H+  H36  1  0.12680714  0.84132403  0.45707076  1
  H+  H37  1  0.88066711  0.51790097  0.18042427  1
  H+  H38  1  0.60913833  0.22404972  0.34230454  1
  H+  H39  1  -0.02042523  0.36322245  0.32201586  1
  H+  H40  1  0.76681981  0.88155305  0.68218976  1
  H+  H41  1  0.88797997  0.36570311  0.83754534  1
  H+  H42  1  0.90376732  0.23585309  0.34782339  1
  H+  H43  1  0.97838157  0.36613553  0.84195243  1
  H+  H44  1  0.13940358  0.37024362  0.32794320  1
  H+  H45  1  1.00288633  0.91557296  0.49586947  1
  H+  H46  1  0.52049751  0.63700078  0.50208639  1
  H+  H47  1  0.80581442  0.21686058  0.47181502  1
  H+  H48  1  0.74220724  0.13056180  0.84495328  1
  H+  H49  1  0.37043744  0.40052676  0.67394143  1
  H+  H50  1  0.93044372  0.33505387  0.61013043  1
  H+  H51  1  0.13911805  0.31195724  0.50106531  1
  H+  H52  1  0.64523054  0.37786851  0.51001187  1
  H+  H53  1  0.75758964  0.63857900  0.83072715  1
  H+  H54  1  0.38182475  0.85010697  0.32157395  1
  H+  H55  1  0.87472323  0.22651995  0.67574584  1
  H+  H56  1  0.85007421  0.11039032  0.51084078  1
  H+  H57  1  0.38735538  0.27833171  0.50827902  1
  H+  H58  1  0.41515490  0.59539008  0.57548433  1
  H+  H59  1  0.97472836  0.10970825  0.16888685  1
  H+  H60  1  1.02011229  0.63868364  0.64948955  1
  H+  H61  1  0.83289134  0.91401544  0.77774694  1
  H+  H62  1  0.37213283  0.92543594  0.09166562  1
  H+  H63  1  0.37047527  0.64158888  1.00133401  1
  H+  H64  1  0.83296008  0.87302516  0.49858577  1
  H+  H65  1  0.35965338  0.71704977  0.15809050  1
  H+  H66  1  0.27268977  0.13852899  0.15582751  1
  H+  H67  1  0.98074557  0.05812906  0.63457570  1
  H+  H68  1  0.14405208  0.11726462  0.84005316  1
  H+  H69  1  0.13477161  0.76883660  0.17802064  1
  H+  H70  1  0.38456910  1.01508903  0.32902459  1
  H+  H71  1  0.52952003  0.65005085  0.82350192  1
  H+  H72  1  0.57985411  0.41949714  0.08258231  1
  H+  H73  1  0.87573849  0.73692534  0.02613097  1
  H+  H74  1  0.82638336  0.65847158  0.43513209  1
  H+  H75  1  0.06584475  0.16746840  0.46858816  1
  H+  H76  1  0.09448255  0.10719744  0.67072375  1
  H+  H77  1  0.36636468  0.84069979  0.83419515  1
  H+  H78  1  0.62365981  0.63738125  1.00672062  1
  H+  H79  1  0.89332828  0.11848893  0.84488364  1
  H+  H80  1  0.13973943  0.76704954  0.86084163  1
  H+  H81  1  0.72934283  0.35664876  0.33030135  1
  H+  H82  1  0.21561595  0.60405452  0.82336502  1
  H+  H83  1  0.52187666  0.38596044  0.49589684  1
  H+  H84  1  0.85633398  0.12179854  0.00892795  1
  H+  H85  1  0.14273669  0.36831233  0.84353855  1
  H+  H86  1  0.15896046  0.32324307  0.93278716  1
  H+  H87  1  0.25822523  0.14936767  0.55171918  1
  H+  H88  1  0.75187654  0.62648489  0.00063878  1
  H+  H89  1  0.40985866  0.81542869  0.92582393  1
  H+  H90  1  0.02844370  0.14188464  0.83814246  1
  H+  H91  1  0.77424757  0.72063630  0.79343680  1
  H+  H92  1  0.61555698  0.97597368  0.68258673  1
  H+  H93  1  0.63352229  0.75599127  0.83656056  1
  H+  H94  1  0.49647769  0.12421791  0.16702837  1
  H+  H95  1  0.22050968  0.86747325  0.65917686  1
  H+  H96  1  0.38573505  -0.02437997  0.15558398  1
  H+  H97  1  0.25459523  0.61699941  0.71848406  1
  H+  H98  1  0.12147578  0.25453294  0.68238493  1
  H+  H99  1  0.26989566  0.13249740  0.34224426  1
  H+  H100  1  0.97476341  0.86877863  1.01534917  1
  H+  H101  1  0.74180470  0.12213807  0.49288073  1
  H+  H102  1  0.86161882  0.62870724  0.34155592  1
  H+  H103  1  0.11419568  0.47226564  0.34033843  1
  H+  H104  1  0.88659696  0.53720686  0.99586869  1
  H+  H105  1  0.39686518  0.53855488  0.82965882  1
  H+  H106  1  0.37224335  0.88168716  0.48345346  1
  H+  H107  1  0.14507900  0.83729678  0.33423472  1
  H+  H108  1  0.61835378  0.34380032  0.17952368  1
  H+  H109  1  0.50356806  0.88005737  0.49901911  1
  H+  H110  1  0.01487107  0.20872666  0.43505229  1
  H+  H111  1  0.02855166  0.89687809  0.82334252  1
  H+  H112  1  0.87022594  0.14656018  0.16074517  1
  H+  H113  1  0.91557629  0.57436914  0.27540468  1
  H+  H114  1  0.88339124  1.01540528  -0.00247321  1
  H+  H115  1  0.72459276  0.61076777  0.32825377  1
  H+  H116  1  0.03051124  0.96160543  0.39683667  1
  H+  H117  1  0.65048657  0.03530785  0.32641048  1
  H+  H118  1  0.36194045  0.71804537  0.33826883  1
  H+  H119  1  0.12069277  0.97934857  0.16294740  1
  H+  H120  1  0.82775466  0.91231706  0.39837517  1
  H+  H121  1  0.36839457  0.96957276  0.00105580  1
  H+  H122  1  0.36942581  0.24598900  0.98867326  1
  H+  H123  1  0.36590299  0.49628975  0.33985452  1
  H+  H124  1  0.88762976  0.78041352  0.85182528  1
  H+  H125  1  0.85984522  0.96568931  0.68112215  1
  H+  H126  1  0.08175084  0.06568185  0.47563170  1
  H+  H127  1  0.15050770  0.76497712  0.50882164  1
  H+  H128  1  0.90766132  0.11543915  0.33011414  1
  H+  H129  1  0.57611980  0.66077846  0.44085519  1
  H+  H130  1  0.52032514  0.63325573  0.15607648  1
  H+  H131  1  0.13989717  0.02565985  0.83468876  1
  H+  H132  1  0.63366794  0.86228441  0.16101158  1
  H+  H133  1  0.76186979  0.36680538  0.68350581  1
  H+  H134  1  0.62214029  0.14515267  0.83279080  1
  H+  H135  1  0.43944985  0.06677663  0.59091447  1
  H+  H136  1  0.11630175  0.48245615  0.68364420  1
  H+  H137  1  0.76410007  0.37758498  0.16727966  1
  H+  H138  1  0.62290841  0.10427687  0.51496864  1
  H+  H139  1  0.62931745  0.13181644  1.00767309  1
  H+  H140  1  0.17620346  -0.01250047  0.53866609  1
  H+  H141  1  0.88124199  0.60508975  0.83591190  1
  H+  H142  1  0.37752672  0.10061651  0.33691582  1
  H+  H143  1  0.88669510  0.51487953  0.33482313  1
  H+  H144  1  0.60776649  0.37368552  0.82672855  1
  H+  H145  1  0.40120825  0.85978447  0.16542530  1
  H+  H146  1  0.27967863  0.64020554  1.00289573  1
  H+  H147  1  0.09236671  0.18651467  0.37399906  1
  H+  H148  1  0.61121536  0.63701810  0.15889590  1
  H+  H149  1  0.76155098  0.88516605  0.16050977  1
  H+  H150  1  0.86277396  0.34115382  0.49371532  1
  H+  H151  1  0.24424424  0.62029118  0.51484270  1
  H+  H152  1  0.02532323  0.62645613  0.34534993  1
  H+  H153  1  0.13353456  0.02936887  0.32455194  1
  H+  H154  1  0.88924631  0.02727377  0.84541228  1
  H+  H155  1  0.62561360  0.00880807  0.99007072  1
  H+  H156  1  0.84106598  -0.03272803  0.49417119  1
  H+  H157  1  0.40057864  0.07586864  0.23836565  1
  H+  H158  1  0.01671115  0.63269860  0.82528043  1
  H+  H159  1  0.58493234  0.66266071  0.06317253  1
  H+  H160  1  0.59830944  0.88347143  0.50032789  1
  H+  H161  1  0.72567963  0.61022844  0.66219809  1
  H+  H162  1  0.12648031  0.63102170  0.50070955  1
  H+  H163  1  0.87347879  0.13675533  0.67816636  1
  H+  H164  1  0.63527913  0.77477399  0.16391405  1
  H+  H165  1  0.02779227  0.17280394  0.68699803  1
  H+  H166  1  0.51039915  0.88643769  0.83430134  1
  H+  H167  1  1.03025342  0.13755927  0.31898009  1
  H+  H168  1  0.50056297  0.34654755  0.32545882  1
  H+  H169  1  0.89149335  0.01897918  0.32461673  1
  H+  H170  1  0.36820753  0.49194663  0.49663464  1
  H+  H171  1  0.92296229  0.83634945  0.11622518  1
  H+  H172  1  0.88434507  0.60493923  0.50525891  1
  H+  H173  1  0.61877494  0.01262447  0.51483120  1
  H+  H174  1  0.86382592  0.37609005  0.33419313  1
  H+  H175  1  0.13344979  0.35023537  0.99556514  1
  H+  H176  1  0.27109773  0.15447538  0.62333597  1
  H+  H177  1  0.10469371  0.38675179  0.15954090  1
  H+  H178  1  0.36872309  0.22123403  0.15348349  1
  H+  H179  1  0.33922300  0.67198674  0.43972154  1
  H+  H180  1  0.11266700  0.47647917  0.83394601  1
  H+  H181  1  0.35891571  0.96490297  0.83123785  1
  H+  H182  1  0.86060135  0.71747290  0.33697241  1
  H+  H183  1  0.61170988  0.22639167  0.49438768  1
  H+  H184  1  0.27649029  0.40798795  0.49471524  1
  H+  H185  1  0.10776182  0.20885897  0.00355733  1
  H+  H186  1  0.85468209  0.97594548  0.16121106  1
  H+  H187  1  0.40011146  0.62613270  0.69195556  1
  H+  H188  1  0.10658020  0.89484090  0.66448410  1
  H+  H189  1  0.85775093  0.72006128  0.67373710  1
  H+  H190  1  0.73173964  0.11137067  0.66511912  1
  H+  H191  1  0.23870188  0.38092221  0.66311102  1
  H+  H192  1  0.77283625  0.38416069  0.83155269  1
  H+  H193  1  0.38827287  0.10875556  0.99247642  1
  H+  H194  1  0.13712652  0.85930492  0.18173532  1
  H+  H195  1  0.63134405  0.85735991  0.99000991  1
  H+  H196  1  0.15241607  0.53382318  0.99103925  1
  H+  H197  1  0.39038651  0.10681093  0.83355656  1
  H+  H198  1  0.13362657  0.61264665  0.83744615  1
  H+  H199  1  0.85153326  0.87860312  0.33732886  1
  H+  H200  1  0.11785695  0.71239461  0.34011716  1
  H+  H201  1  0.48500917  0.62640278  -0.01886827  1
  H+  H202  1  0.47295214  0.35634911  0.84020321  1
  H+  H203  1  0.36843882  0.88201366  -0.00014722  1
  H+  H204  1  0.16815144  0.57738034  0.26745746  1
  H+  H205  1  0.60481800  0.08917940  0.17453834  1
  H+  H206  1  0.86896606  0.89280546  0.83858465  1
  H+  H207  1  0.18767236  0.99588014  0.50562038  1
  H+  H208  1  0.92109407  0.59094162  -0.06579381  1
  H+  H209  1  0.09565039  0.67034865  0.60203402  1
  H+  H210  1  0.47950502  0.26109615  0.29294188  1
  H+  H211  1  0.92631945  0.27590852  0.52452995  1
  H+  H212  1  0.76192192  0.40534399  0.01040032  1
  H+  H213  1  0.38502742  0.61121851  0.16982008  1
  H+  H214  1  0.60594946  0.63023022  0.34410603  1
  H+  H215  1  0.25570392  0.35910733  0.00640740  1
  H+  H216  1  0.53054169  0.96981642  0.37260667  1
  H+  H217  1  0.38553887  1.01992225  0.49144809  1
  H+  H218  1  0.64526722  0.50561079  0.84722456  1
  H+  H219  1  0.64335866  0.11774009  0.32272694  1
  H+  H220  1  0.13876892  0.11878556  0.16922376  1
  H+  H221  1  0.91706354  0.07816871  0.93897198  1
  H+  H222  1  0.37111218  0.74215265  0.49597602  1
  H+  H223  1  0.48948220  0.35726264  0.16426768  1
  H+  H224  1  0.36593147  0.14055284  0.49601875  1
  H+  H225  1  0.13778428  0.60368937  0.32861851  1
  H+  H226  1  0.63314450  0.61140307  0.51049926  1
  H+  H227  1  0.47935293  0.11375707  0.99268540  1
  H+  H228  1  0.65123515  0.06845130  0.22733502  1
  H+  H229  1  0.47268186  0.10956559  0.49591347  1
  H+  H230  1  0.48738306  0.35993492  -0.00232819  1
  H+  H231  1  0.38989306  0.62674844  0.51448813  1
  H+  H232  1  0.10147110  0.96637463  -0.03302185  1
  H+  H233  1  0.14448221  0.12159597  0.31674550  1
  H+  H234  1  0.26795767  0.39751654  0.34094960  1
  H+  H235  1  0.12098944  0.39653675  0.68048499  1
  H+  H236  1  0.57983886  0.41180245  0.77086736  1
  H+  H237  1  0.63475474  0.27565904  0.99325218  1
  H+  H238  1  0.93802225  0.11279540  0.51049181  1
  H+  H239  1  0.72861766  0.61652642  0.17452491  1
  H+  H240  1  0.14650113  0.28534632  0.31571036  1
  H+  H241  1  0.11136559  0.09799723  0.49883592  1
  H+  H242  1  0.61548925  0.25426640  0.17944187  1
  H+  H243  1  0.27365678  0.62819767  0.34064203  1
  H+  H244  1  0.40308039  0.62804246  0.80999426  1
  H+  H245  1  0.71686172  0.85870974  0.33862322  1
  H+  H246  1  0.11019549  0.47894369  0.16123533  1
  H+  H247  1  0.47356124  0.60722504  0.33130508  1
  H+  H248  1  0.73660566  0.41434553  0.53864542  1
  H+  H249  1  0.02455823  0.63033607  0.16442163  1
  H+  H250  1  0.10846644  0.22667987  0.15643603  1
  H+  H251  1  0.34286610  0.86712890  0.68683732  1
  H+  H252  1  1.03194185  0.89267584  0.16445439  1
  H+  H253  1  0.82050644  0.42957341  0.07014923  1
  H+  H254  1  0.34756731  0.47176610  0.15510780  1
  H+  H255  1  0.76747144  0.88257772  1.00910630  1
  H+  H256  1  0.71882247  0.09341233  0.99657131  1
  H+  H257  1  0.88576675  0.60876159  0.18135956  1
  H+  H258  1  0.38465713  0.61137441  0.32954775  1
  H+  H259  1  0.52490292  0.13139260  0.83027817  1
  H+  H260  1  0.36597211  0.21310697  0.34352216  1
  H+  H261  1  0.38664845  0.36160729  0.83888146  1
  H+  H262  1  0.63275380  0.26451120  0.83771384  1
  H+  H263  1  0.20145814  0.46547467  0.04209654  1
  H+  H264  1  0.87355340  0.23143725  0.82799086  1
  H+  H265  1  0.76809928  0.32868197  0.49034085  1
  H+  H266  1  0.96483519  0.85370196  0.66192899  1
  H+  H267  1  0.84714885  0.75566332  0.51358940  1
  H+  H268  1  0.71123420  0.86118469  0.50683769  1
  H+  H269  1  0.13136134  0.78521765  0.64638045  1
  H+  H270  1  0.85109375  0.36576430  0.68268000  1
  H+  H271  1  0.67577189  0.53469604  1.01169211  1
  H+  H272  1  0.21597677  0.36580180  0.16544353  1
  H+  H273  1  0.17365391  0.83965797  0.55895835  1
  H+  H274  1  0.85923199  0.72238628  0.16020873  1
  H+  H275  1  0.60938539  0.38461663  0.67807221  1
  H+  H276  1  0.56333324  0.45398078  0.98581778  1
  H+  H277  1  0.66500978  0.44060806  0.11530094  1
  H+  H278  1  0.62844702  0.85765134  0.33520066  1
  H+  H279  1  0.52914491  0.88444291  0.69115353  1
  H+  H280  1  0.33812183  0.16730776  0.72076068  1
  H+  H281  1  0.33715763  0.90749909  0.39249039  1
  H+  H282  1  0.63756748  0.86557354  0.66787217  1
  H+  H283  1  0.62395896  0.14063388  0.68300965  1
  H+  H284  1  0.05989024  0.47520947  0.46743349  1
  H+  H285  1  0.96354323  0.86438504  0.32295491  1
  H+  H286  1  0.76636438  0.62549403  0.49438638  1
  H+  H287  1  0.39586943  0.75985789  0.71319856  1
  H+  H288  1  0.38725040  0.36785709  0.50515027  1
  H+  H289  1  0.61882513  0.64126843  0.67531063  1
  H+  H290  1  0.27779460  0.87481125  0.33209135  1
  H+  H291  1  0.89108409  0.61452061  0.66130810  1
  H+  H292  1  0.48172046  0.37665018  0.66179012  1
  H+  H293  1  0.18774003  0.58849604  0.61525984  1
  H+  H294  1  0.61501077  0.35356804  0.98671508  1
  H+  H295  1  0.66435048  0.08084271  0.60997822  1
  H+  H296  1  0.17620240  0.35469342  0.60450728  1
  H+  H297  1  0.66183805  0.32785972  0.89588711  1
  H+  H298  1  0.88585908  0.27630141  0.16907589  1
  H+  H299  1  0.09285326  0.65601040  0.44021214  1
  H+  H300  1  0.32962400  0.43237972  0.40556293  1
  H+  H301  1  0.66461973  0.58296756  0.26911274  1
  H+  H302  1  0.38778567  0.76683097  -0.01002260  1
  H+  H303  1  0.88554016  0.30768683  0.92549727  1
  H+  H304  1  0.36410500  0.21970290  0.82138465  1
  H+  H305  1  0.91710103  0.08043607  0.22879603  1
  H+  H306  1  0.82864182  0.38366442  0.39755087  1
  H+  H307  1  0.87508941  0.85180051  0.67112401  1
  H+  H308  1  0.85621524  0.17051875  0.40203302  1
  H+  H309  1  0.91157072  0.82681987  0.26146610  1
  H+  H310  1  0.66690324  0.82414866  0.90538357  1
  H+  H311  1  0.60248663  0.71754876  0.34931524  1
  H+  H312  1  0.87162075  0.81186465  0.57497634  1
  H+  H313  1  0.08382949  0.66134286  0.10394135  1
  H+  H314  1  0.07163711  0.90261743  0.38879370  1
  H+  H315  1  0.56572318  0.92483851  0.41557879  1
  H+  H316  1  0.58676562  0.16640420  0.74099661  1
  H+  H317  1  0.13451649  0.09105309  0.61323181  1
  H+  H318  1  0.57555963  0.90655733  0.05605869  1
  H+  H319  1  0.08304438  0.16242011  0.09893766  1
  H+  H320  1  0.28310608  0.88328308  0.48419077  1
  H+  H321  1  0.30715143  0.89352919  0.74315504  1
  H+  H322  1  0.58377817  0.92761112  0.78684480  1
  H+  H323  1  0.67097721  0.20643307  0.05485755  1
  H+  H324  1  0.33045736  0.65779604  0.09857150  1
  H+  H325  1  0.15553980  0.52917569  0.51727946  1
  H+  H326  1  0.41947509  0.08013298  0.89478605  1
  H+  H327  1  0.44029901  0.31975195  0.22579542  1
  H+  H328  1  0.41672187  0.81920382  0.22698629  1
  H+  H329  1  0.91202893  0.57945319  0.60043132  1
  H+  H330  1  0.04295567  0.77739227  0.42111025  1
  H+  H331  1  0.62684277  0.39377993  0.34580203  1
  H+  H332  1  0.82900024  0.40918695  0.77078257  1
  H+  H333  1  0.88511843  0.86680038  1.02809949  1
  H+  H334  1  0.15997512  0.33817754  0.22624144  1
  H+  H335  1  0.66434672  0.83622834  0.60574579  1
  H+  H336  1  0.65692016  0.32546023  0.61156625  1
  H+  H337  1  0.83559885  0.16946936  0.10180476  1
  H+  H338  1  0.49704783  0.09487356  0.64947555  1
  H+  H339  1  0.87574045  0.86367768  0.16157112  1
  H+  H340  1  0.17427103  0.59055849  0.93051278  1
  H+  H341  1  0.84288899  0.16787011  0.77080426  1
  H+  H342  1  0.08765560  0.18068575  0.77926672  1
  H+  H343  1  0.66339719  0.58126470  0.60409132  1
  H+  H344  1  0.42173303  0.34783892  0.60198909  1
  H+  H345  1  0.55960697  0.15270157  0.10820472  1
  H+  H346  1  0.08253044  0.92513063  0.76270446  1
  H+  H347  1  0.40620453  0.78171142  0.64371397  1
  H+  H348  1  0.82145701  0.91726251  0.07197224  1
  H+  H349  1  0.16625784  0.81879983  0.26408792  1
  H+  H350  1  0.67583402  0.09423015  0.90119501  1
  H+  H351  1  0.91813627  0.33017743  0.26281413  1
  H+  H352  1  0.14459500  0.40024614  0.50888253  1
  H+  H353  1  0.03147897  0.64345160  0.01087117  1
  H+  H354  1  0.32674794  0.15145462  0.06361616  1
  H+  H355  1  0.59515735  0.68210996  0.76638368  1
  H+  H356  1  0.08561440  0.41716726  0.77504149  1
  H+  H357  1  0.02096334  0.11982756  0.00793904  1
  H+  H358  1  0.87966471  0.64983154  0.00747812  1
  H+  H359  1  0.40859383  0.84334153  0.55447270  1
  H+  H360  1  0.22574012  0.60884908  0.17243005  1
  H+  H361  1  -0.01847868  0.36363946  0.67265204  1
  H+  H362  1  0.08099434  0.41456049  0.40116266  1
  H+  H363  1  0.32629556  0.16863511  0.44298934  1
  H+  H364  1  0.17214869  0.08937390  0.22733632  1
  H+  H365  1  0.31504294  0.40606945  0.09854858  1
  H+  H366  1  0.58635102  0.16964091  0.43373344  1
  H+  H367  1  0.14448625  0.27984712  0.84416354  1
  H+  H368  1  0.84092568  0.20209092  0.00098241  1
  H+  H369  1  0.11129707  0.43227776  0.07234387  1
  H+  H370  1  0.26645882  0.11554366  0.00361033  1
  H+  H371  1  0.08422714  0.67836084  0.77176923  1
  H+  H372  1  0.28291670  0.39705121  0.83085518  1
  H+  H373  1  0.14899071  0.83583141  0.91035907  1
  H+  H374  1  0.66411705  0.32737033  0.27331248  1
  H+  H375  1  0.83486243  0.65847767  0.10502979  1
  H+  H376  1  0.33895595  0.42326529  0.77005212  1
  H+  H377  1  0.37604441  0.24078393  0.67144389  1
  H+  H378  1  0.17147529  0.08191859  0.92680607  1
  H+  H379  1  0.95389747  0.84638790  0.90189635  1
  H+  H380  1  0.41557892  0.58080227  0.22826409  1
  H+  H381  1  0.90649106  0.06802412  0.60280279  1
  H+  H382  1  0.68227599  0.56501638  0.90811707  1
  H+  H383  1  0.42902553  0.61013787  0.92122071  1
  O2-  O384  1  0.08137416  0.16482696  0.14442951  1
  O2-  O385  1  0.07137679  0.21854214  0.44828887  1
  O2-  O386  1  0.08969201  0.17408751  0.82413222  1
  O2-  O387  1  0.07799723  0.42009432  0.14253049  1
  O2-  O388  1  0.07632199  0.43228595  0.47658680  1
  O2-  O389  1  0.08396710  0.41499304  0.82060320  1
  O2-  O390  1  0.08489635  0.66042195  0.15033919  1
  O2-  O391  1  0.09317637  0.65841358  0.48569635  1
  O2-  O392  1  0.07939150  0.66433390  0.81479317  1
  O2-  O393  1  0.09300569  0.91693253  0.15455848  1
  O2-  O394  1  0.09290700  0.83474915  0.41867031  1
  O2-  O395  1  0.08754187  0.93024992  0.80761343  1
  O2-  O396  1  0.33231832  0.16011028  0.13971023  1
  O2-  O397  1  0.33753658  0.17563177  0.48741083  1
  O2-  O398  1  0.33729655  0.15982575  0.80585204  1
  O2-  O399  1  0.30879983  0.41136988  0.14342635  1
  O2-  O400  1  0.33595741  0.43337932  0.47771766  1
  O2-  O401  1  0.34325290  0.42601067  0.81542286  1
  O2-  O402  1  0.32773195  0.65513080  0.14418585  1
  O2-  O403  1  0.34133198  0.67626728  0.48471444  1
  O2-  O404  1  0.37063698  0.67627154  0.75736033  1
  O2-  O405  1  0.39553632  0.93323506  0.13435876  1
  O2-  O406  1  0.34136938  0.91329861  0.46596638  1
  O2-  O407  1  0.32339385  0.90340646  0.81955450  1
  O2-  O408  1  0.55871688  0.15684005  0.15275362  1
  O2-  O409  1  0.58495985  0.16745786  0.47953541  1
  O2-  O410  1  0.58501750  0.16750851  0.81556819  1
  O2-  O411  1  0.60725909  0.42994445  0.12406994  1
  O2-  O412  1  0.58373684  0.41603641  0.48273660  1
  O2-  O413  1  0.57810965  0.40688012  0.81627105  1
  O2-  O414  1  0.58032581  0.66370386  0.13952018  1
  O2-  O415  1  0.58054318  0.66482588  0.48617035  1
  O2-  O416  1  0.59288325  0.68243972  0.81222015  1
  O2-  O417  1  0.57677245  0.90612324  0.13214640  1
  O2-  O418  1  0.56998426  0.91597905  0.48645683  1
  O2-  O419  1  0.57208328  0.92828424  0.83034063  1
  O2-  O420  1  0.84596013  0.18200250  0.14589682  1
  O2-  O421  1  0.80141890  0.15972464  0.47463145  1
  O2-  O422  1  0.84707589  0.16951341  0.81583326  1
  O2-  O423  1  0.82265809  0.41331622  0.15087800  1
  O2-  O424  1  0.81174391  0.32396243  0.46648442  1
  O2-  O425  1  0.83360339  0.41716959  0.81708992  1
  O2-  O426  1  0.83056994  0.65950900  0.15058166  1
  O2-  O427  1  0.82741912  0.65724136  0.48035551  1
  O2-  O428  1  0.80492404  0.69225442  0.80821528  1
  O2-  O429  1  0.82436632  0.91544065  0.14583654  1
  O2-  O430  1  0.81364994  0.90984986  0.47553688  1
  O2-  O431  1  0.83341110  0.91717424  0.82327987  1
  O2-  O432  1  0.17223292  0.09048575  0.18214853  1
  O2-  O433  1  0.23001684  0.14895012  0.59017770  1
  O2-  O434  1  0.17458389  0.08614219  0.85203385  1
  O2-  O435  1  0.15356892  0.33276743  0.18161299  1
  O2-  O436  1  0.17316969  0.36745804  0.52198715  1
  O2-  O437  1  0.17654283  0.34118759  0.85796224  1
  O2-  O438  1  0.16633690  0.57952788  0.19024201  1
  O2-  O439  1  0.18518775  0.58868634  0.53405442  1
  O2-  O440  1  0.16551198  0.58344814  0.85122355  1
  O2-  O441  1  0.16351479  0.82588102  0.19822984  1
  O2-  O442  1  0.17756068  0.82833722  0.51449586  1
  O2-  O443  1  0.18141788  0.81884826  0.88270254  1
  O2-  O444  1  0.40115704  0.07448223  0.19314609  1
  O2-  O445  1  0.41079827  0.08025783  0.50624576  1
  O2-  O446  1  0.41964494  0.07597589  0.84971029  1
  O2-  O447  1  0.43256370  0.32012300  0.18133724  1
  O2-  O448  1  0.41931828  0.34068197  0.52118956  1
  O2-  O449  1  0.41135259  0.32573029  0.85339054  1
  O2-  O450  1  0.41755749  0.58191625  0.18347498  1
  O2-  O451  1  0.41658055  0.59266896  0.53054825  1
  O2-  O452  1  0.42804905  0.60161754  0.83782835  1
  O2-  O453  1  0.41655491  0.81575011  0.18201800  1
  O2-  O454  1  0.41371807  0.83478516  0.51137897  1
  O2-  O455  1  0.39554784  0.80796050  0.84710769  1
  O2-  O456  1  0.63501677  0.05753462  0.18371528  1
  O2-  O457  1  0.65352245  0.07428956  0.52932786  1
  O2-  O458  1  0.68844381  0.12465455  0.86181070  1
  O2-  O459  1  0.64930204  0.31563759  0.19477645  1
  O2-  O460  1  0.68569391  0.35993441  0.52810117  1
  O2-  O461  1  0.66428217  0.32732930  0.85089026  1
  O2-  O462  1  0.66742130  0.58767885  0.18955497  1
  O2-  O463  1  0.66360995  0.58102913  0.52532661  1
  O2-  O464  1  0.68900890  0.56268866  0.86379795  1
  O2-  O465  1  0.66602657  0.83508836  0.17807417  1
  O2-  O466  1  0.65356060  0.83159480  0.52674686  1
  O2-  O467  1  0.67130159  0.82282778  0.85902150  1
  O2-  O468  1  0.91405778  0.08038523  0.18363742  1
  O2-  O469  1  0.88008875  0.07992670  0.52668462  1
  O2-  O470  1  0.92250748  0.08698956  0.86118639  1
  O2-  O471  1  0.91174133  0.33759355  0.18579935  1
  O2-  O472  1  0.94183230  0.33520030  0.53269093  1
  O2-  O473  1  0.91589265  0.33267370  0.85219033  1
  O2-  O474  1  0.91432549  0.57735999  0.19718275  1
  O2-  O475  1  0.91044234  0.57167187  0.52175794  1
  O2-  O476  1  0.91370980  0.57878251  0.85084002  1
  O2-  O477  1  0.91033681  0.83312024  0.16099176  1
  O2-  O478  1  0.84809035  0.80576033  0.53326949  1
  O2-  O479  1  0.92464379  0.84152880  0.86299402  1
  O2-  O480  1  0.17267538  0.08682233  0.30716928  1
  O2-  O481  1  0.08063712  0.06191986  0.63990192  1
  O2-  O482  1  0.16473897  0.06988523  0.97207541  1
  O2-  O483  1  0.17751407  0.34890181  0.31028600  1
  O2-  O484  1  0.17670774  0.35119488  0.64949153  1
  O2-  O485  1  0.15021717  0.31015226  0.97745556  1
  O2-  O486  1  0.16919879  0.57468197  0.31316696  1
  O2-  O487  1  0.17613554  0.58788924  0.65966111  1
  O2-  O488  1  0.17643666  0.59339538  0.97574582  1
  O2-  O489  1  0.17354286  0.81203025  0.31123932  1
  O2-  O490  1  0.16415948  0.84735965  0.63613916  1
  O2-  O491  1  0.09020536  0.85248591  0.97016714  1
  O2-  O492  1  0.41245880  0.07764139  0.31783594  1
  O2-  O493  1  0.46356202  0.04586561  0.62202023  1
  O2-  O494  1  0.42253891  0.08394787  0.97424496  1
  O2-  O495  1  0.45352897  0.29599277  0.30281351  1
  O2-  O496  1  0.42101093  0.35087776  0.64714770  1
  O2-  O497  1  0.39794239  0.30766220  0.97495731  1
  O2-  O498  1  0.41239733  0.57690313  0.31535325  1
  O2-  O499  1  0.42136014  0.59918653  0.66228531  1
  O2-  O500  1  0.42626913  0.60611532  0.96604083  1
  O2-  O501  1  0.41142896  0.81736926  0.30912548  1
  O2-  O502  1  0.41509741  0.80910024  0.68321877  1
  O2-  O503  1  0.41818349  0.82504635  0.97050546  1
  O2-  O504  1  0.67600101  0.09144921  0.30620200  1
  O2-  O505  1  0.66967763  0.08169791  0.65507418  1
  O2-  O506  1  0.65934507  0.07181166  0.97989746  1
  O2-  O507  1  0.66705289  0.33079002  0.31861799  1
  O2-  O508  1  0.65523113  0.32685362  0.65613644  1
  O2-  O509  1  0.65629208  0.33413895  0.97630757  1
  O2-  O510  1  0.66328239  0.58091770  0.31454159  1
  O2-  O511  1  0.66375262  0.58204358  0.64963301  1
  O2-  O512  1  0.68891668  0.58619684  0.98878007  1
  O2-  O513  1  0.65372603  0.82092367  0.33486139  1
  O2-  O514  1  0.66805512  0.83528531  0.65113008  1
  O2-  O515  1  0.66567511  0.82930535  0.97675445  1
  O2-  O516  1  0.92574911  0.07840894  0.30769666  1
  O2-  O517  1  0.92960733  0.06503002  0.64316849  1
  O2-  O518  1  0.91724814  0.07694994  0.98446656  1
  O2-  O519  1  0.91860334  0.32838403  0.30863501  1
  O2-  O520  1  0.92261738  0.32808266  0.65519896  1
  O2-  O521  1  0.86226205  0.29369794  0.96782734  1
  O2-  O522  1  0.91661585  0.57591471  0.32109548  1
  O2-  O523  1  0.92482862  0.58915246  0.64486415  1
  O2-  O524  1  0.92294072  0.59667372  0.97902855  1
  O2-  O525  1  0.90579685  0.82364707  0.30583044  1
  O2-  O526  1  0.90180415  0.82081844  0.65145966  1
  O2-  O527  1  0.92014651  0.83899523  1.03854566  1
  O2-  O528  1  0.08281787  0.14953160  0.02077315  1
  O2-  O529  1  0.09306732  0.17560297  0.33007747  1
  O2-  O530  1  0.08617428  0.19745475  0.70302151  1
  O2-  O531  1  0.14116882  0.44221504  0.03139648  1
  O2-  O532  1  0.08316497  0.41129349  0.35521067  1
  O2-  O533  1  0.08650435  0.42135212  0.69760726  1
  O2-  O534  1  0.08760835  0.66672855  0.03140763  1
  O2-  O535  1  0.08594828  0.65421913  0.36011051  1
  O2-  O536  1  0.08733958  0.67151573  0.64577671  1
  O2-  O537  1  0.05427556  0.90382353  -0.04042877  1
  O2-  O538  1  0.05185795  0.93838984  0.36564723  1
  O2-  O539  1  0.06750794  0.91325489  0.68299001  1
  O2-  O540  1  0.32747233  0.14861203  0.01790157  1
  O2-  O541  1  0.32721507  0.15667109  0.36263395  1
  O2-  O542  1  0.34613988  0.17764960  0.67647776  1
  O2-  O543  1  0.31444394  0.39120011  0.02373582  1
  O2-  O544  1  0.32923537  0.43142649  0.35884910  1
  O2-  O545  1  0.33755376  0.42763662  0.69099170  1
  O2-  O546  1  0.33814346  0.66760629  0.02158693  1
  O2-  O547  1  0.33432743  0.65832825  0.35583332  1
  O2-  O548  1  0.27776535  0.61283680  0.75865346  1
  O2-  O549  1  0.34252332  0.91276720  0.02049353  1
  O2-  O550  1  0.33894654  0.90901429  0.34627748  1
  O2-  O551  1  0.30165162  0.88527690  0.69813702  1
  O2-  O552  1  0.61961984  0.17747142  0.02958533  1
  O2-  O553  1  0.58005922  0.16381932  0.35784750  1
  O2-  O554  1  0.59292170  0.17159824  0.69535789  1
  O2-  O555  1  0.55153247  0.40283083  0.00889852  1
  O2-  O556  1  0.59115589  0.41935455  0.35913985  1
  O2-  O557  1  0.58100627  0.41728755  0.69266877  1
  O2-  O558  1  0.59077283  0.66598832  0.01762447  1
  O2-  O559  1  0.57126583  0.65484299  0.36078805  1
  O2-  O560  1  0.59024738  0.67285146  0.69156891  1
  O2-  O561  1  0.57971342  0.90692187  0.01036721  1
  O2-  O562  1  0.55819660  0.93505551  0.37057245  1
  O2-  O563  1  0.59210688  0.91623016  0.69817941  1
  O2-  O564  1  0.81957811  0.14579695  0.02257046  1
  O2-  O565  1  0.90534749  0.19094128  0.37383206  1
  O2-  O566  1  0.84150227  0.16498663  0.69050970  1
  O2-  O567  1  0.82103493  0.44021693  0.02588423  1
  O2-  O568  1  0.83263151  0.40286643  0.35460172  1
  O2-  O569  1  0.82047083  0.39307784  0.70098586  1
  O2-  O570  1  0.84421352  0.67219700  0.02794709  1
  O2-  O571  1  0.82977253  0.65869193  0.35444556  1
  O2-  O572  1  0.82847297  0.65859161  0.68823609  1
  O2-  O573  1  0.82687302  0.91499107  0.02614960  1
  O2-  O574  1  0.82956391  0.91577094  0.35280545  1
  O2-  O575  1  0.82639214  0.90793140  0.69993531  1
