# generated using pymatgen
data_H2O
_symmetry_space_group_name_H-M   'P 1'
_cell_length_a   17.99986849
_cell_length_b   18.00182404
_cell_length_c   22.01524908
_cell_angle_alpha   90.00670088
_cell_angle_beta   90.01844830
_cell_angle_gamma   119.99860441
_symmetry_Int_Tables_number   1
_chemical_formula_structural   H2O
_chemical_formula_sum   'H384 O192'
_cell_volume   6177.97493294
_cell_formula_units_Z   192
loop_
 _symmetry_equiv_pos_site_id
 _symmetry_equiv_pos_as_xyz
  1  'x, y, z'
loop_
 _atom_type_symbol
 _atom_type_oxidation_number
  H+  1.0
  O2-  -2.0
loop_
 _atom_site_type_symbol
 _atom_site_label
 _atom_site_symmetry_multiplicity
 _atom_site_fract_x
 _atom_site_fract_y
 _atom_site_fract_z
 _atom_site_occupancy
  H+  H0  1  0.39330628  0.12011850  0.17312435  1
  H+  H1  1  0.84381699  0.93437484  0.08116354  1
  H+  H2  1  0.12059975  0.97087100  0.33284441  1
  H+  H3  1  0.70155265  0.85109674  0.66265652  1
  H+  H4  1  0.76372413  0.60725339  0.67056720  1
  H+  H5  1  0.64025482  0.61766609  0.98434671  1
  H+  H6  1  0.67373972  0.84660872  0.19530848  1
  H+  H7  1  0.38907641  0.35130256  0.66461724  1
  H+  H8  1  0.18724918  0.32676910  0.99953838  1
  H+  H9  1  0.88673150  0.60142277  0.65758553  1
  H+  H10  1  0.60400114  0.47011584  0.67757664  1
  H+  H11  1  0.12023682  0.72468804  0.67217625  1
  H+  H12  1  0.60220039  0.12193425  0.15857287  1
  H+  H13  1  0.88344252  0.08638362  0.83826614  1
  H+  H14  1  0.22138555  0.02085576  0.20763417  1
  H+  H15  1  0.89094650  0.87762095  0.98819145  1
  H+  H16  1  0.87793520  0.72441066  0.33506281  1
  H+  H17  1  0.39395088  0.11295915  0.32965495  1
  H+  H18  1  0.72022489  0.09723907  0.66528285  1
  H+  H19  1  0.15035157  0.78674653  0.50724162  1
  H+  H20  1  0.73099282  0.62349478  0.83208337  1
  H+  H21  1  -0.02802201  0.63463081  0.83074613  1
  H+  H22  1  0.03513098  0.88159844  0.32866365  1
  H+  H23  1  0.38606182  0.64194666  0.66968914  1
  H+  H24  1  0.63708635  0.11585701  0.99246034  1
  H+  H25  1  0.37871682  0.60478190  0.50143294  1
  H+  H26  1  0.50092948  0.34162220  0.98122723  1
  H+  H27  1  0.38632609  0.61563658  0.32325960  1
  H+  H28  1  0.38207380  0.36683060  0.17025377  1
  H+  H29  1  0.37070753  0.97554700  0.16563297  1
  H+  H30  1  0.36640367  0.21414258  0.00094438  1
  H+  H31  1  0.10833584  0.21422657  0.82395094  1
  H+  H32  1  0.22811559  0.35574294  0.31506776  1
  H+  H33  1  0.41781441  0.56274092  0.00356515  1
  H+  H34  1  0.91566915  1.02409826  0.31830565  1
  H+  H35  1  0.13940594  0.10830997  0.83904254  1
  H+  H36  1  0.34244599  0.91833581  0.40150999  1
  H+  H37  1  0.72426981  0.68541726  0.55497079  1
  H+  H38  1  0.28181069  0.15303478  0.49000749  1
  H+  H39  1  0.54035187  0.66335445  -0.01035784  1
  H+  H40  1  0.36865671  0.47732704  0.32582293  1
  H+  H41  1  0.28318770  0.38835649  0.67147161  1
  H+  H42  1  0.07121510  0.44079867  0.68341650  1
  H+  H43  1  0.64935950  0.64516052  0.50796037  1
  H+  H44  1  0.84583188  0.72453644  0.78134917  1
  H+  H45  1  0.88454356  0.49727705  0.49306298  1
  H+  H46  1  0.60602413  0.88916820  0.13864842  1
  H+  H47  1  0.14245033  0.61915706  0.50954384  1
  H+  H48  1  0.79384654  0.89112438  0.34647634  1
  H+  H49  1  0.88111045  0.64245082  0.82409379  1
  H+  H50  1  0.32407273  0.01692623  0.60713703  1
  H+  H51  1  0.86505642  -0.01542613  0.14584641  1
  H+  H52  1  0.79268934  0.63211978  0.33887747  1
  H+  H53  1  0.63395461  0.02442821  0.99034580  1
  H+  H54  1  -0.02841807  0.36404313  0.15316228  1
  H+  H55  1  0.38548634  0.10953513  0.83857246  1
  H+  H56  1  0.82500731  0.16280744  0.44317184  1
  H+  H57  1  0.15394449  0.85577293  0.66831542  1
  H+  H58  1  0.48407628  0.61818169  0.16616455  1
  H+  H59  1  0.38774476  0.51337342  0.65519207  1
  H+  H60  1  0.28514700  0.64274826  0.15519253  1
  H+  H61  1  0.76979356  0.39191667  0.34848120  1
  H+  H62  1  0.85457578  0.43396466  0.04341010  1
  H+  H63  1  0.09502595  0.44721054  0.00859314  1
  H+  H64  1  0.09692317  0.09323655  0.66764576  1
  H+  H65  1  0.55756218  0.16995268  0.70018467  1
  H+  H66  1  0.59933012  0.89563060  0.50540059  1
  H+  H67  1  0.22532333  0.35992627  0.17374363  1
  H+  H68  1  0.89673576  0.85520616  0.32237225  1
  H+  H69  1  0.00922410  0.40163202  0.30980863  1
  H+  H70  1  0.26291611  0.59350340  0.78966041  1
  H+  H71  1  0.71383031  0.08431313  0.32847518  1
  H+  H72  1  0.53061592  0.13586395  0.34134890  1
  H+  H73  1  0.09766985  0.11599492  0.00223327  1
  H+  H74  1  0.35599901  -0.02084072  0.66051145  1
  H+  H75  1  0.99976186  0.11979379  0.31678599  1
  H+  H76  1  0.62378829  0.47831997  0.49183404  1
  H+  H77  1  0.87031141  0.27508341  0.50931027  1
  H+  H78  1  0.85108829  0.96304450  0.49473451  1
  H+  H79  1  0.87533042  0.48186142  0.67533529  1
  H+  H80  1  0.44477879  0.10511414  0.56519974  1
  H+  H81  1  0.08367644  0.12471060  0.47604460  1
  H+  H82  1  0.28085557  0.13847573  0.16271909  1
  H+  H83  1  0.37688688  0.84899387  0.51438661  1
  H+  H84  1  0.01662791  0.10374640  0.42307595  1
  H+  H85  1  0.89593606  0.61580704  0.50770051  1
  H+  H86  1  0.61636745  0.47545825  0.00118461  1
  H+  H87  1  0.60413890  0.24153381  0.80785308  1
  H+  H88  1  0.14128429  0.12327915  0.31796295  1
  H+  H89  1  0.11278324  0.89257140  1.00183022  1
  H+  H90  1  0.90140320  0.04908873  0.60797937  1
  H+  H91  1  0.62157643  1.01606635  0.16688395  1
  H+  H92  1  0.90541347  0.04774113  0.89728362  1
  H+  H93  1  0.57388069  0.91890618  0.05338121  1
  H+  H94  1  0.86178855  0.09715129  0.51534351  1
  H+  H95  1  0.10203353  0.23504462  -0.01006569  1
  H+  H96  1  0.72005022  0.38270893  0.84212435  1
  H+  H97  1  0.65437020  0.79589881  -0.01459383  1
  H+  H98  1  0.61528714  0.89613615  0.99628435  1
  H+  H99  1  0.81498692  0.14091430  0.73100291  1
  H+  H100  1  0.86948067  0.39289836  0.49565490  1
  H+  H101  1  0.10950780  0.97014267  0.15672333  1
  H+  H102  1  0.39595411  0.62017668  0.17006778  1
  H+  H103  1  0.86746630  0.35825770  0.66940185  1
  H+  H104  1  0.85903004  0.64448575  0.00111343  1
  H+  H105  1  0.08833732  0.66620006  0.73201208  1
  H+  H106  1  0.64935328  0.51093418  0.32367347  1
  H+  H107  1  0.37711389  0.98070730  0.49579387  1
  H+  H108  1  0.64659235  0.82743696  0.57369742  1
  H+  H109  1  0.14073900  0.84771640  0.32973008  1
  H+  H110  1  0.86231532  0.88045625  0.49603428  1
  H+  H111  1  0.64004982  0.02269537  0.83606490  1
  H+  H112  1  0.16699615  0.38916301  0.66700133  1
  H+  H113  1  0.39932857  0.12514929  0.51022202  1
  H+  H114  1  0.73427161  0.87704625  0.13860726  1
  H+  H115  1  1.02911918  0.38689706  0.82881682  1
  H+  H116  1  0.13702598  0.26415496  0.31569044  1
  H+  H117  1  0.27514594  0.46719784  0.01858550  1
  H+  H118  1  0.62719528  0.39222788  1.00209913  1
  H+  H119  1  0.86799603  0.19510247  0.82125181  1
  H+  H120  1  0.76378372  0.14006012  0.50161608  1
  H+  H121  1  0.38854337  0.25949821  0.66609972  1
  H+  H122  1  0.47411865  0.86228655  -0.01639555  1
  H+  H123  1  0.67618855  0.48271114  0.15369982  1
  H+  H124  1  0.20850349  0.37028865  0.50382662  1
  H+  H125  1  0.14474243  0.04539868  0.50242596  1
  H+  H126  1  0.51376605  0.64497529  0.33648526  1
  H+  H127  1  0.73562859  0.36299775  -0.01131968  1
  H+  H128  1  0.36654871  0.40287259  0.83051912  1
  H+  H129  1  0.16000477  0.51931417  0.34821282  1
  H+  H130  1  0.61191380  0.76461955  0.66124258  1
  H+  H131  1  0.14104361  0.77809997  0.16290190  1
  H+  H132  1  0.12989984  0.90511244  0.51800711  1
  H+  H133  1  0.61833589  0.73126602  0.13977200  1
  H+  H134  1  0.39341661  0.36578042  0.31732738  1
  H+  H135  1  0.64250862  0.53203973  0.83635918  1
  H+  H136  1  0.85371935  0.22235309  -0.00443108  1
  H+  H137  1  0.36794412  0.97396404  0.34041046  1
  H+  H138  1  0.44268274  0.88489125  0.67520250  1
  H+  H139  1  0.49871110  0.58585222  0.81632765  1
  H+  H140  1  0.18223994  0.56049591  0.66608379  1
  H+  H141  1  0.42391237  0.38482693  0.52964152  1
  H+  H142  1  0.70922059  0.85798517  0.51498924  1
  H+  H143  1  0.87762127  0.31950155  0.82127279  1
  H+  H144  1  0.52399989  0.14948671  0.81044059  1
  H+  H145  1  0.85735331  0.09531799  0.34206858  1
  H+  H146  1  0.61788134  0.00171528  0.66030296  1
  H+  H147  1  0.65898237  0.07376350  0.59990806  1
  H+  H148  1  0.64349581  0.42135071  0.09780326  1
  H+  H149  1  0.64568385  0.37679510  0.65602939  1
  H+  H150  1  0.28133098  0.88172707  0.82443619  1
  H+  H151  1  0.87944314  0.35557262  0.97481216  1
  H+  H152  1  0.11344634  0.63790583  -0.00312237  1
  H+  H153  1  0.77360039  0.11241069  0.82630957  1
  H+  H154  1  0.31594177  0.67027206  0.67143500  1
  H+  H155  1  0.38469069  0.10779615  -0.00749044  1
  H+  H156  1  0.84253845  0.35266538  0.30235416  1
  H+  H157  1  0.63810145  0.10852189  0.32914712  1
  H+  H158  1  0.42259812  0.08488994  0.26938530  1
  H+  H159  1  0.86937266  0.48422095  0.98162259  1
  H+  H160  1  0.27600530  0.13894024  0.83024070  1
  H+  H161  1  0.01821966  0.63229417  0.16965524  1
  H+  H162  1  0.61152158  0.37833847  0.34010860  1
  H+  H163  1  0.11549920  0.13516789  0.15886482  1
  H+  H164  1  0.13291953  0.51941942  0.86042863  1
  H+  H165  1  0.66876672  0.32411259  0.28034768  1
  H+  H166  1  0.47934016  0.10878612  0.66164911  1
  H+  H167  1  0.16202968  0.63569346  0.66096652  1
  H+  H168  1  0.36305718  0.23000236  0.82605900  1
  H+  H169  1  0.14570806  0.39635013  0.35094292  1
  H+  H170  1  0.51500550  0.88359276  0.15127284  1
  H+  H171  1  0.37621501  0.26715963  0.16681830  1
  H+  H172  1  0.53619981  0.39070181  0.49889350  1
  H+  H173  1  0.88281376  0.86677973  0.16191777  1
  H+  H174  1  0.32308784  0.37389742  0.47899602  1
  H+  H175  1  0.78868313  0.64955833  0.49096693  1
  H+  H176  1  -0.01987206  0.11430523  0.16547539  1
  H+  H177  1  0.60157985  0.73149990  0.49761837  1
  H+  H178  1  0.26869068  0.13471608  1.00529110  1
  H+  H179  1  0.10705425  0.18339123  0.37669646  1
  H+  H180  1  0.58176416  0.41573256  0.39481308  1
  H+  H181  1  0.11107163  0.63717767  0.83345972  1
  H+  H182  1  0.88832999  0.62042955  0.17563869  1
  H+  H183  1  0.14387839  0.60941684  0.34021166  1
  H+  H184  1  0.22940940  0.11713695  0.32762185  1
  H+  H185  1  0.51651172  0.62554233  0.66672233  1
  H+  H186  1  0.59880991  0.89318987  0.36681942  1
  H+  H187  1  0.61075006  0.67787626  0.31990086  1
  H+  H188  1  0.88990301  0.53297033  0.16899517  1
  H+  H189  1  0.48257513  0.36437224  0.31752836  1
  H+  H190  1  0.12186765  0.73146861  0.82862766  1
  H+  H191  1  0.67145376  0.58494518  0.22450198  1
  H+  H192  1  0.88342662  0.78348755  0.99502024  1
  H+  H193  1  0.38818130  0.86471840  0.17393384  1
  H+  H194  1  0.36545097  0.73578575  0.00698348  1
  H+  H195  1  0.22292276  0.36318602  0.84414152  1
  H+  H196  1  0.86404881  -0.04198015  0.82040894  1
  H+  H197  1  0.35068059  0.12314458  0.67652289  1
  H+  H198  1  0.97119690  0.86623669  0.16365128  1
  H+  H199  1  0.13417829  0.86134551  0.15029272  1
  H+  H200  1  0.63288219  0.79074522  0.35913694  1
  H+  H201  1  0.86282975  0.43005094  0.84256927  1
  H+  H202  1  0.63704456  0.26902362  0.34017218  1
  H+  H203  1  0.65373154  0.57561466  0.60589653  1
  H+  H204  1  0.56783667  0.64921412  0.72996314  1
  H+  H205  1  0.13791796  0.78542634  0.98649182  1
  H+  H206  1  0.52054421  0.37641249  0.67881254  1
  H+  H207  1  0.60442457  0.39275647  0.83146445  1
  H+  H208  1  0.69531817  0.35717311  0.18497535  1
  H+  H209  1  0.82760475  0.20747460  0.67719153  1
  H+  H210  1  0.38108036  0.84723085  0.83410622  1
  H+  H211  1  0.36209570  0.97469293  -0.00697534  1
  H+  H212  1  0.91685913  0.82629511  0.25888435  1
  H+  H213  1  0.58258742  0.16535162  0.06523503  1
  H+  H214  1  0.46766258  0.85786863  0.33214704  1
  H+  H215  1  0.86450762  0.47828323  0.33965379  1
  H+  H216  1  0.24304531  0.61956558  0.33722386  1
  H+  H217  1  0.89517605  0.25597577  0.36780365  1
  H+  H218  1  0.63467932  0.02910977  0.51268234  1
  H+  H219  1  0.03571417  0.64651129  0.49488911  1
  H+  H220  1  0.89850034  0.77311405  0.51031644  1
  H+  H221  1  0.37303968  0.73489892  0.16491946  1
  H+  H222  1  0.37407195  0.23651351  0.49697121  1
  H+  H223  1  -0.03556792  0.34780703  -0.02634086  1
  H+  H224  1  0.09187917  0.66666034  -0.06391296  1
  H+  H225  1  0.99775078  0.41837622  0.33733627  1
  H+  H226  1  0.90953774  0.82625673  0.57076511  1
  H+  H227  1  0.67542547  0.33658125  0.56028091  1
  H+  H228  1  0.47488493  0.37619334  0.83152910  1
  H+  H229  1  0.12102093  0.36433021  0.51771077  1
  H+  H230  1  0.23327550  0.62041519  1.01254128  1
  H+  H231  1  0.94710786  1.09393427  0.50571303  1
  H+  H232  1  0.59331596  0.97522859  0.34805110  1
  H+  H233  1  0.93786796  0.32859961  0.66442344  1
  H+  H234  1  0.23913947  0.84569537  0.66253539  1
  H+  H235  1  1.00989261  0.39096159  0.49944992  1
  H+  H236  1  0.02215566  0.89162959  0.00221827  1
  H+  H237  1  0.42040293  0.40867844  0.99748992  1
  H+  H238  1  0.10383036  0.37277005  0.16022637  1
  H+  H239  1  0.86016675  0.51358417  0.82595218  1
  H+  H240  1  0.65882524  0.60037445  0.33528335  1
  H+  H241  1  0.86535837  0.73224237  0.15587799  1
  H+  H242  1  0.83796345  0.93931792  0.66925822  1
  H+  H243  1  0.37083921  0.22768384  0.33702356  1
  H+  H244  1  0.64573169  0.35870442  0.49902969  1
  H+  H245  1  -0.03468178  0.06877306  0.66352662  1
  H+  H246  1  0.64404357  0.27400114  0.99578851  1
  H+  H247  1  0.13609789  0.02333817  0.99095468  1
  H+  H248  1  1.03818066  0.90006089  0.51761666  1
  H+  H249  1  0.63948980  0.12142174  0.51188029  1
  H+  H250  1  0.86235058  0.87026634  0.82462085  1
  H+  H251  1  0.86157013  0.39744925  0.13533122  1
  H+  H252  1  0.59893077  0.61983506  0.82122680  1
  H+  H253  1  0.92914215  0.83786864  0.90255553  1
  H+  H254  1  0.12651509  0.72160827  0.34254058  1
  H+  H255  1  0.67065924  0.86240962  0.31030887  1
  H+  H256  1  0.35281698  0.47470077  0.48169739  1
  H+  H257  1  0.90058825  0.77025248  0.84866002  1
  H+  H258  1  0.96823347  0.61894550  0.97623652  1
  H+  H259  1  0.26912728  0.62659157  0.49131135  1
  H+  H260  1  0.76060110  0.13019125  1.00196709  1
  H+  H261  1  0.94732895  0.05312578  0.99952510  1
  H+  H262  1  0.87548199  0.14263308  0.14400335  1
  H+  H263  1  0.90298856  0.61380174  0.33138424  1
  H+  H264  1  0.73642342  0.38208465  0.65665576  1
  H+  H265  1  0.37955665  0.85631066  0.32767784  1
  H+  H266  1  0.16970962  0.57589105  0.10130748  1
  H+  H267  1  0.13341658  0.99001856  0.66131386  1
  H+  H268  1  0.09002083  0.36025095  0.98535137  1
  H+  H269  1  0.02335733  0.12224047  0.82928507  1
  H+  H270  1  0.40931028  0.41403614  -0.03481957  1
  H+  H271  1  0.92893172  0.24780510  0.35435410  1
  H+  H272  1  0.18455564  0.07234706  0.24314293  1
  H+  H273  1  0.72450649  0.86744446  0.83170404  1
  H+  H274  1  0.35664078  0.88330227  -0.01052496  1
  H+  H275  1  0.52617184  0.14004772  1.00430383  1
  H+  H276  1  0.34433034  0.17456055  0.39914996  1
  H+  H277  1  0.14594987  0.02214053  0.83951368  1
  H+  H278  1  0.14726678  0.86477741  0.83624842  1
  H+  H279  1  0.52118536  0.88381707  0.82200653  1
  H+  H280  1  0.22968740  0.87354929  0.98635107  1
  H+  H281  1  0.62476811  0.23223456  0.49214041  1
  H+  H282  1  0.36500664  0.72856928  0.34076581  1
  H+  H283  1  0.37188248  0.48416035  0.16327382  1
  H+  H284  1  0.62454478  0.60630618  0.66472914  1
  H+  H285  1  0.22966411  0.84952395  0.33364254  1
  H+  H286  1  0.03942020  0.88717948  0.82770823  1
  H+  H287  1  0.58471931  0.87742976  0.67117788  1
  H+  H288  1  0.98285835  0.61201867  0.65838094  1
  H+  H289  1  0.21915728  0.60790781  0.86907122  1
  H+  H290  1  0.90661382  0.59920238  0.91948075  1
  H+  H291  1  0.56583634  0.92694423  0.44948635  1
  H+  H292  1  0.59077225  0.16503629  0.40152736  1
  H+  H293  1  0.38102657  0.75774603  0.83155632  1
  H+  H294  1  0.34436014  0.42204117  0.73034956  1
  H+  H295  1  0.17812963  0.59382938  0.56824459  1
  H+  H296  1  0.76959856  0.64152782  0.00399108  1
  H+  H297  1  0.85059404  0.67237778  0.43284807  1
  H+  H298  1  0.67556147  0.08154152  0.89528908  1
  H+  H299  1  0.67164520  0.85601343  0.89176130  1
  H+  H300  1  0.41521881  0.33243179  0.23150543  1
  H+  H301  1  0.11899983  -0.00143394  0.59353256  1
  H+  H302  1  0.33216457  0.17358989  0.09814693  1
  H+  H303  1  0.67224769  0.58650924  0.92767975  1
  H+  H304  1  0.64762035  0.06844730  0.22944910  1
  H+  H305  1  0.68847587  0.76976342  0.25473159  1
  H+  H306  1  0.92177044  0.08497955  0.22433378  1
  H+  H307  1  0.32783921  0.42231698  0.10623134  1
  H+  H308  1  0.34704217  0.68204476  0.07045156  1
  H+  H309  1  0.16756953  0.08363405  0.93164079  1
  H+  H310  1  0.78678858  0.42329198  0.12371379  1
  H+  H311  1  0.89198958  0.33120722  0.57028427  1
  H+  H312  1  0.83856802  0.43154887  0.73882146  1
  H+  H313  1  0.83536523  0.66953964  0.09819435  1
  H+  H314  1  0.32751712  0.42269878  -0.00076704  1
  H+  H315  1  0.10171672  0.47847661  0.50248889  1
  H+  H316  1  0.82360591  0.63619106  0.72857341  1
  H+  H317  1  0.78816764  0.03958048  0.39055076  1
  H+  H318  1  0.42207709  0.59189223  0.26260758  1
  H+  H319  1  0.11250229  0.42399485  0.41244700  1
  H+  H320  1  0.13831004  0.60677916  0.15608576  1
  H+  H321  1  0.18223954  0.83655319  0.57009165  1
  H+  H322  1  0.53465518  0.14324675  0.49083154  1
  H+  H323  1  0.61797258  0.64209926  0.14809314  1
  H+  H324  1  0.37810994  0.81444920  0.57962968  1
  H+  H325  1  0.41906496  0.83278909  0.23281147  1
  H+  H326  1  0.34265640  0.90421255  0.76578426  1
  H+  H327  1  0.73348944  0.62288200  0.16775790  1
  H+  H328  1  1.01496264  0.82175321  0.64908727  1
  H+  H329  1  0.74384670  0.31160673  0.21802064  1
  H+  H330  1  0.66361413  0.33877473  0.90088075  1
  H+  H331  1  0.92413382  0.58129914  0.27020070  1
  H+  H332  1  0.06996210  0.66168372  0.10873606  1
  H+  H333  1  0.82504256  0.25978234  0.28619626  1
  H+  H334  1  0.61373705  0.21442061  0.16259130  1
  H+  H335  1  0.80341856  0.87913266  0.72642223  1
  H+  H336  1  0.57917968  0.41898063  0.76830302  1
  H+  H337  1  0.35565097  0.55012269  0.82263019  1
  H+  H338  1  0.74101352  0.88840309  0.98548458  1
  H+  H339  1  0.28522968  0.89582028  0.49641176  1
  H+  H340  1  0.46819564  0.60553420  0.50127476  1
  H+  H341  1  0.41093309  0.82019574  0.92671345  1
  H+  H342  1  0.41906584  0.08564068  0.93103884  1
  H+  H343  1  0.07663488  0.92043610  0.09256778  1
  H+  H344  1  0.43240564  0.32958398  0.58168785  1
  H+  H345  1  0.61466937  0.89331199  0.81943920  1
  H+  H346  1  0.56911407  0.91740205  0.73159095  1
  H+  H347  1  0.89350583  0.33223659  0.20125838  1
  H+  H348  1  0.90780489  0.31210155  0.88860310  1
  H+  H349  1  0.17478430  0.83812724  0.89712311  1
  H+  H350  1  0.39081220  0.02282883  0.83755385  1
  H+  H351  1  0.34882915  0.65206803  0.75680934  1
  H+  H352  1  0.11929456  0.22560754  0.15769915  1
  H+  H353  1  0.15550818  0.31771596  0.89870561  1
  H+  H354  1  0.07753156  0.13207243  0.72630065  1
  H+  H355  1  0.18004503  0.35055505  0.60544082  1
  H+  H356  1  0.11271288  0.44477792  0.74745163  1
  H+  H357  1  0.47927363  0.11558114  0.17281841  1
  H+  H358  1  0.35398416  0.71565541  0.50003956  1
  H+  H359  1  0.92504762  0.58271119  0.56728115  1
  H+  H360  1  0.33824500  0.66774037  0.40147152  1
  H+  H361  1  0.58064688  0.67422527  0.43662509  1
  H+  H362  1  0.47667283  0.26445026  0.93654323  1
  H+  H363  1  0.33329974  0.41673618  0.38341708  1
  H+  H364  1  0.87188786  0.23153189  0.13844423  1
  H+  H365  1  0.41008675  0.56963843  0.59353758  1
  H+  H366  1  0.84802258  0.42944029  0.42868823  1
  H+  H367  1  0.11846594  0.38966202  0.83512467  1
  H+  H368  1  0.83533920  0.16527022  0.06389943  1
  H+  H369  1  0.06740816  0.14404567  0.06201765  1
  H+  H370  1  0.16326111  0.32618366  0.23148755  1
  H+  H371  1  0.10291340  0.91356930  0.76876484  1
  H+  H372  1  0.41972133  0.33538405  0.89018878  1
  H+  H373  1  0.73389336  0.80683521  0.25822135  1
  H+  H374  1  0.33906450  0.16553140  0.73658468  1
  H+  H375  1  0.28417267  0.88898268  0.15143700  1
  H+  H376  1  0.59354785  0.67867171  0.05002625  1
  H+  H377  1  0.16351822  0.57224603  0.96161005  1
  H+  H378  1  0.03750931  0.62898983  0.34169045  1
  H+  H379  1  0.16853713  0.11763466  0.54917410  1
  H+  H380  1  0.39802846  0.63752105  0.99485888  1
  H+  H381  1  0.10971678  0.46342632  0.15251062  1
  H+  H382  1  0.09528818  0.67148886  0.43592603  1
  H+  H383  1  0.85446363  0.91400933  0.40143881  1
  O2-  O384  1  0.08770743  0.16476601  0.14135959  1
  O2-  O385  1  0.03710044  0.13468375  0.46139679  1
  O2-  O386  1  0.08336070  0.15307674  0.81328020  1
  O2-  O387  1  0.07368712  0.40164577  0.14322134  1
  O2-  O388  1  0.07038907  0.41866582  0.48586916  1
  O2-  O389  1  0.09183831  0.42499476  0.82189305  1
  O2-  O390  1  0.07779657  0.65705188  0.15207896  1
  O2-  O391  1  0.09643749  0.67733372  0.48126578  1
  O2-  O392  1  0.08570058  0.66948798  0.81528511  1
  O2-  O393  1  0.07152223  0.91344303  0.13815665  1
  O2-  O394  1  0.10071098  0.93996324  0.51883970  1
  O2-  O395  1  0.10089350  0.91897676  0.81538471  1
  O2-  O396  1  0.33761740  0.18060891  0.14394013  1
  O2-  O397  1  0.34373404  0.17791740  0.47939982  1
  O2-  O398  1  0.33717475  0.16832321  0.81587556  1
  O2-  O399  1  0.33964693  0.42192678  0.15011747  1
  O2-  O400  1  0.31532688  0.41832057  0.45998014  1
  O2-  O401  1  0.33285470  0.43073312  0.81477992  1
  O2-  O402  1  0.34812574  0.67443294  0.14749722  1
  O2-  O403  1  0.33044435  0.65879898  0.47766984  1
  O2-  O404  1  0.32366035  0.62742517  0.79981157  1
  O2-  O405  1  0.34786102  0.91662266  0.15028846  1
  O2-  O406  1  0.34494323  0.92142201  0.47988169  1
  O2-  O407  1  0.34270195  0.90965780  0.81143957  1
  O2-  O408  1  0.57680098  0.15829789  0.14290253  1
  O2-  O409  1  0.59483095  0.17029944  0.47581703  1
  O2-  O410  1  0.57426477  0.18714605  0.78536676  1
  O2-  O411  1  0.67831724  0.43366035  0.13526340  1
  O2-  O412  1  0.59025857  0.42114003  0.47432576  1
  O2-  O413  1  0.57578093  0.42348732  0.81397400  1
  O2-  O414  1  0.58472954  0.66835330  0.13156962  1
  O2-  O415  1  0.57875231  0.67087629  0.48137163  1
  O2-  O416  1  0.55513820  0.63057269  0.80185432  1
  O2-  O417  1  0.57188892  0.91748430  0.13015632  1
  O2-  O418  1  0.57784853  0.93449050  0.49368367  1
  O2-  O419  1  0.57926491  0.92005090  0.80472353  1
  O2-  O420  1  0.84615566  0.17089068  0.12417620  1
  O2-  O421  1  0.82608186  0.17202640  0.48728959  1
  O2-  O422  1  0.83360263  0.13519964  0.80748890  1
  O2-  O423  1  0.84860603  0.44331968  0.12200353  1
  O2-  O424  1  0.85364930  0.43511450  0.47504335  1
  O2-  O425  1  0.83093184  0.44842944  0.81696051  1
  O2-  O426  1  0.83718505  0.67014197  0.14383970  1
  O2-  O427  1  0.84940388  0.67240476  0.47854583  1
  O2-  O428  1  0.82723461  0.67049933  0.80260269  1
  O2-  O429  1  0.83548738  0.92605742  0.12709439  1
  O2-  O430  1  0.82861347  0.90411119  0.47684116  1
  O2-  O431  1  0.82983578  0.89668083  0.80796365  1
  O2-  O432  1  0.19727658  0.05792490  0.19943710  1
  O2-  O433  1  0.16965884  0.10928688  0.50523231  1
  O2-  O434  1  0.17352493  0.08244693  0.85571049  1
  O2-  O435  1  0.16429584  0.32412071  0.18515793  1
  O2-  O436  1  0.15824758  0.34102299  0.53043176  1
  O2-  O437  1  0.16096284  0.32916569  0.85402974  1
  O2-  O438  1  0.17313931  0.57925087  0.14575778  1
  O2-  O439  1  0.16733006  0.58325659  0.52346146  1
  O2-  O440  1  0.15818583  0.57808350  0.87951550  1
  O2-  O441  1  0.17491647  0.84018952  0.15589973  1
  O2-  O442  1  0.18173093  0.84549872  0.52498235  1
  O2-  O443  1  0.17587208  0.83214886  0.85183104  1
  O2-  O444  1  0.41985545  0.08878269  0.19100604  1
  O2-  O445  1  0.43205037  0.09603837  0.52150568  1
  O2-  O446  1  0.41759455  0.08178970  0.85464080  1
  O2-  O447  1  0.40851454  0.33076534  0.18451383  1
  O2-  O448  1  0.43873317  0.34009320  0.53480247  1
  O2-  O449  1  0.41315957  0.34545598  0.84683284  1
  O2-  O450  1  0.42515392  0.58786022  0.18453317  1
  O2-  O451  1  0.40693526  0.57052296  0.51358013  1
  O2-  O452  1  0.38204143  0.51749512  0.84090155  1
  O2-  O453  1  0.41890692  0.83191723  0.18754119  1
  O2-  O454  1  0.38345071  0.80458101  0.53623885  1
  O2-  O455  1  0.41042157  0.81539012  0.84942371  1
  O2-  O456  1  0.64761139  0.07449910  0.18487444  1
  O2-  O457  1  0.66913272  0.09084615  0.52883326  1
  O2-  O458  1  0.68211593  0.08133515  0.85077696  1
  O2-  O459  1  0.68795504  0.30673075  0.20798176  1
  O2-  O460  1  0.67158409  0.32601891  0.51517358  1
  O2-  O461  1  0.66021918  0.34594232  0.85619355  1
  O2-  O462  1  0.67145768  0.58734468  0.17971903  1
  O2-  O463  1  0.69443603  0.63558531  0.52831621  1
  O2-  O464  1  0.67197822  0.59200199  0.85194127  1
  O2-  O465  1  0.67098073  0.84314675  0.15117028  1
  O2-  O466  1  0.64831720  0.82820543  0.52713391  1
  O2-  O467  1  0.66687514  0.85289793  0.84691234  1
  O2-  O468  1  0.91922536  0.08620844  0.17893293  1
  O2-  O469  1  0.88839229  0.06156187  0.52380734  1
  O2-  O470  1  0.91772027  0.05996975  0.85345073  1
  O2-  O471  1  0.90683051  0.33683722  0.15727241  1
  O2-  O472  1  0.89834685  0.33587543  0.52505399  1
  O2-  O473  1  0.91992043  0.31152754  0.84349720  1
  O2-  O474  1  0.91656616  0.58833530  0.19179115  1
  O2-  O475  1  0.92593208  0.58437716  0.52089385  1
  O2-  O476  1  0.91177070  0.60913460  0.84459166  1
  O2-  O477  1  0.91055645  0.83567372  0.17947408  1
  O2-  O478  1  0.92167711  0.83243398  0.52731093  1
  O2-  O479  1  0.93289149  0.83253539  0.85742825  1
  O2-  O480  1  0.17201976  0.08763662  0.30816448  1
  O2-  O481  1  0.14083805  0.03430196  0.63029146  1
  O2-  O482  1  0.16629745  0.08510569  0.97747006  1
  O2-  O483  1  0.16650730  0.32998533  0.30463811  1
  O2-  O484  1  0.19083089  0.35487267  0.65036511  1
  O2-  O485  1  0.13423926  0.29663091  0.97542412  1
  O2-  O486  1  0.17867478  0.58044904  0.32698389  1
  O2-  O487  1  0.20059192  0.61514297  0.64444049  1
  O2-  O488  1  0.16905947  0.58390989  1.00608871  1
  O2-  O489  1  0.16887248  0.81295351  0.32119366  1
  O2-  O490  1  0.17854039  0.82247005  0.64638774  1
  O2-  O491  1  0.16596931  0.84601949  0.97379232  1
  O2-  O492  1  0.42468704  0.08319600  0.31483154  1
  O2-  O493  1  0.36122902  0.03508417  0.64265275  1
  O2-  O494  1  0.42218043  0.08638063  0.97677042  1
  O2-  O495  1  0.42243415  0.33421021  0.30101063  1
  O2-  O496  1  0.42010906  0.32168617  0.64965532  1
  O2-  O497  1  0.45183343  0.29471507  0.95740392  1
  O2-  O498  1  0.42027398  0.58886293  0.30820411  1
  O2-  O499  1  0.41533848  0.57339837  0.63857768  1
  O2-  O500  1  0.43080067  0.61099362  0.97722630  1
  O2-  O501  1  0.40947016  0.82484693  0.31293944  1
  O2-  O502  1  0.38327574  0.85439146  0.65912132  1
  O2-  O503  1  0.41212173  0.82706320  0.97194202  1
  O2-  O504  1  0.65599343  0.06789891  0.31257381  1
  O2-  O505  1  0.65730292  0.06488428  0.64576921  1
  O2-  O506  1  0.66924733  0.08689814  0.97842279  1
  O2-  O507  1  0.66566465  0.33060334  0.32533398  1
  O2-  O508  1  0.68649525  0.36823571  0.63094276  1
  O2-  O509  1  0.67308560  0.33401531  0.97912204  1
  O2-  O510  1  0.68405907  0.57338812  0.31097499  1
  O2-  O511  1  0.65232576  0.57193716  0.65038861  1
  O2-  O512  1  0.66861755  0.58386756  0.97357985  1
  O2-  O513  1  0.67016612  0.85409576  0.35408230  1
  O2-  O514  1  0.63939330  0.82520245  0.64669984  1
  O2-  O515  1  0.67836915  0.85715136  0.97370105  1
  O2-  O516  1  0.93509570  0.08339388  0.30463418  1
  O2-  O517  1  0.90309731  0.03771195  0.65140500  1
  O2-  O518  1  0.88958670  0.02294347  0.98030597  1
  O2-  O519  1  0.83183329  0.31215734  0.26793481  1
  O2-  O520  1  0.88255199  0.31649451  0.64839321  1
  O2-  O521  1  0.90099598  0.31623036  0.96225908  1
  O2-  O522  1  0.92746783  0.57829639  0.31539685  1
  O2-  O523  1  0.92401249  0.57782845  0.64068978  1
  O2-  O524  1  0.90666159  0.58960621  0.96486456  1
  O2-  O525  1  0.92130859  0.82169134  0.30378039  1
  O2-  O526  1  1.01547427  0.84808466  0.68785830  1
  O2-  O527  1  0.91956999  0.84249507  0.97855698  1
  O2-  O528  1  0.05786282  0.13620856  0.01746562  1
  O2-  O529  1  0.09632220  0.17153825  0.33329884  1
  O2-  O530  1  0.06843417  0.12480852  0.68215718  1
  O2-  O531  1  0.06454961  0.39810444  -0.01854299  1
  O2-  O532  1  0.14961874  0.44474381  0.37580178  1
  O2-  O533  1  0.12587589  0.45748012  0.70283006  1
  O2-  O534  1  0.08254239  0.66677844  -0.02018375  1
  O2-  O535  1  0.09693910  0.65811718  0.35822274  1
  O2-  O536  1  0.08847634  0.66310621  0.68694207  1
  O2-  O537  1  0.08285975  0.92325126  0.01772368  1
  O2-  O538  1  0.09426365  0.91001045  0.34475193  1
  O2-  O539  1  0.10825028  0.90077138  0.70030780  1
  O2-  O540  1  0.32785269  0.16040834  0.02347642  1
  O2-  O541  1  0.34133953  0.16875410  0.35397574  1
  O2-  O542  1  0.34011174  0.16869478  0.69150247  1
  O2-  O543  1  0.28681312  0.42142674  0.02960178  1
  O2-  O544  1  0.34110248  0.41606567  0.33849940  1
  O2-  O545  1  0.34602825  0.41491980  0.68600909  1
  O2-  O546  1  0.33744142  0.67597286  0.02534556  1
  O2-  O547  1  0.33724159  0.66681099  0.35556973  1
  O2-  O548  1  0.36967630  0.68055814  0.69105440  1
  O2-  O549  1  0.32452816  0.91260019  0.00110228  1
  O2-  O550  1  0.33894146  0.91403398  0.35612093  1
  O2-  O551  1  0.33822781  0.89446978  0.68938822  1
  O2-  O552  1  0.58669234  0.16982194  0.01973851  1
  O2-  O553  1  0.59177302  0.16609730  0.35545208  1
  O2-  O554  1  0.53942857  0.15325351  0.65756145  1
  O2-  O555  1  0.59136310  0.41610896  0.01816819  1
  O2-  O556  1  0.58293825  0.41330700  0.34954210  1
  O2-  O557  1  0.58055923  0.41105534  0.69457407  1
  O2-  O558  1  0.60012484  0.68590042  0.00521434  1
  O2-  O559  1  0.57526354  0.67884849  0.35300781  1
  O2-  O560  1  0.57572349  0.65732292  0.68418269  1
  O2-  O561  1  0.57827851  0.92127716  0.00792641  1
  O2-  O562  1  0.56075658  0.91813517  0.36935733  1
  O2-  O563  1  0.56139235  0.91454398  0.68572417  1
  O2-  O564  1  0.82512282  0.16282725  0.01414818  1
  O2-  O565  1  0.80745670  0.09104902  0.36604285  1
  O2-  O566  1  0.80413526  0.14632167  0.68705737  1
  O2-  O567  1  0.84637227  0.42484585  -0.00132437  1
  O2-  O568  1  0.83282830  0.41854848  0.35757750  1
  O2-  O569  1  0.84218385  0.42326768  0.69443074  1
  O2-  O570  1  0.82997918  0.67337493  0.02028106  1
  O2-  O571  1  0.85174336  0.66635646  0.35550199  1
  O2-  O572  1  0.82394496  0.62989218  0.68329887  1
  O2-  O573  1  0.84601323  0.93505211  0.00674140  1
  O2-  O574  1  0.85502066  0.91480930  0.35570027  1
  O2-  O575  1  0.79489711  0.87862905  0.68200928  1
