# generated using pymatgen
data_H2O
_symmetry_space_group_name_H-M   'P 1'
_cell_length_a   18.00330448
_cell_length_b   18.00441858
_cell_length_c   22.01372845
_cell_angle_alpha   90.03915416
_cell_angle_beta   89.94454525
_cell_angle_gamma   120.02733815
_symmetry_Int_Tables_number   1
_chemical_formula_structural   H2O
_chemical_formula_sum   'H384 O192'
_cell_volume   6177.82561458
_cell_formula_units_Z   192
loop_
 _symmetry_equiv_pos_site_id
 _symmetry_equiv_pos_as_xyz
  1  'x, y, z'
loop_
 _atom_type_symbol
 _atom_type_oxidation_number
  H+  1.0
  O2-  -2.0
loop_
 _atom_site_type_symbol
 _atom_site_label
 _atom_site_symmetry_multiplicity
 _atom_site_fract_x
 _atom_site_fract_y
 _atom_site_fract_z
 _atom_site_occupancy
  H+  H0  1  0.64967457  0.63192241  0.32448981  1
  H+  H1  1  0.57170046  0.19117359  0.49907843  1
  H+  H2  1  0.39750021  0.54098558  0.64865139  1
  H+  H3  1  0.39039943  0.11203370  0.33887892  1
  H+  H4  1  0.85942354  0.88190300  0.02174690  1
  H+  H5  1  0.64955500  0.62810860  0.68178924  1
  H+  H6  1  0.47474620  0.12817746  0.17840419  1
  H+  H7  1  0.35418884  0.95665317  0.66500397  1
  H+  H8  1  0.61338523  0.56410434  0.51392628  1
  H+  H9  1  0.15404866  0.52909839  -0.01414541  1
  H+  H10  1  0.02585791  0.39225786  0.33204456  1
  H+  H11  1  0.36863344  0.95432517  0.82275875  1
  H+  H12  1  0.89331519  0.65822839  0.48256283  1
  H+  H13  1  0.37948952  0.40170961  0.16779493  1
  H+  H14  1  0.64237342  0.11222180  0.84224954  1
  H+  H15  1  0.79713019  0.66259875  0.33189452  1
  H+  H16  1  0.88936701  0.32522152  0.97585086  1
  H+  H17  1  0.39692628  0.53882353  0.50213626  1
  H+  H18  1  0.12631310  0.40462664  0.48353852  1
  H+  H19  1  0.52243006  0.88336792  0.83215441  1
  H+  H20  1  0.97773704  0.61653039  0.32978466  1
  H+  H21  1  0.87237357  0.14595796  0.49005463  1
  H+  H22  1  0.27995955  0.14904706  0.15911916  1
  H+  H23  1  0.63573868  0.36200810  0.82545345  1
  H+  H24  1  0.67499430  0.08918581  0.23851471  1
  H+  H25  1  0.26907802  0.40901030  0.84461097  1
  H+  H26  1  0.47527879  0.40687853  0.80974924  1
  H+  H27  1  0.65824324  0.82400703  0.50366968  1
  H+  H28  1  0.11840741  0.17359806  0.64603909  1
  H+  H29  1  0.38985451  0.87093620  0.01099265  1
  H+  H30  1  0.38950120  0.77571488  0.17354809  1
  H+  H31  1  0.62583216  0.72373216  0.34294187  1
  H+  H32  1  0.89166754  0.87289884  0.16256979  1
  H+  H33  1  0.89097629  0.37246620  0.32575108  1
  H+  H34  1  0.86095988  0.72632923  0.15410426  1
  H+  H35  1  0.37190507  0.83645849  0.83694491  1
  H+  H36  1  0.22054189  0.84387398  0.65861792  1
  H+  H37  1  0.89187380  0.43241862  1.00722701  1
  H+  H38  1  0.11446579  0.38556321  0.83270631  1
  H+  H39  1  0.63594546  0.77845782  0.84218833  1
  H+  H40  1  0.38847820  0.28089582  0.17287125  1
  H+  H41  1  0.52771568  0.64888725  0.67050347  1
  H+  H42  1  0.86270511  -0.01572144  0.16286173  1
  H+  H43  1  0.26437622  0.11246289  0.96420156  1
  H+  H44  1  0.22684375  0.10528379  0.33009771  1
  H+  H45  1  0.64826985  0.76494252  0.66209467  1
  H+  H46  1  0.60207393  0.22140438  0.99404554  1
  H+  H47  1  0.72869382  0.37551671  0.82384057  1
  H+  H48  1  0.85458848  0.70114118  0.81188434  1
  H+  H49  1  0.38636020  0.35751824  0.32647152  1
  H+  H50  1  0.89891694  0.06683603  0.27025124  1
  H+  H51  1  0.87361872  0.59920629  0.67144447  1
  H+  H52  1  0.50569066  0.37257228  0.01101192  1
  H+  H53  1  0.89663388  0.77459907  0.50098128  1
  H+  H54  1  -0.01238015  0.36451020  0.67120666  1
  H+  H55  1  0.45277790  0.22375807  0.71346663  1
  H+  H56  1  0.77983866  0.39783648  0.33838076  1
  H+  H57  1  0.86363409  0.21418989  0.02246927  1
  H+  H58  1  0.89301960  0.11199860  0.03159326  1
  H+  H59  1  0.65037609  0.54068142  0.67594134  1
  H+  H60  1  0.73053795  0.11576326  0.66026827  1
  H+  H61  1  0.62385664  0.27333121  0.65269470  1
  H+  H62  1  0.12679356  0.85673178  0.33756357  1
  H+  H63  1  0.44863542  0.59416955  0.93101803  1
  H+  H64  1  0.27591039  0.42260729  0.34437326  1
  H+  H65  1  0.12524617  0.55529152  0.18213419  1
  H+  H66  1  0.90722350  0.37728418  0.17319294  1
  H+  H67  1  0.76890358  0.64274094  0.16078584  1
  H+  H68  1  0.60724160  0.65623928  0.16743726  1
  H+  H69  1  0.89558196  0.02576288  1.02645998  1
  H+  H70  1  0.35331859  0.67502658  0.41954557  1
  H+  H71  1  0.04692470  0.64797239  0.44952297  1
  H+  H72  1  0.63897685  0.86829067  0.84315612  1
  H+  H73  1  0.57308992  0.17451774  0.05836342  1
  H+  H74  1  0.68131427  0.54955871  0.54616996  1
  H+  H75  1  0.73129748  0.11459585  0.33122809  1
  H+  H76  1  0.15872381  0.35848553  0.18563862  1
  H+  H77  1  0.12247264  0.85387734  0.50981728  1
  H+  H78  1  0.47232595  0.35198179  0.32953266  1
  H+  H79  1  0.64425001  0.27848924  0.32372895  1
  H+  H80  1  0.86769057  0.48827388  0.33198778  1
  H+  H81  1  0.64161937  0.16113699  0.49537210  1
  H+  H82  1  0.36628955  0.40202330  0.48906241  1
  H+  H83  1  0.37243379  -0.01594348  0.17540076  1
  H+  H84  1  0.14343371  0.28597135  0.50417852  1
  H+  H85  1  0.11754177  0.13760422  0.01346685  1
  H+  H86  1  0.67847564  0.09798190  0.56800164  1
  H+  H87  1  0.62284215  0.51817333  -0.01308566  1
  H+  H88  1  0.92034698  0.83415929  0.07868628  1
  H+  H89  1  0.78748220  0.15210947  0.49450210  1
  H+  H90  1  0.09896184  0.84548230  0.68053265  1
  H+  H91  1  0.36832741  0.64193874  0.65302963  1
  H+  H92  1  0.07356233  0.88927673  0.77371456  1
  H+  H93  1  0.35579770  0.87053354  0.66689423  1
  H+  H94  1  0.72276156  0.11303757  0.00224814  1
  H+  H95  1  0.76857318  0.87826400  0.00872855  1
  H+  H96  1  -0.01446725  0.86440730  0.50467234  1
  H+  H97  1  0.12614391  0.14221272  0.34669734  1
  H+  H98  1  0.37609320  0.76752566  0.88417723  1
  H+  H99  1  0.90909857  0.59254039  0.60607182  1
  H+  H100  1  0.84520100  0.91355762  0.43519916  1
  H+  H101  1  0.25355791  0.64729346  0.16428199  1
  H+  H102  1  0.48819664  0.09394404  0.83579752  1
  H+  H103  1  0.11678667  0.48254258  0.33142463  1
  H+  H104  1  0.50328333  0.35089720  0.48697875  1
  H+  H105  1  0.73441921  0.85403507  0.34255852  1
  H+  H106  1  0.46715388  0.63137536  0.18923681  1
  H+  H107  1  0.22756080  0.61310962  0.64380729  1
  H+  H108  1  0.99225189  0.38260342  0.49594386  1
  H+  H109  1  0.53383375  0.88695082  0.34540733  1
  H+  H110  1  0.87275979  0.83099632  0.83254580  1
  H+  H111  1  0.64550378  1.04642090  0.50511037  1
  H+  H112  1  0.43535178  0.08660212  0.46449789  1
  H+  H113  1  0.04106644  0.00350640  0.63084759  1
  H+  H114  1  0.13163876  0.11639572  0.50021841  1
  H+  H115  1  0.52208444  0.64591997  0.83923048  1
  H+  H116  1  0.59153191  0.71384254  1.00663569  1
  H+  H117  1  0.92039727  0.07654335  0.72778044  1
  H+  H118  1  0.36446154  0.71747524  0.80722079  1
  H+  H119  1  1.02086230  0.65708488  0.16204616  1
  H+  H120  1  0.40726499  0.63212748  0.49658928  1
  H+  H121  1  0.23969532  0.62856912  0.49780493  1
  H+  H122  1  0.12174450  0.22184997  0.16999765  1
  H+  H123  1  0.73730472  0.87963040  0.16905908  1
  H+  H124  1  0.89481971  0.27274742  0.66924258  1
  H+  H125  1  0.12294971  0.38195919  -0.00227948  1
  H+  H126  1  1.11000596  0.63288269  0.35690488  1
  H+  H127  1  0.85996346  0.96503246  0.34666646  1
  H+  H128  1  0.37332283  0.87505939  0.32893924  1
  H+  H129  1  0.89070747  0.37661747  0.67045036  1
  H+  H130  1  0.14292722  0.36886706  0.32793364  1
  H+  H131  1  0.87617405  0.88315704  0.34892673  1
  H+  H132  1  0.14972170  0.02971650  0.17727114  1
  H+  H133  1  0.62274215  0.14186220  0.67120585  1
  H+  H134  1  0.88901497  0.75248163  0.33727952  1
  H+  H135  1  0.61013408  0.97482743  0.83390337  1
  H+  H136  1  0.89894484  0.41914077  0.48621937  1
  H+  H137  1  0.73477871  0.46423232  0.21299802  1
  H+  H138  1  0.64042084  0.88139612  0.16815150  1
  H+  H139  1  0.59776503  0.35464880  0.48661259  1
  H+  H140  1  0.64786816  0.85754302  0.34327057  1
  H+  H141  1  0.92579432  0.54633435  0.49279416  1
  H+  H142  1  0.89155548  1.01063837  0.67432837  1
  H+  H143  1  0.08966293  -0.07250333  0.67451724  1
  H+  H144  1  0.88469757  0.61805409  0.17438739  1
  H+  H145  1  0.53471891  0.62898386  0.48844879  1
  H+  H146  1  0.88062227  0.88791359  0.49574993  1
  H+  H147  1  0.47505389  0.10664808  -0.00880983  1
  H+  H148  1  0.62269062  0.36190585  0.65477962  1
  H+  H149  1  -0.00961663  0.58615922  0.84588927  1
  H+  H150  1  0.10612917  0.71899772  0.35570834  1
  H+  H151  1  0.11172068  0.74723685  0.16597953  1
  H+  H152  1  0.35667558  0.16576907  0.69822601  1
  H+  H153  1  0.33838080  0.42314413  0.07397972  1
  H+  H154  1  0.14436654  0.11558818  0.17667638  1
  H+  H155  1  0.12724928  0.64554696  0.17661045  1
  H+  H156  1  0.36989164  0.42810913  0.82108744  1
  H+  H157  1  0.77055059  0.87945321  0.82540417  1
  H+  H158  1  0.24551133  0.35867834  0.18246885  1
  H+  H159  1  0.37650802  0.25814855  1.06973745  1
  H+  H160  1  0.68735488  0.32246193  0.49760375  1
  H+  H161  1  0.88884355  0.49392060  0.16643612  1
  H+  H162  1  0.80988922  0.49642400  0.77643680  1
  H+  H163  1  0.75931683  0.63818509  1.00370012  1
  H+  H164  1  0.80191642  0.40680839  0.16734055  1
  H+  H165  1  0.35071751  0.14086450  0.49249239  1
  H+  H166  1  0.63468741  0.69662462  0.49129920  1
  H+  H167  1  0.03252911  0.14289908  0.02583616  1
  H+  H168  1  0.12523866  0.63519264  0.82129974  1
  H+  H169  1  0.47092488  0.88342806  0.49998632  1
  H+  H170  1  0.35896906  0.37129085  0.02672947  1
  H+  H171  1  0.23355143  0.87075975  0.19014067  1
  H+  H172  1  1.01624466  0.87988796  0.34145774  1
  H+  H173  1  0.15278821  0.77737615  0.00065336  1
  H+  H174  1  0.95901873  0.82931245  0.83885930  1
  H+  H175  1  0.60138217  0.91268669  0.49902299  1
  H+  H176  1  0.89413215  0.37496472  0.81851368  1
  H+  H177  1  0.63786473  0.78591538  0.17059867  1
  H+  H178  1  0.33719454  0.15090949  0.87513836  1
  H+  H179  1  0.42716137  0.06124225  0.57533852  1
  H+  H180  1  0.12393567  0.62626587  0.66788036  1
  H+  H181  1  0.63369355  0.11301516  0.99699507  1
  H+  H182  1  0.86195203  -0.03729624  0.81406397  1
  H+  H183  1  0.89037531  0.11559956  0.81182443  1
  H+  H184  1  0.10080644  -0.04311536  0.82775019  1
  H+  H185  1  0.37435416  0.62016339  0.18089483  1
  H+  H186  1  0.16616771  0.58830990  0.58605808  1
  H+  H187  1  0.39071234  0.38850029  0.65961365  1
  H+  H188  1  0.39397464  0.08181991  0.84031945  1
  H+  H189  1  0.35677346  0.11837085  -0.03390379  1
  H+  H190  1  0.77114299  0.63303963  0.71442401  1
  H+  H191  1  0.43293428  0.82798345  0.26993303  1
  H+  H192  1  0.61913923  0.38398697  0.15821766  1
  H+  H193  1  0.56099777  0.40674293  0.87131234  1
  H+  H194  1  0.15664164  0.28710236  0.83959306  1
  H+  H195  1  0.11956898  0.72204266  0.82373341  1
  H+  H196  1  -0.01760355  0.12093948  0.81202678  1
  H+  H197  1  0.13097371  0.00427382  1.00380515  1
  H+  H198  1  0.86778871  0.09881138  0.32682573  1
  H+  H199  1  0.30991697  0.66045473  0.10459676  1
  H+  H200  1  0.85484958  0.68399315  0.42670978  1
  H+  H201  1  0.36946609  0.48622278  0.17323261  1
  H+  H202  1  0.14921470  0.27469096  0.99745534  1
  H+  H203  1  0.12075376  0.89347745  0.17637212  1
  H+  H204  1  0.36725190  0.63173609  0.80231934  1
  H+  H205  1  0.89136880  0.11590506  0.17462749  1
  H+  H206  1  0.72332683  0.61441973  0.83030706  1
  H+  H207  1  0.23874187  0.36537646  0.99844088  1
  H+  H208  1  0.53435138  0.14365919  0.34277678  1
  H+  H209  1  0.36076722  0.21913355  0.33954206  1
  H+  H210  1  0.39947222  0.30557990  0.66712540  1
  H+  H211  1  0.14296488  0.38712112  0.65839578  1
  H+  H212  1  0.52981057  0.89266271  0.01502927  1
  H+  H213  1  0.13923476  0.52032889  0.83528678  1
  H+  H214  1  0.11902050  0.71757826  0.67126159  1
  H+  H215  1  0.02476610  0.38593626  0.82457109  1
  H+  H216  1  0.16705398  0.83372733  0.24747040  1
  H+  H217  1  0.16319184  0.47075846  0.22560856  1
  H+  H218  1  0.88315263  0.54079210  0.99212187  1
  H+  H219  1  0.35821941  0.54499927  0.34345837  1
  H+  H220  1  0.13989706  0.29762963  0.65590799  1
  H+  H221  1  0.63335284  0.36104926  0.33145188  1
  H+  H222  1  0.60862245  0.64336428  0.82833284  1
  H+  H223  1  0.86743459  0.22939420  0.16724423  1
  H+  H224  1  1.03228981  0.87867594  1.02764446  1
  H+  H225  1  0.32958238  0.90805014  0.28457841  1
  H+  H226  1  0.89177148  0.01887440  0.50243559  1
  H+  H227  1  0.63195390  0.85606532  0.99753323  1
  H+  H228  1  0.77354322  0.13627696  0.83021543  1
  H+  H229  1  0.11363977  0.96808747  0.34125859  1
  H+  H230  1  0.38331907  0.32487577  0.81351807  1
  H+  H231  1  0.87385760  0.47188043  0.66136936  1
  H+  H232  1  0.86260815  0.13312407  0.67811773  1
  H+  H233  1  0.33811872  0.45774850  0.40413863  1
  H+  H234  1  0.61859022  0.22370733  0.82096170  1
  H+  H235  1  0.85985631  0.22874111  0.82351853  1
  H+  H236  1  0.09451515  0.43113692  0.73658471  1
  H+  H237  1  0.36660898  -0.02458831  1.01840662  1
  H+  H238  1  0.62691468  0.54624759  0.17377091  1
  H+  H239  1  0.87318107  0.48969850  0.82408937  1
  H+  H240  1  0.75407852  0.85424491  0.66078615  1
  H+  H241  1  0.12504600  0.06173539  0.66765139  1
  H+  H242  1  0.16770922  0.58376482  0.92638050  1
  H+  H243  1  0.87602324  0.62194702  -0.02529904  1
  H+  H244  1  0.86441819  0.23172152  0.33845112  1
  H+  H245  1  0.24124082  0.86202362  0.49512143  1
  H+  H246  1  0.02502858  0.14433237  0.67248666  1
  H+  H247  1  0.37749950  0.73101678  0.96949655  1
  H+  H248  1  0.52262742  0.89610341  0.67240015  1
  H+  H249  1  0.10009528  0.92046835  0.11226329  1
  H+  H250  1  0.11536976  0.97490629  0.48604751  1
  H+  H251  1  0.13498307  0.23539360  0.34857377  1
  H+  H252  1  0.75748152  0.85132259  0.50518253  1
  H+  H253  1  0.13483613  0.64778490  0.01106106  1
  H+  H254  1  0.63795173  0.02837240  0.66063330  1
  H+  H255  1  -0.02135200  0.11168165  0.17507510  1
  H+  H256  1  0.88568475  0.77491164  1.02078392  1
  H+  H257  1  0.37397229  0.28066234  0.50788623  1
  H+  H258  1  0.99011209  0.36628026  0.17599306  1
  H+  H259  1  0.61749626  0.35055194  0.97871403  1
  H+  H260  1  0.26288958  0.14150706  0.49287492  1
  H+  H261  1  0.17835796  0.83623862  -0.05883301  1
  H+  H262  1  0.29512356  -0.11674728  0.43338562  1
  H+  H263  1  0.96091915  0.82927453  0.66087853  1
  H+  H264  1  0.36352298  0.50867990  0.85938039  1
  H+  H265  1  0.27257436  0.40794226  0.66714269  1
  H+  H266  1  0.22653485  0.85116841  0.83999722  1
  H+  H267  1  0.22997593  0.60679496  0.82885430  1
  H+  H268  1  0.90228185  0.29680907  0.49772742  1
  H+  H269  1  0.53021798  0.12889457  0.66622128  1
  H+  H270  1  0.16991829  0.08176333  0.27048630  1
  H+  H271  1  -0.00869118  0.38401884  -0.02440104  1
  H+  H272  1  0.61558140  0.21971232  0.15539081  1
  H+  H273  1  0.61238135  0.49519775  0.83594658  1
  H+  H274  1  1.03078597  0.14575340  0.49215138  1
  H+  H275  1  0.39704575  0.02582783  0.33294690  1
  H+  H276  1  0.53012321  0.89049127  0.16237992  1
  H+  H277  1  0.66955358  0.35578936  0.55864037  1
  H+  H278  1  0.61941087  -0.02006227  1.01042302  1
  H+  H279  1  0.58501824  0.45055669  0.36430232  1
  H+  H280  1  0.21511094  0.85229361  0.33750594  1
  H+  H281  1  0.36601413  0.24327531  0.99974037  1
  H+  H282  1  0.43128303  0.86705834  0.94891963  1
  H+  H283  1  0.16740070  0.09413319  0.88424993  1
  H+  H284  1  0.51902783  0.35798725  0.15415621  1
  H+  H285  1  0.52707954  0.40829772  0.67273899  1
  H+  H286  1  0.37951198  0.73907341  0.47792756  1
  H+  H287  1  0.38695835  0.77231423  0.64975299  1
  H+  H288  1  0.62134742  0.60559078  0.99033554  1
  H+  H289  1  0.58392735  0.93512833  0.43194428  1
  H+  H290  1  0.98285237  0.87255686  0.16444446  1
  H+  H291  1  0.39553130  0.86684513  0.17973745  1
  H+  H292  1  0.32972284  0.16807069  0.40232190  1
  H+  H293  1  0.67068907  0.59514479  0.89467956  1
  H+  H294  1  0.18485733  0.33715375  0.27661782  1
  H+  H295  1  0.17127374  0.35116552  0.56053451  1
  H+  H296  1  0.36204099  0.17567352  0.80257402  1
  H+  H297  1  0.33205627  0.44816680  0.72543640  1
  H+  H298  1  0.39260808  0.62945649  0.90623058  1
  H+  H299  1  0.12681512  0.15173428  0.81472954  1
  H+  H300  1  0.08493930  0.90973940  0.42920799  1
  H+  H301  1  0.45340286  0.55005488  1.02448686  1
  H+  H302  1  0.10025388  0.67837982  0.06822091  1
  H+  H303  1  0.81706291  0.65625234  0.06310139  1
  H+  H304  1  0.69001380  0.37329588  0.24434702  1
  H+  H305  1  0.85868346  0.44173931  0.07168016  1
  H+  H306  1  0.64201088  0.11340307  0.32987240  1
  H+  H307  1  0.82596392  0.16248213  0.08370843  1
  H+  H308  1  0.27806833  0.40362174  0.49176466  1
  H+  H309  1  0.22205372  0.09802355  0.82908000  1
  H+  H310  1  0.10519442  0.75676620  0.51430218  1
  H+  H311  1  0.36859944  0.15104854  0.16021555  1
  H+  H312  1  0.44409715  0.30521843  0.90142579  1
  H+  H313  1  0.82673759  0.92209176  0.10313636  1
  H+  H314  1  0.57052628  0.67793980  0.10898264  1
  H+  H315  1  0.47270957  0.01579196  0.60427732  1
  H+  H316  1  0.92559584  0.56091675  0.90276451  1
  H+  H317  1  0.27812193  0.88756414  0.01992057  1
  H+  H318  1  0.39969687  0.76265939  0.32633445  1
  H+  H319  1  0.09471709  0.03076249  0.95002500  1
  H+  H320  1  0.57939111  0.92498863  0.73259215  1
  H+  H321  1  0.91621671  0.07976086  0.55990939  1
  H+  H322  1  0.92263372  0.59726183  0.23509971  1
  H+  H323  1  0.67343663  0.55345086  0.31413805  1
  H+  H324  1  0.35401030  0.00364048  0.48818038  1
  H+  H325  1  0.09436671  0.42834525  0.42271666  1
  H+  H326  1  0.14981348  0.54342422  0.49397706  1
  H+  H327  1  0.42406106  0.33853044  0.23245923  1
  H+  H328  1  0.32863567  0.89653650  0.76324570  1
  H+  H329  1  0.62101831  0.97929551  0.34431700  1
  H+  H330  1  0.59608873  0.65149175  0.39549914  1
  H+  H331  1  0.41437166  0.34815391  0.56264416  1
  H+  H332  1  0.60310357  0.18161280  0.39687416  1
  H+  H333  1  0.17818444  0.33633939  0.90558084  1
  H+  H334  1  0.13676020  0.85010599  0.84429122  1
  H+  H335  1  0.92078123  0.35731863  0.88278097  1
  H+  H336  1  0.57948912  0.40241348  0.05693046  1
  H+  H337  1  0.42264069  0.05847708  0.93163873  1
  H+  H338  1  0.37233571  0.86111885  0.50273461  1
  H+  H339  1  0.89566229  0.62973144  0.32522030  1
  H+  H340  1  0.84498891  0.42236375  0.72537993  1
  H+  H341  1  0.10699464  0.19496166  0.75864345  1
  H+  H342  1  0.77513859  0.14048302  0.17173240  1
  H+  H343  1  0.23758443  0.61382541  0.32551293  1
  H+  H344  1  0.39152127  0.61416015  0.27925475  1
  H+  H345  1  0.65443610  0.32431146  0.92165073  1
  H+  H346  1  0.96039069  0.10481604  0.91974240  1
  H+  H347  1  0.65945847  0.82616304  0.93729543  1
  H+  H348  1  0.09662487  0.65943744  0.73739556  1
  H+  H349  1  0.57627783  0.67763457  0.73584419  1
  H+  H350  1  0.57932659  0.42032529  0.73376348  1
  H+  H351  1  0.86630401  0.44914753  0.42771100  1
  H+  H352  1  0.11496741  0.48734216  0.67359213  1
  H+  H353  1  0.43229461  0.33755793  0.91268203  1
  H+  H354  1  0.86888396  0.86832080  0.66814194  1
  H+  H355  1  0.55319562  0.36493483  0.40964460  1
  H+  H356  1  0.56081587  0.26047359  0.13175146  1
  H+  H357  1  0.09351612  0.16912077  0.10814419  1
  H+  H358  1  0.69277163  0.81450447  0.59514534  1
  H+  H359  1  0.92050455  0.33873412  0.26828255  1
  H+  H360  1  0.83839003  0.17525164  0.39886567  1
  H+  H361  1  0.08431865  0.41111679  0.05137779  1
  H+  H362  1  0.28787921  0.64780297  -0.04549654  1
  H+  H363  1  0.83201223  0.89325128  0.73035769  1
  H+  H364  1  0.59039248  0.92425497  0.10237938  1
  H+  H365  1  0.33067025  0.66263181  0.71212504  1
  H+  H366  1  0.20575747  0.49685793  0.16227296  1
  H+  H367  1  0.12349135  0.88096215  1.01541376  1
  H+  H368  1  0.41631846  0.83739295  0.59368627  1
  H+  H369  1  0.96242854  0.06415259  0.91956348  1
  H+  H370  1  0.17146146  0.60595853  0.27300415  1
  H+  H371  1  0.14925271  0.06959158  0.55574082  1
  H+  H372  1  0.83028627  0.16594976  0.73362768  1
  H+  H373  1  0.67028464  0.08419050  0.90376245  1
  H+  H374  1  0.33858339  0.92135332  0.11797550  1
  H+  H375  1  0.15418856  0.81322627  0.60147069  1
  H+  H376  1  0.43419243  0.60140653  0.58934711  1
  H+  H377  1  0.58897140  0.16099503  0.76396568  1
  H+  H378  1  0.67086013  0.60630738  0.23247575  1
  H+  H379  1  0.09657244  0.17761984  0.43515584  1
  H+  H380  1  0.42468116  0.09456083  0.24194734  1
  H+  H381  1  0.93024467  0.84779968  0.28001579  1
  H+  H382  1  0.91697308  0.82516092  0.59572401  1
  H+  H383  1  0.64666369  0.03627491  0.17724288  1
  O2-  O384  1  0.08772478  0.16266971  0.15320597  1
  O2-  O385  1  0.09285989  0.17759491  0.48205717  1
  O2-  O386  1  0.10441378  0.19069113  0.80357044  1
  O2-  O387  1  0.15116913  0.45810667  0.18224674  1
  O2-  O388  1  0.09791542  0.43587370  0.46761695  1
  O2-  O389  1  0.08762118  0.41705446  0.81477086  1
  O2-  O390  1  0.08226248  0.68820563  0.14791752  1
  O2-  O391  1  0.04495129  0.65344528  0.49465828  1
  O2-  O392  1  0.09369887  0.66348909  0.80440336  1
  O2-  O393  1  0.09277796  0.92364994  0.15708487  1
  O2-  O394  1  0.08731922  0.91294549  0.47565267  1
  O2-  O395  1  0.07642821  0.89534234  0.81902895  1
  O2-  O396  1  0.34104923  0.18300235  0.14452439  1
  O2-  O397  1  0.32460621  0.17529810  0.47967886  1
  O2-  O398  1  0.32924487  0.12945508  0.83202927  1
  O2-  O399  1  0.34374465  0.42789494  0.15533700  1
  O2-  O400  1  0.33864877  0.43613846  0.47636558  1
  O2-  O401  1  0.33211120  0.45636129  0.83075294  1
  O2-  O402  1  0.31225322  0.66075592  0.14885167  1
  O2-  O403  1  0.35453037  0.67834087  0.46541696  1
  O2-  O404  1  0.33229836  0.65692495  0.79102736  1
  O2-  O405  1  0.34152607  0.92173029  0.16344559  1
  O2-  O406  1  0.30129287  0.89546457  0.47690034  1
  O2-  O407  1  0.32987326  0.89404100  0.80852541  1
  O2-  O408  1  0.56226992  0.20532000  0.13452228  1
  O2-  O409  1  0.61719622  0.19368813  0.47373607  1
  O2-  O410  1  0.59036745  0.16186472  0.80956082  1
  O2-  O411  1  0.56784739  0.35915750  0.13123093  1
  O2-  O412  1  0.54047001  0.33486280  0.46350629  1
  O2-  O413  1  0.57393898  0.42985039  0.82997854  1
  O2-  O414  1  0.57618678  0.68670056  0.15367832  1
  O2-  O415  1  0.59220116  0.64162446  0.47288879  1
  O2-  O416  1  0.57606479  0.67257587  0.81580376  1
  O2-  O417  1  0.59115097  0.92333264  0.14830610  1
  O2-  O418  1  0.57752589  0.94352785  0.47799442  1
  O2-  O419  1  0.58201793  0.91528910  0.81693869  1
  O2-  O420  1  0.83593308  0.16863539  0.15371270  1
  O2-  O421  1  0.84580337  0.17954770  0.47606783  1
  O2-  O422  1  0.83180000  0.16775707  0.81050331  1
  O2-  O423  1  0.86177458  0.43232111  0.15269736  1
  O2-  O424  1  0.88077586  0.46099744  0.47129828  1
  O2-  O425  1  0.82307384  0.45328864  0.79195048  1
  O2-  O426  1  0.82794645  0.66356328  0.14508598  1
  O2-  O427  1  0.85731442  0.68372585  0.47202572  1
  O2-  O428  1  0.81859597  0.63866500  0.79780998  1
  O2-  O429  1  0.82814262  0.92191498  0.14892146  1
  O2-  O430  1  0.84632784  0.91584617  0.48231375  1
  O2-  O431  1  0.82816180  0.90036468  0.80613704  1
  O2-  O432  1  0.18069202  0.09112289  0.19071443  1
  O2-  O433  1  0.15982341  0.08150932  0.51203812  1
  O2-  O434  1  0.16199045  0.08234478  0.84052421  1
  O2-  O435  1  0.18497451  0.32429526  0.19817524  1
  O2-  O436  1  0.17403334  0.34819748  0.51553243  1
  O2-  O437  1  0.18195081  0.34504966  0.85986358  1
  O2-  O438  1  0.15942710  0.61580931  0.19376871  1
  O2-  O439  1  0.18123954  0.59984220  0.51502052  1
  O2-  O440  1  0.17222277  0.58224577  0.84768303  1
  O2-  O441  1  0.17182987  0.84160189  0.20209655  1
  O2-  O442  1  0.14658783  0.81800478  0.52653650  1
  O2-  O443  1  0.16790973  0.82021707  0.85818272  1
  O2-  O444  1  0.41761456  0.08977134  0.19692151  1
  O2-  O445  1  0.39347505  0.06616898  0.49746553  1
  O2-  O446  1  0.42872454  0.05502376  0.85173227  1
  O2-  O447  1  0.42520666  0.34228221  0.18709413  1
  O2-  O448  1  0.40858282  0.34298800  0.51780989  1
  O2-  O449  1  0.41310178  0.38380396  0.79871877  1
  O2-  O450  1  0.40667072  0.59758114  0.20356090  1
  O2-  O451  1  0.43396468  0.59997161  0.51525117  1
  O2-  O452  1  0.42158726  0.59703165  0.89196242  1
  O2-  O453  1  0.42589836  0.83439190  0.18967526  1
  O2-  O454  1  0.41280343  0.84187073  0.51607990  1
  O2-  O455  1  0.40494640  0.80740618  0.84956626  1
  O2-  O456  1  0.67895888  0.09537026  0.19324328  1
  O2-  O457  1  0.68212223  0.10480042  0.52252676  1
  O2-  O458  1  0.67164564  0.08153584  0.85834819  1
  O2-  O459  1  0.70653391  0.40331976  0.20297451  1
  O2-  O460  1  0.68092201  0.36932153  0.51436580  1
  O2-  O461  1  0.66879765  0.33482097  0.83825036  1
  O2-  O462  1  0.66248125  0.60610494  0.18578225  1
  O2-  O463  1  0.61958834  0.52290969  0.53985059  1
  O2-  O464  1  0.66507132  0.59285077  0.84931986  1
  O2-  O465  1  0.67244380  0.84933478  0.18215483  1
  O2-  O466  1  0.69707223  0.80839602  0.52299631  1
  O2-  O467  1  0.66933027  0.83800426  0.85847974  1
  O2-  O468  1  0.91721725  0.08083029  0.18783629  1
  O2-  O469  1  0.91975204  0.08103953  0.51574651  1
  O2-  O470  1  0.92110494  0.08371383  0.80165147  1
  O2-  O471  1  0.93015082  0.33939553  0.18826695  1
  O2-  O472  1  0.93235154  0.35718609  0.51099101  1
  O2-  O473  1  0.91749446  0.34260175  0.83844040  1
  O2-  O474  1  0.92157759  0.59463883  0.18904858  1
  O2-  O475  1  0.95307868  0.61115335  0.51050828  1
  O2-  O476  1  0.94193043  0.53686867  0.86606197  1
  O2-  O477  1  0.91911316  0.83687239  0.15920989  1
  O2-  O478  1  0.92523773  0.83484216  0.52036338  1
  O2-  O479  1  0.89635966  0.79410266  0.84468536  1
  O2-  O480  1  0.16635154  0.07702263  0.31573688  1
  O2-  O481  1  0.10262850  0.02359635  0.63263912  1
  O2-  O482  1  0.14356031  0.05677213  0.97778573  1
  O2-  O483  1  0.18379239  0.34694414  0.32111650  1
  O2-  O484  1  0.17350828  0.35758925  0.64128879  1
  O2-  O485  1  0.17928008  0.33489168  0.98034386  1
  O2-  O486  1  0.17458732  0.58960309  0.31554671  1
  O2-  O487  1  0.16511632  0.58409430  0.63288701  1
  O2-  O488  1  0.18108530  0.58874983  0.97075798  1
  O2-  O489  1  0.15498533  0.82133032  0.32400328  1
  O2-  O490  1  0.15831459  0.80879852  0.64698569  1
  O2-  O491  1  0.18040450  0.83988992  0.98627243  1
  O2-  O492  1  0.42658867  0.08783904  0.32331233  1
  O2-  O493  1  0.44290509  0.04672248  0.61514416  1
  O2-  O494  1  0.41481044  0.06910547  0.97508103  1
  O2-  O495  1  0.41246161  0.32535448  0.31029692  1
  O2-  O496  1  0.42313570  0.36033744  0.64520812  1
  O2-  O497  1  0.38869543  0.28946777  1.03090954  1
  O2-  O498  1  0.38884245  0.61425220  0.32513283  1
  O2-  O499  1  0.43151683  0.60185315  0.63543667  1
  O2-  O500  1  0.47600459  0.60854141  1.00749810  1
  O2-  O501  1  0.43002040  0.82619583  0.31516332  1
  O2-  O502  1  0.41539235  0.83496117  0.63919548  1
  O2-  O503  1  0.42473329  0.84738031  0.99098055  1
  O2-  O504  1  0.66997266  0.08016970  0.31667164  1
  O2-  O505  1  0.67075219  0.08938577  0.64431541  1
  O2-  O506  1  0.66482134  0.08273079  0.98318175  1
  O2-  O507  1  0.67119713  0.34088528  0.31288357  1
  O2-  O508  1  0.64185768  0.32775363  0.63133624  1
  O2-  O509  1  0.64207700  0.31486442  0.96551272  1
  O2-  O510  1  0.68971632  0.61074072  0.30002229  1
  O2-  O511  1  0.68774047  0.60388969  0.67719433  1
  O2-  O512  1  0.65323854  0.57898103  0.97258891  1
  O2-  O513  1  0.67344500  0.82384442  0.32828630  1
  O2-  O514  1  0.69048868  0.82210593  0.64094926  1
  O2-  O515  1  0.65481677  0.81893711  0.98258816  1
  O2-  O516  1  0.88593063  0.05764570  0.31402930  1
  O2-  O517  1  0.92129172  0.07407219  0.68164742  1
  O2-  O518  1  0.93120779  0.08764662  1.03562780  1
  O2-  O519  1  0.92071566  0.34008681  0.31335904  1
  O2-  O520  1  0.92634258  0.33485693  0.65728918  1
  O2-  O521  1  0.93683951  0.37599734  0.95753267  1
  O2-  O522  1  0.92084958  0.59334856  0.30942911  1
  O2-  O523  1  0.89783140  0.56994100  0.64766201  1
  O2-  O524  1  0.90645766  0.59107155  0.96410851  1
  O2-  O525  1  0.93133364  0.84309627  0.32398019  1
  O2-  O526  1  0.90845629  0.82196114  0.64103400  1
  O2-  O527  1  0.92311618  0.83659594  1.03335199  1
  O2-  O528  1  0.09780871  0.17647279  0.02860077  1
  O2-  O529  1  0.10357023  0.17701621  0.36580276  1
  O2-  O530  1  0.08837536  0.18732577  0.67698859  1
  O2-  O531  1  0.09084893  0.41348772  0.00733134  1
  O2-  O532  1  0.08855482  0.42032617  0.34240916  1
  O2-  O533  1  0.08973835  0.42840156  0.69129061  1
  O2-  O534  1  0.11015118  0.68335416  0.02389464  1
  O2-  O535  1  0.07505243  0.65827274  0.37039288  1
  O2-  O536  1  0.09510457  0.65705106  0.68954946  1
  O2-  O537  1  0.09596882  0.91264334  0.03429133  1
  O2-  O538  1  0.08310753  0.90803273  0.35678645  1
  O2-  O539  1  0.06614942  0.87283088  0.69665346  1
  O2-  O540  1  0.32520192  0.14876709  -0.04745793  1
  O2-  O541  1  0.33379707  0.16051439  0.35750727  1
  O2-  O542  1  0.39616130  0.21689597  0.72123958  1
  O2-  O543  1  0.34161113  0.41583271  0.02939681  1
  O2-  O544  1  0.33525629  0.46759648  0.35901124  1
  O2-  O545  1  0.33419290  0.43918830  0.68192834  1
  O2-  O546  1  0.34817896  0.68465875  -0.06080895  1
  O2-  O547  1  0.34177467  0.65947858  0.34322481  1
  O2-  O548  1  0.33198906  0.66684587  0.66703592  1
  O2-  O549  1  0.33753377  0.91744946  0.03808305  1
  O2-  O550  1  0.33991715  0.90677502  0.32807519  1
  O2-  O551  1  0.32298836  0.89883043  0.68318540  1
  O2-  O552  1  0.57568945  0.16275902  0.01457302  1
  O2-  O553  1  0.59713414  0.17599486  0.35169520  1
  O2-  O554  1  0.58571603  0.16541310  0.68655811  1
  O2-  O555  1  0.56880005  0.41006102  0.01357716  1
  O2-  O556  1  0.56326406  0.38928461  0.36013404  1
  O2-  O557  1  0.58541001  0.42753955  0.68979624  1
  O2-  O558  1  0.56686503  0.65477995  0.02633568  1
  O2-  O559  1  0.59942083  0.65954960  0.35044478  1
  O2-  O560  1  0.58537266  0.67869732  0.69110947  1
  O2-  O561  1  0.59140189  0.92002285  0.02732155  1
  O2-  O562  1  0.59168905  0.92114106  0.36435388  1
  O2-  O563  1  0.58185976  0.93149138  0.68788605  1
  O2-  O564  1  0.82346945  0.15691220  0.03707384  1
  O2-  O565  1  0.83241564  0.17154873  0.35354638  1
  O2-  O566  1  0.83525169  0.16769693  0.68806678  1
  O2-  O567  1  0.85131156  0.44554114  0.02751111  1
  O2-  O568  1  0.84225339  0.42810450  0.34763398  1
  O2-  O569  1  0.85388329  0.41389511  0.68131475  1
  O2-  O570  1  0.81929534  0.66838584  0.01888180  1
  O2-  O571  1  0.85570560  0.68574174  0.34835248  1
  O2-  O572  1  0.82996179  0.64650847  0.73146070  1
  O2-  O573  1  0.82622749  0.91245998  0.02746718  1
  O2-  O574  1  0.83932090  0.90726015  0.36603498  1
  O2-  O575  1  0.83649366  0.89928286  0.68467545  1
