# generated using pymatgen
data_H2O
_symmetry_space_group_name_H-M   'P 1'
_cell_length_a   17.98679280
_cell_length_b   17.99200995
_cell_length_c   21.99660182
_cell_angle_alpha   89.99950169
_cell_angle_beta   90.00766386
_cell_angle_gamma   120.01858891
_symmetry_Int_Tables_number   1
_chemical_formula_structural   H2O
_chemical_formula_sum   'H384 O192'
_cell_volume   6163.65404620
_cell_formula_units_Z   192
loop_
 _symmetry_equiv_pos_site_id
 _symmetry_equiv_pos_as_xyz
  1  'x, y, z'
loop_
 _atom_type_symbol
 _atom_type_oxidation_number
  H+  1.0
  O2-  -2.0
loop_
 _atom_site_type_symbol
 _atom_site_label
 _atom_site_symmetry_multiplicity
 _atom_site_fract_x
 _atom_site_fract_y
 _atom_site_fract_z
 _atom_site_occupancy
  H+  H0  1  0.36104619  0.99981196  0.32719150  1
  H+  H1  1  0.11390977  0.39451682  0.33752122  1
  H+  H2  1  0.51837112  0.13646086  0.00843888  1
  H+  H3  1  0.09412083  0.17433948  0.38784620  1
  H+  H4  1  0.30213363  0.14372761  0.48383273  1
  H+  H5  1  0.61179011  0.12167385  0.68847922  1
  H+  H6  1  0.64101395  0.78325330  0.32713242  1
  H+  H7  1  0.15584162  0.03473872  0.86235498  1
  H+  H8  1  0.48312672  0.35212723  0.52637244  1
  H+  H9  1  0.34474850  0.66677868  0.51151957  1
  H+  H10  1  0.38272593  0.13983575  0.65360521  1
  H+  H11  1  0.63505711  0.86426291  0.66776580  1
  H+  H12  1  0.32333498  0.91904839  0.74511196  1
  H+  H13  1  0.55888424  0.16564305  0.29216080  1
  H+  H14  1  0.86800325  0.15149466  0.34290068  1
  H+  H15  1  0.86368533  0.12732325  0.64976716  1
  H+  H16  1  0.17827176  0.34678806  0.22256509  1
  H+  H17  1  0.39108956  0.26376384  0.52889620  1
  H+  H18  1  0.04701017  0.64121015  0.39345223  1
  H+  H19  1  0.63927889  0.26895250  0.50560543  1
  H+  H20  1  0.35713995  0.63628215  -0.01692015  1
  H+  H21  1  0.61062982  0.97236715  0.15998111  1
  H+  H22  1  0.97624845  0.61686177  0.99887997  1
  H+  H23  1  0.46162417  0.86813595  0.84011588  1
  H+  H24  1  0.86781730  0.14711982  0.84949112  1
  H+  H25  1  0.40210599  0.00239346  0.65231792  1
  H+  H26  1  0.65319156  0.32699784  0.90424427  1
  H+  H27  1  0.38488164  0.76954983  0.16301187  1
  H+  H28  1  0.38913457  0.52608988  0.66735505  1
  H+  H29  1  0.82241217  0.66643340  0.77386645  1
  H+  H30  1  -0.01751809  0.12122814  0.18730226  1
  H+  H31  1  0.96828388  0.37008247  0.49558986  1
  H+  H32  1  0.84148851  0.70518841  0.49851058  1
  H+  H33  1  0.42961401  0.58634623  0.26206294  1
  H+  H34  1  0.63252200  0.33628651  0.16816591  1
  H+  H35  1  0.27635227  0.89347905  0.83945531  1
  H+  H36  1  0.07324146  0.94808082  0.33605079  1
  H+  H37  1  0.14443040  0.86763455  0.50190816  1
  H+  H38  1  0.65590185  0.54870063  0.22183735  1
  H+  H39  1  0.17664699  0.12159078  0.44019965  1
  H+  H40  1  0.63822886  1.02661368  0.32559704  1
  H+  H41  1  0.76792103  0.63292688  0.01850782  1
  H+  H42  1  0.63343847  0.12928900  0.84130838  1
  H+  H43  1  0.12715666  0.14804926  0.82602282  1
  H+  H44  1  0.64276536  0.52866197  0.01343998  1
  H+  H45  1  0.23829255  0.61170977  0.31284368  1
  H+  H46  1  0.89384370  0.01722063  0.65030315  1
  H+  H47  1  0.24764291  0.86253496  0.32849960  1
  H+  H48  1  0.52256565  0.39114286  0.69770865  1
  H+  H49  1  0.12886702  0.73258362  0.67817277  1
  H+  H50  1  0.14630768  0.28730904  0.31898699  1
  H+  H51  1  0.14871561  0.77631193  0.84908264  1
  H+  H52  1  0.38522712  1.02610069  -0.01033048  1
  H+  H53  1  0.72360569  0.09747357  0.64752840  1
  H+  H54  1  0.12721038  0.19904267  0.49571233  1
  H+  H55  1  0.48639707  0.62474732  0.87179834  1
  H+  H56  1  0.12183556  0.22963098  0.16421599  1
  H+  H57  1  0.26789164  0.63454475  -0.00666408  1
  H+  H58  1  0.27311517  0.41020818  0.82676733  1
  H+  H59  1  0.37205163  0.24023194  -0.02152838  1
  H+  H60  1  0.09764807  0.64143905  0.49278912  1
  H+  H61  1  0.85526071  0.21187460  0.64865042  1
  H+  H62  1  0.24104666  0.14169351  -0.00840977  1
  H+  H63  1  0.77658228  0.14643555  0.33871060  1
  H+  H64  1  0.36099593  0.88157073  0.15522779  1
  H+  H65  1  0.14582511  0.37819134  0.98260067  1
  H+  H66  1  0.71026032  0.35864177  0.84441948  1
  H+  H67  1  0.36729932  0.63595401  0.14743196  1
  H+  H68  1  0.57099789  0.79116939  0.53359661  1
  H+  H69  1  0.54311831  0.64170737  0.33863514  1
  H+  H70  1  0.12439589  0.54106557  0.50299172  1
  H+  H71  1  0.88227383  0.27701305  0.49970563  1
  H+  H72  1  0.23912700  0.61312765  0.84685184  1
  H+  H73  1  0.13204601  0.09371377  0.68152382  1
  H+  H74  1  0.11043297  0.42021981  0.48731257  1
  H+  H75  1  0.57096258  0.14937117  0.74416336  1
  H+  H76  1  0.96735191  0.61599674  0.49925694  1
  H+  H77  1  0.22689152  0.60751694  0.15955253  1
  H+  H78  1  0.63502030  0.50576683  0.52788158  1
  H+  H79  1  0.73778906  0.62291784  0.18457184  1
  H+  H80  1  1.02400223  0.39544181  0.33633637  1
  H+  H81  1  0.68068885  0.31151911  0.61416033  1
  H+  H82  1  0.66652297  0.76288896  0.85246819  1
  H+  H83  1  0.45425875  0.08223196  0.33511264  1
  H+  H84  1  0.64020706  0.28968605  0.32264386  1
  H+  H85  1  0.36739980  0.74497543  0.83656545  1
  H+  H86  1  0.72845181  0.35923182  0.50886638  1
  H+  H87  1  0.37342400  0.13322838  0.51937934  1
  H+  H88  1  0.63057060  0.61706126  0.67602087  1
  H+  H89  1  0.13294023  0.85201376  0.65458569  1
  H+  H90  1  -0.05629633  0.36578120  0.66069503  1
  H+  H91  1  0.53258556  0.62060683  0.49745715  1
  H+  H92  1  0.36126674  0.63326221  0.68668859  1
  H+  H93  1  0.49473427  0.08705484  0.65476352  1
  H+  H94  1  0.00682757  0.86967652  0.00899173  1
  H+  H95  1  0.78110544  0.15778834  -0.00219043  1
  H+  H96  1  0.52814556  0.89168697  -0.00254277  1
  H+  H97  1  0.65258355  0.25550372  0.67386207  1
  H+  H98  1  0.32052829  0.17382071  0.37666651  1
  H+  H99  1  0.40191599  0.52807178  0.32172437  1
  H+  H100  1  0.35040306  0.87737372  0.69366565  1
  H+  H101  1  0.37968857  0.35114408  0.15328918  1
  H+  H102  1  0.72514646  0.86396815  0.66289802  1
  H+  H103  1  0.22803544  0.86552044  0.66037082  1
  H+  H104  1  0.47385655  0.37667420  0.86913920  1
  H+  H105  1  0.52008804  0.13587508  0.48683879  1
  H+  H106  1  0.74810303  0.87289325  0.50242753  1
  H+  H107  1  0.63333313  1.02983201  0.49454350  1
  H+  H108  1  0.66696251  0.59045954  -0.04363869  1
  H+  H109  1  0.10846290  0.09486196  0.31915928  1
  H+  H110  1  0.37423183  0.39318266  0.32785792  1
  H+  H111  1  0.76982150  0.14021335  0.49266277  1
  H+  H112  1  0.87065810  0.39109210  0.15968474  1
  H+  H113  1  0.28425460  0.13966129  0.85084321  1
  H+  H114  1  0.77569844  0.90631016  0.33193680  1
  H+  H115  1  0.99798714  0.13582563  1.00726856  1
  H+  H116  1  0.39194009  1.02349986  0.49798200  1
  H+  H117  1  0.86454138  0.11432121  0.99342557  1
  H+  H118  1  0.40992394  0.06786300  0.23631349  1
  H+  H119  1  0.37730868  0.14838660  0.33772630  1
  H+  H120  1  0.38545589  0.01518029  0.17363727  1
  H+  H121  1  0.65891226  0.57974693  0.61906785  1
  H+  H122  1  0.53963932  0.41488866  0.27950048  1
  H+  H123  1  0.83931444  0.95811935  0.49763378  1
  H+  H124  1  0.15434818  0.32629239  0.50631616  1
  H+  H125  1  0.70183785  0.67007773  0.33924400  1
  H+  H126  1  0.90931930  0.62241585  0.33914218  1
  H+  H127  1  0.11439023  0.88132024  0.15501560  1
  H+  H128  1  0.88450956  0.89862313  0.16087454  1
  H+  H129  1  0.97344972  0.85650102  0.84397270  1
  H+  H130  1  0.37658673  0.49803949  -0.02083696  1
  H+  H131  1  0.88735490  0.28935496  0.32855126  1
  H+  H132  1  0.43663287  0.06704282  0.56197024  1
  H+  H133  1  0.41552996  0.84063592  0.92334224  1
  H+  H134  1  0.81367282  -0.04670860  1.01311819  1
  H+  H135  1  0.11650401  0.63542544  0.15655859  1
  H+  H136  1  0.58854549  0.92436883  0.41833377  1
  H+  H137  1  0.58071662  0.82413846  0.89632784  1
  H+  H138  1  0.87745669  0.51871999  0.18884777  1
  H+  H139  1  0.58737580  0.40784712  0.45892328  1
  H+  H140  1  0.38715804  0.77245084  0.32089070  1
  H+  H141  1  0.90491477  0.82857123  0.26623198  1
  H+  H142  1  0.85214062  0.72386843  0.83389511  1
  H+  H143  1  0.67517563  0.33089925  0.25750885  1
  H+  H144  1  0.57673140  0.15403534  0.10241213  1
  H+  H145  1  -0.07768946  0.09779188  0.27756076  1
  H+  H146  1  0.89097290  0.03723580  0.33526823  1
  H+  H147  1  0.06622999  0.88936988  0.76023637  1
  H+  H148  1  0.21320419  0.62876843  0.50348813  1
  H+  H149  1  0.12818076  0.76723266  1.00083119  1
  H+  H150  1  0.85991309  0.89991946  0.33252135  1
  H+  H151  1  0.95743603  0.09903900  0.48763285  1
  H+  H152  1  0.13378691  0.10330949  0.17693844  1
  H+  H153  1  0.53655608  0.78718184  0.89064141  1
  H+  H154  1  0.62124753  0.37289590  0.51342238  1
  H+  H155  1  0.97825192  0.85667200  0.17410924  1
  H+  H156  1  0.77174740  0.39415170  0.33705440  1
  H+  H157  1  0.60817160  0.90729217  0.82879560  1
  H+  H158  1  0.38481454  0.37736208  0.49728127  1
  H+  H159  1  0.87538676  0.10890246  0.49906094  1
  H+  H160  1  0.22780742  0.86470843  0.16905743  1
  H+  H161  1  0.76556678  0.64053748  0.68380222  1
  H+  H162  1  0.89086644  0.38015294  0.32708593  1
  H+  H163  1  0.63408591  0.11874441  0.49775330  1
  H+  H164  1  0.14760004  0.25036347  0.65826481  1
  H+  H165  1  0.50418705  0.12833516  0.83088039  1
  H+  H166  1  0.07852752  0.09964910  0.50980014  1
  H+  H167  1  0.11671621  0.72458054  0.15873194  1
  H+  H168  1  0.86926368  0.85685094  0.99597974  1
  H+  H169  1  0.99367463  0.12586296  0.83166579  1
  H+  H170  1  0.37547257  0.65844507  0.84511478  1
  H+  H171  1  0.87267462  0.76192365  0.66259977  1
  H+  H172  1  0.51988041  0.12339918  0.16392410  1
  H+  H173  1  0.85038299  0.38690866  0.84800342  1
  H+  H174  1  0.88729824  0.76969449  0.17534407  1
  H+  H175  1  0.34937950  0.25139915  0.70417410  1
  H+  H176  1  0.11969382  0.64404728  0.00996341  1
  H+  H177  1  0.59456855  0.22041451  0.82769128  1
  H+  H178  1  0.17653805  0.07306507  0.34218859  1
  H+  H179  1  0.64225246  0.04591439  0.83810492  1
  H+  H180  1  0.75736726  0.60981278  0.50967337  1
  H+  H181  1  0.85757198  0.88044125  0.66674347  1
  H+  H182  1  0.41018438  0.29460886  0.31371765  1
  H+  H183  1  0.38141460  0.86795639  0.46002417  1
  H+  H184  1  0.88669579  0.61604882  1.00201097  1
  H+  H185  1  0.07151055  0.94055606  0.49122214  1
  H+  H186  1  0.22650723  0.60733175  0.66607535  1
  H+  H187  1  0.11509561  0.48392590  0.84281876  1
  H+  H188  1  0.64088164  0.25259945  0.17152524  1
  H+  H189  1  0.27875740  0.39209647  0.14042995  1
  H+  H190  1  0.77972486  0.15398179  0.85465543  1
  H+  H191  1  0.34126109  0.86851666  0.32947066  1
  H+  H192  1  0.93457732  0.83443781  0.49274769  1
  H+  H193  1  0.87607234  0.23768194  -0.01644963  1
  H+  H194  1  0.63217369  0.27488491  0.99912259  1
  H+  H195  1  0.85932899  0.63173714  0.17235176  1
  H+  H196  1  0.87915512  0.52960420  0.66680261  1
  H+  H197  1  0.02759153  0.12674150  0.66758418  1
  H+  H198  1  0.61852068  0.39522676  0.01216444  1
  H+  H199  1  0.79481194  0.88786477  0.82362311  1
  H+  H200  1  0.08249400  0.96863299  0.79747052  1
  H+  H201  1  0.36217644  0.49676572  0.83931274  1
  H+  H202  1  0.63689755  0.59610181  0.51823109  1
  H+  H203  1  0.46909054  0.86426815  0.46054031  1
  H+  H204  1  0.87871727  0.52025445  0.49924695  1
  H+  H205  1  0.39613728  0.38618482  0.96506943  1
  H+  H206  1  0.28757807  0.38947250  0.68171520  1
  H+  H207  1  0.14657461  0.28927836  -0.01798908  1
  H+  H208  1  0.47278436  0.85981426  0.16631554  1
  H+  H209  1  0.61068667  0.97332724  0.66921733  1
  H+  H210  1  0.36292895  0.88555393  0.83584135  1
  H+  H211  1  0.18300912  0.03756742  0.43956096  1
  H+  H212  1  0.26791836  0.12219777  0.16838516  1
  H+  H213  1  0.39732139  0.37469252  0.67356694  1
  H+  H214  1  0.07480168  0.39188370  0.69600994  1
  H+  H215  1  0.27043232  0.88723788  0.48563926  1
  H+  H216  1  0.03841419  0.39014522  -0.01208185  1
  H+  H217  1  0.38851480  0.13143040  0.68621724  1
  H+  H218  1  0.86019155  0.61492807  0.50004938  1
  H+  H219  1  0.85310873  0.63711911  0.67745006  1
  H+  H220  1  0.85070572  0.84035640  0.50685512  1
  H+  H221  1  0.23495567  0.37547813  0.32233644  1
  H+  H222  1  0.39921743  0.50290946  0.50689282  1
  H+  H223  1  -0.01235932  0.85738893  0.34270158  1
  H+  H224  1  0.33560555  0.66332677  0.08725023  1
  H+  H225  1  0.14441902  0.53105691  0.31613193  1
  H+  H226  1  0.59982270  0.38536699  0.84696381  1
  H+  H227  1  0.87696854  -0.01617348  0.81930420  1
  H+  H228  1  0.51841186  0.66775386  -0.01191281  1
  H+  H229  1  0.15117981  0.33896852  0.64621290  1
  H+  H230  1  0.16753696  0.33903564  0.89010059  1
  H+  H231  1  0.63482302  0.10276754  0.17449555  1
  H+  H232  1  0.39650482  0.58820008  0.49774378  1
  H+  H233  1  0.63993130  0.03611799  0.99092490  1
  H+  H234  1  0.12480590  0.64315040  0.68325451  1
  H+  H235  1  0.09591383  0.94856321  0.67966964  1
  H+  H236  1  0.37866584  0.76241920  0.68855985  1
  H+  H237  1  0.86559168  0.60203345  0.84662470  1
  H+  H238  1  0.89198967  0.86730232  0.84024510  1
  H+  H239  1  0.37766230  0.63754469  0.33413760  1
  H+  H240  1  0.26506981  0.15860180  0.71326117  1
  H+  H241  1  0.62783717  0.52014381  0.85972182  1
  H+  H242  1  0.62834298  0.41557238  0.28313685  1
  H+  H243  1  0.39035304  0.52390686  0.16286302  1
  H+  H244  1  0.62202081  0.63550289  0.16268439  1
  H+  H245  1  0.11505429  0.84869562  0.32005156  1
  H+  H246  1  0.50725349  0.35008403  0.15404826  1
  H+  H247  1  0.34259754  0.43663051  0.74179876  1
  H+  H248  1  0.84306569  0.76678916  0.31799763  1
  H+  H249  1  0.14094417  0.65306433  0.83655759  1
  H+  H250  1  0.35260330  0.73938981  0.46683646  1
  H+  H251  1  0.14095712  0.36533748  0.16198482  1
  H+  H252  1  0.41032345  0.82836150  0.26003837  1
  H+  H253  1  0.62645170  0.85426867  0.17037733  1
  H+  H254  1  0.09739094  0.48735836  0.68532765  1
  H+  H255  1  0.11610682  0.47365456  0.14915645  1
  H+  H256  1  0.00582441  0.86142107  0.66694534  1
  H+  H257  1  0.66990256  0.08304325  0.26535619  1
  H+  H258  1  0.17249882  0.57813592  0.22123092  1
  H+  H259  1  0.58759690  0.41359366  0.19022382  1
  H+  H260  1  0.18971519  0.06901652  0.64234623  1
  H+  H261  1  0.85539518  0.47666816  1.00705523  1
  H+  H262  1  0.40231920  0.82518302  0.63288252  1
  H+  H263  1  0.89781161  0.03113627  0.18446806  1
  H+  H264  1  0.60942520  0.62806739  0.84577674  1
  H+  H265  1  0.51920331  0.88868036  0.33085285  1
  H+  H266  1  0.13700376  0.86051676  0.84722709  1
  H+  H267  1  0.85870593  0.22288192  0.17118107  1
  H+  H268  1  0.89604459  0.27205179  0.87334333  1
  H+  H269  1  0.60924488  0.13979505  0.00848056  1
  H+  H270  1  0.62262603  0.90067126  0.00230990  1
  H+  H271  1  0.60956373  0.72888564  0.68751671  1
  H+  H272  1  0.61826888  0.71025815  0.50291850  1
  H+  H273  1  0.81421988  0.60560381  0.34290801  1
  H+  H274  1  0.10941614  0.96865007  0.15514476  1
  H+  H275  1  0.99230737  0.37284122  0.86631834  1
  H+  H276  1  0.80560678  0.38785572  0.68032409  1
  H+  H277  1  0.38471118  1.02450269  0.83793230  1
  H+  H278  1  0.63010533  0.76755178  0.17180174  1
  H+  H279  1  0.71684386  0.60998655  0.85213880  1
  H+  H280  1  -0.01860720  0.36379421  0.16868463  1
  H+  H281  1  0.72241840  0.36391672  -0.00409943  1
  H+  H282  1  0.52126031  0.88379333  0.68380053  1
  H+  H283  1  0.86094497  0.13596168  0.17811264  1
  H+  H284  1  0.15403963  0.14600739  -0.00307656  1
  H+  H285  1  0.72715014  0.10727887  0.17916201  1
  H+  H286  1  0.37005282  0.25604289  0.16494972  1
  H+  H287  1  0.10327424  0.86119495  1.00539910  1
  H+  H288  1  0.17605802  0.58203963  0.90709504  1
  H+  H289  1  0.09892038  0.72927504  0.48728818  1
  H+  H290  1  0.59501692  0.66829013  0.40120271  1
  H+  H291  1  0.39077020  0.78229399  0.98498832  1
  H+  H292  1  0.83107289  0.23522894  0.75476473  1
  H+  H293  1  0.07998043  0.16196423  0.11078078  1
  H+  H294  1  0.07811800  0.90941216  0.42259131  1
  H+  H295  1  0.17298175  0.10242798  0.56365133  1
  H+  H296  1  0.66508083  0.09770465  0.93277121  1
  H+  H297  1  0.92709281  0.34507896  0.23056317  1
  H+  H298  1  0.02360544  0.14729699  0.33635764  1
  H+  H299  1  0.06136149  0.42713486  0.78539327  1
  H+  H300  1  0.12972982  0.36555129  0.83457597  1
  H+  H301  1  0.61551352  0.13415405  0.32598487  1
  H+  H302  1  0.36373045  0.88732636  -0.00058408  1
  H+  H303  1  0.17406570  0.10431316  0.91292536  1
  H+  H304  1  0.60907020  0.88757032  0.32966303  1
  H+  H305  1  0.85737149  0.72216566  0.01539846  1
  H+  H306  1  0.15582471  0.83026197  0.93989552  1
  H+  H307  1  0.57794943  0.66207160  0.78833147  1
  H+  H308  1  0.85964778  0.39106419  0.48998567  1
  H+  H309  1  0.81536012  0.91168588  0.12593258  1
  H+  H310  1  0.41294396  0.33694386  0.24900311  1
  H+  H311  1  0.12375480  0.23596614  0.81978190  1
  H+  H312  1  0.83879573  0.92027108  0.72568343  1
  H+  H313  1  0.08762126  0.67030824  0.07112419  1
  H+  H314  1  0.36638469  0.15039818  -0.00898158  1
  H+  H315  1  0.65816234  0.49110468  0.38816663  1
  H+  H316  1  0.58124016  0.91905441  0.09758180  1
  H+  H317  1  0.11480094  0.68654551  0.77704265  1
  H+  H318  1  0.59257629  0.41732996  0.07546204  1
  H+  H319  1  0.77826515  0.38189163  0.16083401  1
  H+  H320  1  0.53308506  0.72779723  0.04323978  1
  H+  H321  1  0.33168109  0.66106508  0.74859575  1
  H+  H322  1  0.08978351  0.55595645  0.95968840  1
  H+  H323  1  0.41951705  0.58325627  0.60727613  1
  H+  H324  1  0.89891671  0.81486673  0.59881940  1
  H+  H325  1  0.61693936  0.89936849  0.48091915  1
  H+  H326  1  0.09911960  0.75543764  0.30744035  1
  H+  H327  1  0.82998087  0.17158936  0.43332295  1
  H+  H328  1  0.82821445  0.41926844  0.06606372  1
  H+  H329  1  0.35044929  0.41671447  0.39233546  1
  H+  H330  1  0.15244946  0.06093336  0.23396590  1
  H+  H331  1  0.17023204  0.83324182  0.56176503  1
  H+  H332  1  0.12274380  0.48532818  -0.00276638  1
  H+  H333  1  0.89597095  0.58036883  0.60406925  1
  H+  H334  1  0.35988038  0.12885560  0.16842550  1
  H+  H335  1  0.03444414  0.22079519  0.04281889  1
  H+  H336  1  0.41891061  0.08485139  0.93016062  1
  H+  H337  1  0.84773424  0.47375905  0.84089261  1
  H+  H338  1  0.90769126  0.83438070  0.93771433  1
  H+  H339  1  0.33721648  0.66030905  0.39127381  1
  H+  H340  1  0.56972035  0.42115673  0.79159401  1
  H+  H341  1  0.84299475  0.48813349  0.35317949  1
  H+  H342  1  0.82609539  0.42044016  0.43163706  1
  H+  H343  1  0.91081350  0.33524796  0.59271047  1
  H+  H344  1  0.33657733  0.18781506  0.79311600  1
  H+  H345  1  0.08526226  0.16217068  0.73021739  1
  H+  H346  1  0.90186336  0.57781737  0.90486348  1
  H+  H347  1  0.59374214  0.65826955  0.09870919  1
  H+  H348  1  0.66275641  0.80046563  1.00186135  1
  H+  H349  1  0.64702537  0.82120035  0.58071690  1
  H+  H350  1  0.60724645  0.48230044  0.70047501  1
  H+  H351  1  0.18906078  0.30438803  0.56583349  1
  H+  H352  1  0.65123386  0.07083842  0.59725724  1
  H+  H353  1  0.07247231  0.89988047  0.07013270  1
  H+  H354  1  0.48021196  0.61012540  0.16549051  1
  H+  H355  1  0.94469773  0.09415073  0.89371393  1
  H+  H356  1  0.44809908  0.84167070  0.56076439  1
  H+  H357  1  0.38347246  0.11752485  0.84140380  1
  H+  H358  1  0.71337191  0.83086260  0.90670737  1
  H+  H359  1  0.31545654  0.91522618  0.42032452  1
  H+  H360  1  0.61187125  0.48056218  0.38788878  1
  H+  H361  1  0.84604068  0.43103751  0.74219061  1
  H+  H362  1  0.16654754  0.05770978  0.56007341  1
  H+  H363  1  0.66056218  0.83340867  0.26332952  1
  H+  H364  1  0.27311237  0.88496326  1.00434064  1
  H+  H365  1  0.93810380  0.59430137  0.23505602  1
  H+  H366  1  0.58762177  0.93408275  0.76537339  1
  H+  H367  1  0.16217203  0.83326970  0.22657945  1
  H+  H368  1  0.43042011  0.79353828  0.56060852  1
  H+  H369  1  0.29575619  0.37303647  0.48991065  1
  H+  H370  1  0.84775887  0.04292496  0.94425607  1
  H+  H371  1  0.16726026  0.58603165  0.60539497  1
  H+  H372  1  0.83421223  0.66197481  0.10881680  1
  H+  H373  1  0.87606944  0.27058155  0.76053795  1
  H+  H374  1  0.41960903  0.33218172  0.61754941  1
  H+  H375  1  0.72974766  0.65134071  0.27687766  1
  H+  H376  1  0.34111684  0.42737333  0.08210146  1
  H+  H377  1  0.28812469  0.40769307  -0.01589740  1
  H+  H378  1  0.33404832  0.91577256  0.09659118  1
  H+  H379  1  0.57675032  0.17179638  0.42597292  1
  H+  H380  1  0.52059038  0.64072893  0.68583416  1
  H+  H381  1  0.07938965  0.43442173  0.42276875  1
  H+  H382  1  0.08571389  0.41401187  0.08978969  1
  H+  H383  1  0.92441237  0.07555870  0.59005975  1
  O2-  O384  1  0.08833960  0.16631581  0.15512698  1
  O2-  O385  1  0.09161745  0.14077973  0.47678928  1
  O2-  O386  1  0.09552215  0.17407272  0.80618238  1
  O2-  O387  1  0.08545075  0.41191921  0.13525206  1
  O2-  O388  1  0.07414487  0.43993923  0.46913767  1
  O2-  O389  1  0.07249987  0.42192931  0.82938024  1
  O2-  O390  1  0.08655333  0.66578451  0.14161744  1
  O2-  O391  1  0.06517858  0.66774541  0.47435790  1
  O2-  O392  1  0.11873953  0.69063250  0.82266966  1
  O2-  O393  1  0.08006164  0.90811944  0.13916861  1
  O2-  O394  1  0.10945348  0.93304129  0.46355266  1
  O2-  O395  1  0.07242640  0.91054998  0.80358938  1
  O2-  O396  1  0.32798644  0.15721397  0.15430154  1
  O2-  O397  1  0.33898646  0.16317270  0.52006076  1
  O2-  O398  1  0.34339090  0.16817582  0.83461836  1
  O2-  O399  1  0.33985609  0.42197359  0.12716934  1
  O2-  O400  1  0.35640244  0.40810320  0.47728576  1
  O2-  O401  1  0.33221255  0.44771823  0.81141232  1
  O2-  O402  1  0.33676148  0.66595803  0.13260696  1
  O2-  O403  1  0.31766493  0.67331602  0.47516159  1
  O2-  O404  1  0.34235121  0.68013494  0.82295558  1
  O2-  O405  1  0.33219980  0.91443881  0.14214956  1
  O2-  O406  1  0.32726533  0.92208518  0.46508816  1
  O2-  O407  1  0.33400584  0.92062885  0.82015704  1
  O2-  O408  1  0.58020661  0.15110480  0.14814271  1
  O2-  O409  1  0.58106794  0.17076759  0.47031273  1
  O2-  O410  1  0.56761662  0.15887575  0.81583512  1
  O2-  O411  1  0.57155136  0.37981746  0.15165664  1
  O2-  O412  1  0.58802535  0.40489216  0.50317513  1
  O2-  O413  1  0.56997549  0.41872685  0.83790364  1
  O2-  O414  1  0.58648984  0.65756506  0.14293170  1
  O2-  O415  1  0.59412803  0.65238886  0.48455923  1
  O2-  O416  1  0.58194981  0.66370300  0.83330988  1
  O2-  O417  1  0.57706099  0.91287258  0.14262885  1
  O2-  O418  1  0.58552062  0.92634600  0.46451557  1
  O2-  O419  1  0.58568169  0.94142292  0.81066909  1
  O2-  O420  1  0.82531667  0.16023974  0.16354534  1
  O2-  O421  1  0.83133877  0.16879905  0.47892305  1
  O2-  O422  1  0.84341711  0.18352069  0.86090290  1
  O2-  O423  1  0.83864999  0.42108793  0.14808076  1
  O2-  O424  1  0.82811848  0.42181567  0.47771852  1
  O2-  O425  1  0.81991782  0.41109203  0.82638688  1
  O2-  O426  1  0.83429949  0.66623342  0.15435857  1
  O2-  O427  1  0.81598928  0.64235961  0.48869611  1
  O2-  O428  1  0.81842170  0.66374517  0.81929165  1
  O2-  O429  1  0.87306100  0.94288439  0.14292176  1
  O2-  O430  1  0.80890833  0.89471095  0.49402625  1
  O2-  O431  1  0.85193628  0.92505154  0.80245879  1
  O2-  O432  1  0.15776568  0.06602550  0.18891051  1
  O2-  O433  1  0.21318979  0.09867116  0.42551759  1
  O2-  O434  1  0.17307577  0.09515040  0.86610383  1
  O2-  O435  1  0.17453714  0.33820692  0.17775528  1
  O2-  O436  1  0.18794760  0.30048452  0.51970492  1
  O2-  O437  1  0.16362725  0.33702562  0.84432849  1
  O2-  O438  1  0.16710138  0.57532660  0.17519789  1
  O2-  O439  1  0.15538357  0.59831885  0.52309594  1
  O2-  O440  1  0.17769591  0.57971258  0.86023455  1
  O2-  O441  1  0.16587775  0.83547155  0.18107133  1
  O2-  O442  1  0.16786938  0.83112584  0.51586238  1
  O2-  O443  1  0.16920462  0.83724450  0.86797677  1
  O2-  O444  1  0.41747161  0.07439953  0.19145867  1
  O2-  O445  1  0.42809958  0.08030350  0.51785931  1
  O2-  O446  1  0.41573969  0.08474451  0.85375920  1
  O2-  O447  1  0.40468482  0.32021253  0.17466350  1
  O2-  O448  1  0.42156972  0.32816656  0.53752948  1
  O2-  O449  1  0.41276231  0.35378825  0.88435203  1
  O2-  O450  1  0.41972852  0.58308251  0.18049942  1
  O2-  O451  1  0.42598298  0.56490852  0.52148383  1
  O2-  O452  1  0.42452505  0.60072231  0.88428537  1
  O2-  O453  1  0.41170310  0.82851548  0.18098943  1
  O2-  O454  1  0.40737253  0.83159313  0.44998843  1
  O2-  O455  1  0.40371157  0.83544022  0.85734654  1
  O2-  O456  1  0.66394661  0.07253070  0.19190935  1
  O2-  O457  1  0.66338813  0.08794629  0.51348247  1
  O2-  O458  1  0.67046383  0.10485849  0.85573954  1
  O2-  O459  1  0.67020946  0.31443344  0.18464165  1
  O2-  O460  1  0.66922783  0.32585241  0.52652055  1
  O2-  O461  1  0.64920711  0.32720032  0.85857101  1
  O2-  O462  1  0.68301119  0.60841342  0.20693187  1
  O2-  O463  1  0.66612880  0.56835524  0.53928920  1
  O2-  O464  1  0.65879414  0.58288137  0.87131911  1
  O2-  O465  1  0.65733175  0.82660991  0.18828316  1
  O2-  O466  1  0.63248458  0.81167945  0.53503925  1
  O2-  O467  1  0.71609083  0.82049362  0.86308124  1
  O2-  O468  1  0.92260298  0.08999504  0.20283767  1
  O2-  O469  1  0.90348842  0.07414954  0.51040761  1
  O2-  O470  1  0.93428578  0.09420921  0.85003069  1
  O2-  O471  1  0.92212892  0.33738683  0.18573322  1
  O2-  O472  1  0.90902260  0.33871659  0.51199763  1
  O2-  O473  1  0.93115858  0.33842621  0.88688715  1
  O2-  O474  1  0.88538986  0.57049601  0.21084485  1
  O2-  O475  1  0.90576743  0.58200106  0.51466565  1
  O2-  O476  1  0.89343625  0.56936304  0.86023460  1
  O2-  O477  1  0.91850912  0.83106798  0.18994537  1
  O2-  O478  1  0.88212350  0.80682649  0.51671223  1
  O2-  O479  1  0.91472383  0.83317286  0.86093257  1
  O2-  O480  1  0.13054105  0.05428324  0.31156504  1
  O2-  O481  1  0.16316962  0.06019689  0.68237688  1
  O2-  O482  1  0.17664508  0.11062798  0.98146811  1
  O2-  O483  1  0.17496005  0.34857388  0.30652490  1
  O2-  O484  1  0.18412951  0.31020664  0.63949274  1
  O2-  O485  1  0.17667841  0.34747227  0.96513452  1
  O2-  O486  1  0.18053966  0.58531133  0.29426770  1
  O2-  O487  1  0.16656247  0.57816222  0.65008911  1
  O2-  O488  1  0.14722320  0.57344970  0.97514650  1
  O2-  O489  1  0.14436330  0.81915372  0.30298439  1
  O2-  O490  1  0.17215564  0.83298422  0.63775990  1
  O2-  O491  1  0.15263803  0.82983958  0.98629226  1
  O2-  O492  1  0.39776882  0.06256802  0.31645866  1
  O2-  O493  1  0.45048316  0.04332099  0.62667530  1
  O2-  O494  1  0.41808719  0.08679156  0.97591564  1
  O2-  O495  1  0.42805631  0.35077908  0.29343168  1
  O2-  O496  1  0.42042280  0.33626212  0.66273419  1
  O2-  O497  1  0.42412566  0.35304438  0.94993836  1
  O2-  O498  1  0.43405702  0.58890700  0.30741816  1
  O2-  O499  1  0.41772645  0.58730712  0.65191754  1
  O2-  O500  1  0.42474074  0.60043626  0.95232493  1
  O2-  O501  1  0.41119890  0.83234543  0.30547738  1
  O2-  O502  1  0.40877080  0.82551302  0.67697126  1
  O2-  O503  1  0.42240075  0.84304871  0.97180627  1
  O2-  O504  1  0.66994904  0.08775576  0.31148635  1
  O2-  O505  1  0.65853396  0.06665154  0.64154327  1
  O2-  O506  1  0.66765571  0.09729110  0.97836072  1
  O2-  O507  1  0.67318319  0.34536189  0.30195445  1
  O2-  O508  1  0.69776439  0.31073187  0.65636600  1
  O2-  O509  1  0.66092025  0.33309669  0.98063680  1
  O2-  O510  1  0.75077042  0.66925044  0.31946575  1
  O2-  O511  1  0.66132458  0.58591271  0.66395221  1
  O2-  O512  1  0.67318266  0.59148228  1.00107357  1
  O2-  O513  1  0.66356848  0.84131844  0.30905988  1
  O2-  O514  1  0.66259064  0.83123875  0.65152197  1
  O2-  O515  1  0.70315930  0.86002769  0.98583757  1
  O2-  O516  1  0.92401847  0.10073990  0.32337748  1
  O2-  O517  1  0.93113461  0.07735925  0.63501721  1
  O2-  O518  1  0.87985210  0.06606377  0.98193800  1
  O2-  O519  1  0.92088125  0.34933982  0.31287094  1
  O2-  O520  1  0.90585504  0.31645184  0.63537628  1
  O2-  O521  1  0.94211410  0.33495194  0.95356899  1
  O2-  O522  1  1.01649580  0.66202598  0.31310846  1
  O2-  O523  1  0.89263445  0.58611852  0.64804569  1
  O2-  O524  1  0.91606056  0.58642870  0.98400794  1
  O2-  O525  1  0.89459131  0.82513061  0.31132279  1
  O2-  O526  1  0.90473607  0.82222574  0.64349199  1
  O2-  O527  1  0.90707779  0.83449105  0.98345608  1
  O2-  O528  1  0.05150413  0.18116964  0.02628523  1
  O2-  O529  1  0.08844005  0.17455589  0.34361594  1
  O2-  O530  1  0.08788132  0.15652952  0.68477027  1
  O2-  O531  1  0.09556592  0.41980418  0.00942361  1
  O2-  O532  1  0.08401404  0.42457377  0.35337159  1
  O2-  O533  1  0.05725819  0.43290871  0.70763325  1
  O2-  O534  1  0.08852765  0.67411140  0.02440689  1
  O2-  O535  1  0.03529508  0.61184182  0.35321322  1
  O2-  O536  1  0.10494183  0.67946396  0.70268250  1
  O2-  O537  1  0.06795857  0.89297900  0.02325498  1
  O2-  O538  1  0.05035274  0.89053296  0.35543807  1
  O2-  O539  1  0.06508805  0.88507205  0.68480502  1
  O2-  O540  1  0.33948913  0.18547627  0.00050213  1
  O2-  O541  1  0.37308279  0.19813602  0.35249555  1
  O2-  O542  1  0.30448305  0.21255742  0.73361433  1
  O2-  O543  1  0.34910685  0.43836713  -0.00242966  1
  O2-  O544  1  0.34415896  0.42138405  0.34800138  1
  O2-  O545  1  0.34607571  0.42988144  0.69588615  1
  O2-  O546  1  0.32843543  0.66326629  0.00624707  1
  O2-  O547  1  0.34393399  0.66548032  0.34681810  1
  O2-  O548  1  0.32775315  0.65948251  0.70257385  1
  O2-  O549  1  0.33363240  0.91664706  0.01773163  1
  O2-  O550  1  0.30814060  0.89640104  0.34381820  1
  O2-  O551  1  0.32262424  0.91272765  0.69929417  1
  O2-  O552  1  0.57712501  0.16613085  0.02727955  1
  O2-  O553  1  0.57935289  0.16292539  0.33277185  1
  O2-  O554  1  0.57828600  0.15001590  0.69831966  1
  O2-  O555  1  0.59537160  0.42939611  0.03146855  1
  O2-  O556  1  0.60039107  0.44568456  0.26474246  1
  O2-  O557  1  0.57785799  0.42479676  0.71949137  1
  O2-  O558  1  0.56427969  0.70828560  0.01775112  1
  O2-  O559  1  0.60131799  0.67711158  0.35668948  1
  O2-  O560  1  0.57940061  0.66917369  0.70369768  1
  O2-  O561  1  0.58714403  0.92489743  0.01628358  1
  O2-  O562  1  0.58011303  0.91969249  0.34554065  1
  O2-  O563  1  0.58447401  0.91526519  0.69093209  1
  O2-  O564  1  0.84316254  0.18154764  0.00618872  1
  O2-  O565  1  0.83562579  0.18088325  0.35605494  1
  O2-  O566  1  0.82332742  0.14843236  0.65597329  1
  O2-  O567  1  0.82107636  0.41638041  0.02127552  1
  O2-  O568  1  0.82928745  0.42667454  0.35688998  1
  O2-  O569  1  0.85839108  0.43626893  0.69814764  1
  O2-  O570  1  0.83194118  0.66338330  0.03169989  1
  O2-  O571  1  0.85265682  0.58631256  0.35901682  1
  O2-  O572  1  0.82792054  0.67261749  0.69514967  1
  O2-  O573  1  0.78405368  0.88993851  0.02034690  1
  O2-  O574  1  0.83613456  0.93637505  0.34623856  1
  O2-  O575  1  0.83186447  0.91594603  0.68025850  1
