# generated using pymatgen
data_H2O
_symmetry_space_group_name_H-M   'P 1'
_cell_length_a   17.99597027
_cell_length_b   17.99408699
_cell_length_c   22.00969982
_cell_angle_alpha   90.00690964
_cell_angle_beta   89.98575473
_cell_angle_gamma   119.99399253
_symmetry_Int_Tables_number   1
_chemical_formula_structural   H2O
_chemical_formula_sum   'H384 O192'
_cell_volume   6172.71331892
_cell_formula_units_Z   192
loop_
 _symmetry_equiv_pos_site_id
 _symmetry_equiv_pos_as_xyz
  1  'x, y, z'
loop_
 _atom_type_symbol
 _atom_type_oxidation_number
  H+  1.0
  O2-  -2.0
loop_
 _atom_site_type_symbol
 _atom_site_label
 _atom_site_symmetry_multiplicity
 _atom_site_fract_x
 _atom_site_fract_y
 _atom_site_fract_z
 _atom_site_occupancy
  H+  H0  1  0.26464952  0.37641209  0.67248037  1
  H+  H1  1  0.83516382  0.91731258  0.72865124  1
  H+  H2  1  0.09647813  0.18032555  0.10302280  1
  H+  H3  1  0.13633131  0.36913271  0.32696958  1
  H+  H4  1  0.61661616  0.48125324  0.82754029  1
  H+  H5  1  0.86504230  0.88374821  0.17570012  1
  H+  H6  1  0.16966631  0.57733725  0.27276587  1
  H+  H7  1  0.11562355  0.50900943  0.66097080  1
  H+  H8  1  0.14367097  0.86095414  0.65962071  1
  H+  H9  1  0.61584371  0.89019785  0.83073429  1
  H+  H10  1  0.51236088  0.89520685  0.01049519  1
  H+  H11  1  0.35320647  0.13826464  0.33089404  1
  H+  H12  1  0.61626149  0.73486297  0.00740354  1
  H+  H13  1  0.72310865  0.86711754  0.84071085  1
  H+  H14  1  0.47703792  0.35679867  0.51463772  1
  H+  H15  1  0.45162428  0.07314597  0.99720177  1
  H+  H16  1  0.62089175  0.72981009  0.82334714  1
  H+  H17  1  0.35763506  0.39532233  0.33315432  1
  H+  H18  1  0.28226294  0.88224979  0.67368436  1
  H+  H19  1  0.36809025  0.39796746  0.00632683  1
  H+  H20  1  0.38770003  0.00774321  0.65730895  1
  H+  H21  1  0.37924582  0.78735294  1.00647410  1
  H+  H22  1  0.14537505  0.75765788  0.50810555  1
  H+  H23  1  0.47907296  0.36644493  0.84066897  1
  H+  H24  1  0.88368313  0.27714131  0.84713300  1
  H+  H25  1  0.81829873  0.68660673  0.05906150  1
  H+  H26  1  0.37067257  0.65141526  0.67246092  1
  H+  H27  1  0.14045039  0.78360780  0.99356638  1
  H+  H28  1  0.12603067  0.12822952  0.32957546  1
  H+  H29  1  0.72942361  0.37593523  0.51384538  1
  H+  H30  1  0.60309906  0.38266379  0.67572277  1
  H+  H31  1  0.37725208  0.73761523  0.49558389  1
  H+  H32  1  0.39349805  0.87311013  0.84191351  1
  H+  H33  1  0.39146936  0.65444185  0.16635891  1
  H+  H34  1  0.03375920  0.64449480  0.01183931  1
  H+  H35  1  0.16790645  0.32844265  0.90202573  1
  H+  H36  1  1.03248090  0.39627137  1.01169371  1
  H+  H37  1  0.98761790  0.86905120  0.68207055  1
  H+  H38  1  0.86864938  0.97341243  0.47502943  1
  H+  H39  1  0.37815593  0.65712499  1.01501991  1
  H+  H40  1  0.73070064  0.87949941  0.99636732  1
  H+  H41  1  0.28238679  0.40013869  0.16165020  1
  H+  H42  1  0.87390965  0.78743301  0.83971698  1
  H+  H43  1  0.65194073  0.33852206  0.32080855  1
  H+  H44  1  0.59561020  0.40448873  0.35644128  1
  H+  H45  1  0.11770709  0.70941000  0.33571433  1
  H+  H46  1  0.14200470  0.78477648  0.82950376  1
  H+  H47  1  0.87564337  0.13453322  0.48894823  1
  H+  H48  1  0.64228946  0.02496567  0.84489411  1
  H+  H49  1  0.56479789  0.17735414  -0.02518251  1
  H+  H50  1  0.87011694  0.22804246  0.16315232  1
  H+  H51  1  0.87061924  0.46251591  0.34836450  1
  H+  H52  1  0.66911539  0.69971162  0.12823443  1
  H+  H53  1  0.49223435  0.86607775  0.50824743  1
  H+  H54  1  0.27138846  0.39868974  0.33317291  1
  H+  H55  1  0.58159634  0.93039004  0.73715800  1
  H+  H56  1  0.88509831  0.35560284  0.64367057  1
  H+  H57  1  0.39070828  0.53623267  0.32315792  1
  H+  H58  1  0.61067358  0.63607141  0.66578441  1
  H+  H59  1  0.02713422  0.12750659  0.66690827  1
  H+  H60  1  0.02475219  0.38203088  0.34386760  1
  H+  H61  1  0.03706061  0.13409132  0.00907407  1
  H+  H62  1  0.62340726  0.96856335  0.49277996  1
  H+  H63  1  0.64316240  0.62210997  0.83240967  1
  H+  H64  1  0.86270977  0.71795260  0.68058853  1
  H+  H65  1  0.46272751  0.36704197  0.32848540  1
  H+  H66  1  0.40622389  0.51489690  0.84771898  1
  H+  H67  1  0.28926806  0.64648869  0.49278874  1
  H+  H68  1  0.27333387  0.38198649  0.82988419  1
  H+  H69  1  0.14232202  0.10817844  0.99280588  1
  H+  H70  1  0.66341436  0.24001022  0.50673528  1
  H+  H71  1  0.14026179  1.02677701  0.66107188  1
  H+  H72  1  0.77618482  0.91022192  0.15262222  1
  H+  H73  1  0.13219228  0.34645829  0.84029069  1
  H+  H74  1  0.32858231  0.11458120  0.49246858  1
  H+  H75  1  0.64916259  0.39375856  0.16385081  1
  H+  H76  1  0.40042713  0.07770417  0.25798038  1
  H+  H77  1  0.14531632  0.28642698  0.16823454  1
  H+  H78  1  0.40144292  0.78576421  0.66106364  1
  H+  H79  1  0.15902603  0.61664259  0.17445254  1
  H+  H80  1  0.37283791  0.73791072  0.83177834  1
  H+  H81  1  0.88450790  0.47929189  0.16868596  1
  H+  H82  1  0.50437569  0.85397699  0.35460995  1
  H+  H83  1  -0.00294214  0.88929462  0.47953669  1
  H+  H84  1  0.50204118  0.87600552  0.16459117  1
  H+  H85  1  0.24656988  0.61623494  0.18229917  1
  H+  H86  1  0.89668096  0.27867496  0.99983891  1
  H+  H87  1  0.77791866  0.15278601  0.83651459  1
  H+  H88  1  0.88787151  0.54906661  0.85218722  1
  H+  H89  1  0.12302808  0.64298173  0.00783811  1
  H+  H90  1  0.64078720  0.10621241  0.16562397  1
  H+  H91  1  0.89053240  0.61132093  0.50011695  1
  H+  H92  1  0.61563803  0.48246430  0.16448361  1
  H+  H93  1  0.01202319  0.92161643  0.15108821  1
  H+  H94  1  0.22913148  0.37066183  0.50066111  1
  H+  H95  1  0.77533515  0.88769291  0.47629505  1
  H+  H96  1  0.39194956  0.37223033  0.17143806  1
  H+  H97  1  0.17614125  0.09640233  0.22060118  1
  H+  H98  1  0.90474297  0.60344968  0.33481761  1
  H+  H99  1  0.65198378  0.29220446  1.00852117  1
  H+  H100  1  0.13815663  0.86575929  0.13809853  1
  H+  H101  1  0.88580864  0.35418372  0.50642741  1
  H+  H102  1  0.76963743  0.64326975  -0.00129103  1
  H+  H103  1  0.86848931  0.90436934  0.34052272  1
  H+  H104  1  0.73979078  0.38014243  0.00302048  1
  H+  H105  1  0.51527515  0.12321008  0.15592889  1
  H+  H106  1  0.33213459  0.98781708  0.50679535  1
  H+  H107  1  0.43134004  0.84200744  0.56842001  1
  H+  H108  1  0.36848919  -0.02864005  0.33403993  1
  H+  H109  1  0.61331938  -0.00214763  0.68289718  1
  H+  H110  1  0.83889270  0.60970193  0.15461163  1
  H+  H111  1  0.89768413  0.37438840  0.85628873  1
  H+  H112  1  0.10648410  0.45042106  0.80908903  1
  H+  H113  1  0.35743327  0.50721767  0.65146877  1
  H+  H114  1  0.39753816  0.28460117  0.99435147  1
  H+  H115  1  0.35800767  0.23071261  0.33371510  1
  H+  H116  1  0.87454142  0.26256083  0.66349701  1
  H+  H117  1  0.64392274  0.14605920  0.51420543  1
  H+  H118  1  0.39224115  0.11458433  0.84213013  1
  H+  H119  1  0.09689309  0.88437967  0.00561489  1
  H+  H120  1  0.38508335  0.25799232  0.51212344  1
  H+  H121  1  0.75791447  0.37849802  0.66254747  1
  H+  H122  1  0.86743335  0.86225110  0.47433944  1
  H+  H123  1  0.64040853  0.78780746  0.32521999  1
  H+  H124  1  0.58913195  0.67443918  0.72252477  1
  H+  H125  1  0.35599639  0.68885067  0.73411888  1
  H+  H126  1  0.61533736  0.39961492  0.00996768  1
  H+  H127  1  0.17685079  0.75514020  0.18439636  1
  H+  H128  1  0.02903458  0.63468418  0.49413905  1
  H+  H129  1  0.15623891  0.81863176  0.37826720  1
  H+  H130  1  0.89252560  0.35260998  0.33161577  1
  H+  H131  1  0.72217484  0.60426777  0.50010179  1
  H+  H132  1  0.76284652  0.63490387  0.82820017  1
  H+  H133  1  0.96833258  0.60691810  0.65773653  1
  H+  H134  1  0.86398521  0.89284359  0.83072428  1
  H+  H135  1  0.11977166  0.13614307  0.66788184  1
  H+  H136  1  0.21708164  0.11791271  0.50087450  1
  H+  H137  1  0.12326509  0.22539784  0.00762341  1
  H+  H138  1  0.60204609  -0.11533317  0.34180986  1
  H+  H139  1  0.12287975  0.48214790  0.16370190  1
  H+  H140  1  0.72090347  0.60335411  0.65949448  1
  H+  H141  1  0.08378237  0.89463832  0.49674664  1
  H+  H142  1  0.13868423  0.03747385  0.33231517  1
  H+  H143  1  0.61311903  0.13154595  0.00199381  1
  H+  H144  1  0.86958732  0.22136142  0.48977471  1
  H+  H145  1  0.38951280  0.53909186  1.00048820  1
  H+  H146  1  0.52362903  0.39529905  0.00863593  1
  H+  H147  1  0.92352118  0.60884983  0.19266822  1
  H+  H148  1  0.12982351  0.35315544  0.65413764  1
  H+  H149  1  0.38616423  0.26557648  0.66237022  1
  H+  H150  1  0.46765895  0.11366403  0.30958133  1
  H+  H151  1  0.34755393  0.13283785  0.00098337  1
  H+  H152  1  0.15895662  0.57666763  0.60731101  1
  H+  H153  1  0.64499737  0.86040074  0.49751967  1
  H+  H154  1  0.23535128  0.11577125  0.83759896  1
  H+  H155  1  0.86927206  0.63828364  0.83067246  1
  H+  H156  1  0.64971667  0.25695083  0.29229053  1
  H+  H157  1  0.37441352  0.88471120  0.66947772  1
  H+  H158  1  0.29708303  0.87309029  0.16234320  1
  H+  H159  1  0.40508661  0.87299532  0.16696047  1
  H+  H160  1  0.23280812  0.36964557  0.99520566  1
  H+  H161  1  0.52832071  0.64730774  0.34014179  1
  H+  H162  1  0.78343176  0.37314821  0.33972490  1
  H+  H163  1  0.90407787  0.14972621  0.34162419  1
  H+  H164  1  0.72107981  0.10019428  1.00068863  1
  H+  H165  1  0.98349163  0.11252555  0.49351809  1
  H+  H166  1  0.87680388  0.78129420  -0.01340149  1
  H+  H167  1  0.91644977  0.11802673  0.97391418  1
  H+  H168  1  0.98282075  0.36794433  0.17469797  1
  H+  H169  1  0.35728752  0.80163268  0.33592688  1
  H+  H170  1  0.87380141  0.14152594  0.17161474  1
  H+  H171  1  0.14283254  0.11161035  0.83333751  1
  H+  H172  1  0.73358804  0.11140808  0.16702148  1
  H+  H173  1  0.35554384  0.38113338  0.67264268  1
  H+  H174  1  0.87892751  0.51763432  0.65469430  1
  H+  H175  1  0.38637337  0.88857923  0.49166386  1
  H+  H176  1  0.10110056  0.66871943  0.10103844  1
  H+  H177  1  0.85333358  0.60110431  0.12449425  1
  H+  H178  1  0.37097378  -0.01919718  0.82414838  1
  H+  H179  1  0.85672698  0.62654885  0.67561200  1
  H+  H180  1  0.73905269  0.14068812  0.67664435  1
  H+  H181  1  -0.00273335  0.86871485  0.32376772  1
  H+  H182  1  0.62906154  0.73356370  0.48954910  1
  H+  H183  1  0.62953186  0.62328716  0.33386525  1
  H+  H184  1  0.87083116  0.38492837  0.16473859  1
  H+  H185  1  0.14487492  0.03114020  0.16609236  1
  H+  H186  1  0.11584198  0.38876499  0.49570122  1
  H+  H187  1  0.89173650  0.00477292  0.65276593  1
  H+  H188  1  0.63554151  0.86142603  0.16834553  1
  H+  H189  1  0.11579829  0.55780672  0.87630804  1
  H+  H190  1  0.12415420  1.03307176  0.50154147  1
  H+  H191  1  0.64101217  0.77502417  0.17104258  1
  H+  H192  1  0.14278903  0.36634826  0.99696101  1
  H+  H193  1  0.53722668  0.64538658  0.49248781  1
  H+  H194  1  0.13770600  0.89789535  0.82084332  1
  H+  H195  1  0.43574928  0.58102887  0.90322850  1
  H+  H196  1  0.09974804  0.65204257  0.82020652  1
  H+  H197  1  0.11958015  0.21683882  0.82734474  1
  H+  H198  1  0.60105339  0.47745504  0.50386235  1
  H+  H199  1  0.34637690  0.90064808  0.09685875  1
  H+  H200  1  0.63974946  0.61635664  0.50379434  1
  H+  H201  1  0.37152565  0.23004345  0.82754381  1
  H+  H202  1  0.62802447  0.27249459  0.66425191  1
  H+  H203  1  0.09843550  0.62273003  0.67109261  1
  H+  H204  1  0.09261686  0.93243500  0.75727890  1
  H+  H205  1  0.28297154  0.13455161  0.16002126  1
  H+  H206  1  0.52933743  0.89440633  0.83470710  1
  H+  H207  1  0.53904288  0.63516433  0.82535999  1
  H+  H208  1  0.71968172  0.02748838  0.56067846  1
  H+  H209  1  0.64000762  0.11334346  0.84690978  1
  H+  H210  1  0.96538096  0.86970466  0.98763017  1
  H+  H211  1  0.17710491  0.85935967  0.50700470  1
  H+  H212  1  0.04274575  0.97735795  0.71700475  1
  H+  H213  1  0.47083333  0.12138618  0.51033122  1
  H+  H214  1  0.82625037  0.64314203  0.29147464  1
  H+  H215  1  0.47918437  0.36842223  0.17292991  1
  H+  H216  1  0.13345620  0.51442817  0.33141333  1
  H+  H217  1  0.48633703  0.88159752  0.66193571  1
  H+  H218  1  0.13118727  0.87731515  0.16951290  1
  H+  H219  1  0.28495874  0.65283870  0.82341760  1
  H+  H220  1  0.85173724  0.15420021  0.69975762  1
  H+  H221  1  0.73445548  0.85637359  0.64708577  1
  H+  H222  1  0.85374582  0.71646158  0.46988257  1
  H+  H223  1  0.84783268  0.90386635  0.00891492  1
  H+  H224  1  0.36381113  0.48670743  0.48787414  1
  H+  H225  1  0.50095627  0.62618004  0.16945499  1
  H+  H226  1  0.99321391  0.60111430  0.34067991  1
  H+  H227  1  0.86978419  0.87815747  0.67823734  1
  H+  H228  1  0.01034210  0.36771915  0.66229467  1
  H+  H229  1  0.36678646  0.13278471  0.66987062  1
  H+  H230  1  0.52574482  0.13616253  0.68483774  1
  H+  H231  1  0.58405959  0.41736876  0.77062488  1
  H+  H232  1  0.71440708  0.61423948  0.33439569  1
  H+  H233  1  0.15069109  0.61438682  0.50960379  1
  H+  H234  1  0.13634199  0.99146259  0.82609922  1
  H+  H235  1  1.02655394  0.38858365  0.49668278  1
  H+  H236  1  0.88708908  0.08927916  0.64189028  1
  H+  H237  1  0.90317664  0.84532297  0.90085428  1
  H+  H238  1  0.60570694  0.97863989  0.00509448  1
  H+  H239  1  0.74975125  0.10232227  0.51317226  1
  H+  H240  1  0.04929636  0.63370442  0.16480766  1
  H+  H241  1  0.40492813  0.62820264  0.49967077  1
  H+  H242  1  0.10568633  0.71656830  0.66827943  1
  H+  H243  1  0.50898409  0.15758176  0.52606689  1
  H+  H244  1  0.59647255  0.49187600  0.35063846  1
  H+  H245  1  0.62088375  0.23279134  0.83641975  1
  H+  H246  1  0.89394210  1.02394989  -0.00473093  1
  H+  H247  1  0.77862768  0.40365433  0.85001826  1
  H+  H248  1  0.11954201  0.39211997  0.16074585  1
  H+  H249  1  0.89956879  0.62796369  1.00222620  1
  H+  H250  1  0.87202518  0.39475259  0.00984136  1
  H+  H251  1  0.64273227  0.37178778  0.84701875  1
  H+  H252  1  0.58059675  0.90825764  0.43244211  1
  H+  H253  1  0.47971155  0.62697394  -0.00000974  1
  H+  H254  1  0.11400912  0.23693068  0.48260438  1
  H+  H255  1  0.64630055  0.57645522  0.23712869  1
  H+  H256  1  0.36762119  0.22950500  0.15951420  1
  H+  H257  1  0.38786935  0.36282793  0.83858941  1
  H+  H258  1  0.82349781  0.66182584  0.76526316  1
  H+  H259  1  0.63407629  0.86423221  0.99111302  1
  H+  H260  1  0.13537985  0.91445383  0.34284518  1
  H+  H261  1  0.58340953  0.15437103  0.24033127  1
  H+  H262  1  0.89854959  0.03732694  0.17863140  1
  H+  H263  1  0.23772681  0.86759434  0.83372732  1
  H+  H264  1  0.48173157  0.11551296  0.84455222  1
  H+  H265  1  0.40620062  0.77939730  0.17370516  1
  H+  H266  1  0.86729288  0.47500741  0.49646852  1
  H+  H267  1  0.47411261  0.35898641  0.66258693  1
  H+  H268  1  0.81343004  0.75370639  0.15948119  1
  H+  H269  1  0.60367038  0.47166840  0.67314473  1
  H+  H270  1  0.62626093  0.13583035  0.29740994  1
  H+  H271  1  0.63657700  0.37000370  0.51067965  1
  H+  H272  1  0.74514828  0.65472400  0.15433226  1
  H+  H273  1  0.89999053  0.53985916  1.00372294  1
  H+  H274  1  0.09060554  0.42408670  0.07214267  1
  H+  H275  1  0.75062965  0.39043380  0.16580403  1
  H+  H276  1  0.83067974  0.40763297  0.44155891  1
  H+  H277  1  -0.02613672  0.63835643  0.83076825  1
  H+  H278  1  0.88337818  0.72908256  0.32762159  1
  H+  H279  1  0.36696691  -0.06594757  0.99574103  1
  H+  H280  1  0.63144425  0.53252753  0.99032893  1
  H+  H281  1  0.01478540  0.37175701  0.82741687  1
  H+  H282  1  0.17225796  0.64968997  0.90013776  1
  H+  H283  1  0.38388068  0.02150217  0.16406828  1
  H+  H284  1  0.62005379  -0.02082361  0.15491830  1
  H+  H285  1  0.11430694  0.14838673  0.48318387  1
  H+  H286  1  0.62007527  0.60961170  0.17425532  1
  H+  H287  1  0.03750285  0.15673339  0.16213287  1
  H+  H288  1  0.33015926  0.16783670  0.43239216  1
  H+  H289  1  0.10246913  0.97507782  -0.00157373  1
  H+  H290  1  0.16924615  0.08264798  0.59811705  1
  H+  H291  1  0.94532406  0.09512208  0.23905782  1
  H+  H292  1  0.39894322  0.62911641  0.32221220  1
  H+  H293  1  0.14982141  0.52412058  1.00432034  1
  H+  H294  1  0.28975557  0.86351654  0.48833528  1
  H+  H295  1  0.82888372  0.19553747  0.77446105  1
  H+  H296  1  0.66698827  0.83508559  0.90115933  1
  H+  H297  1  0.59130082  0.42513347  0.10113016  1
  H+  H298  1  0.85307341  0.16432412  0.39588040  1
  H+  H299  1  0.16878890  0.33151232  0.56035677  1
  H+  H300  1  0.68799143  0.08315142  0.26096173  1
  H+  H301  1  0.68388962  0.35175599  0.22447515  1
  H+  H302  1  0.34294409  0.16914419  0.76853849  1
  H+  H303  1  0.12263279  0.62073538  0.34049622  1
  H+  H304  1  0.83071872  0.94024339  0.08886079  1
  H+  H305  1  0.30416839  0.53756453  0.61380237  1
  H+  H306  1  0.34550089  0.92055168  0.76437705  1
  H+  H307  1  0.66450491  0.84346517  0.26477281  1
  H+  H308  1  0.41514488  0.31798452  0.58089085  1
  H+  H309  1  0.09142205  0.66146826  0.43547735  1
  H+  H310  1  0.08993523  0.16169975  0.76654895  1
  H+  H311  1  0.53723233  0.18194332  0.39919542  1
  H+  H312  1  0.66660286  0.59057820  0.89516222  1
  H+  H313  1  0.16458376  0.84108785  0.93456290  1
  H+  H314  1  0.62021117  0.14656933  0.68085727  1
  H+  H315  1  0.37506683  0.48726404  0.16046617  1
  H+  H316  1  0.92622273  0.06968652  0.55321954  1
  H+  H317  1  0.67981349  0.10139514  0.61503060  1
  H+  H318  1  0.35400970  0.17694722  0.06445045  1
  H+  H319  1  0.66899907  0.08194765  0.93671921  1
  H+  H320  1  0.82297401  0.38249383  0.71185161  1
  H+  H321  1  0.94615154  0.57202142  0.25053712  1
  H+  H322  1  0.45144043  0.07533132  0.60645290  1
  H+  H323  1  0.56326206  0.42034046  0.44464558  1
  H+  H324  1  0.24083523  0.87313512  0.34060574  1
  H+  H325  1  0.35520743  0.68378871  0.11006577  1
  H+  H326  1  0.68247191  0.83309138  0.55541279  1
  H+  H327  1  0.78218045  0.89831611  0.31801257  1
  H+  H328  1  0.58284068  0.91881882  0.09422973  1
  H+  H329  1  0.28776979  0.65195715  0.02317028  1
  H+  H330  1  0.82548277  0.64460434  0.41981443  1
  H+  H331  1  0.13286997  0.27972220  0.31882173  1
  H+  H332  1  0.59065315  0.17434108  0.77670591  1
  H+  H333  1  0.08413260  0.41495652  0.40451178  1
  H+  H334  1  0.58740274  0.67341943  0.06715021  1
  H+  H335  1  0.82658809  0.13887331  0.07646824  1
  H+  H336  1  0.08967542  0.93714618  0.39695857  1
  H+  H337  1  0.19819089  0.82426072  0.23620180  1
  H+  H338  1  0.38608674  0.11342418  0.16470129  1
  H+  H339  1  0.34918336  0.91591584  0.39511960  1
  H+  H340  1  0.32971313  0.41292164  0.76912191  1
  H+  H341  1  0.32898485  0.42880679  0.42916784  1
  H+  H342  1  0.06554847  0.38913687  0.72336244  1
  H+  H343  1  0.84670037  0.42533710  0.07033961  1
  H+  H344  1  0.35450105  0.69541761  0.39927918  1
  H+  H345  1  0.06104776  0.94468435  0.08782869  1
  H+  H346  1  0.16473149  0.07617530  0.93165304  1
  H+  H347  1  0.58951784  0.67622550  0.39989299  1
  H+  H348  1  0.13401623  0.26624101  0.65511304  1
  H+  H349  1  0.27813292  0.13310548  0.67001209  1
  H+  H350  1  0.06992698  0.67147863  0.75641758  1
  H+  H351  1  0.92634866  0.83904916  0.27133621  1
  H+  H352  1  0.42107497  0.34258306  0.93480760  1
  H+  H353  1  0.91691953  0.58496347  0.56283115  1
  H+  H354  1  0.40491231  0.05228314  0.93321083  1
  H+  H355  1  0.65614034  0.33306841  0.60339620  1
  H+  H356  1  0.17284054  0.34636256  0.22809949  1
  H+  H357  1  0.21399813  0.57609071  0.95156480  1
  H+  H358  1  0.91536959  0.31915865  0.56252661  1
  H+  H359  1  0.67086942  0.34422264  0.90896791  1
  H+  H360  1  0.64392056  0.76987303  0.64487102  1
  H+  H361  1  0.33018164  0.03294286  0.56799559  1
  H+  H362  1  0.41254082  0.33646428  0.26459351  1
  H+  H363  1  0.42004025  0.58693529  0.55845620  1
  H+  H364  1  0.92422802  0.33528088  0.93929015  1
  H+  H365  1  0.63208564  0.62172770  0.98919019  1
  H+  H366  1  0.41494745  0.84626168  0.90559588  1
  H+  H367  1  0.74587248  0.12321748  0.31951534  1
  H+  H368  1  0.17385753  0.82621510  0.60341132  1
  H+  H369  1  0.57693173  0.19073236  0.41655273  1
  H+  H370  1  0.92341725  0.33388341  0.23431481  1
  H+  H371  1  0.58189264  0.16322162  0.10238859  1
  H+  H372  1  0.87963645  0.81398741  0.53249337  1
  H+  H373  1  0.84696736  0.44181163  0.79703977  1
  H+  H374  1  0.15002642  0.52645234  0.50902288  1
  H+  H375  1  0.90025649  0.26720923  0.32643583  1
  H+  H376  1  0.93713540  0.82701720  0.62044083  1
  H+  H377  1  0.23001758  0.13397145  0.33202431  1
  H+  H378  1  0.06907675  0.16922555  0.38830833  1
  H+  H379  1  0.44200036  0.59924370  0.22932867  1
  H+  H380  1  0.81539587  0.06509460  0.03262258  1
  H+  H381  1  0.84467810  0.86278077  0.24340673  1
  H+  H382  1  0.66527686  0.57604031  0.59834488  1
  H+  H383  1  0.33857226  0.42548300  0.06664928  1
  O2-  O384  1  0.09751714  0.19094101  0.14770359  1
  O2-  O385  1  0.08391479  0.17687174  0.46531334  1
  O2-  O386  1  0.09357728  0.15763558  0.81108771  1
  O2-  O387  1  0.08753060  0.42246606  0.14731296  1
  O2-  O388  1  0.08736167  0.42175044  0.48205192  1
  O2-  O389  1  0.07009498  0.38864668  0.80457794  1
  O2-  O390  1  0.10716117  0.66532487  0.14639132  1
  O2-  O391  1  0.09057758  0.66480243  0.48092398  1
  O2-  O392  1  0.06962657  0.68017030  0.80209475  1
  O2-  O393  1  0.05741389  0.96860067  0.12827086  1
  O2-  O394  1  0.06173043  0.92525464  0.47322644  1
  O2-  O395  1  0.10745662  0.93004732  0.80760465  1
  O2-  O396  1  0.34300924  0.17083822  0.14256700  1
  O2-  O397  1  0.32554646  0.16598337  0.47752335  1
  O2-  O398  1  0.34321285  0.16867574  0.81361561  1
  O2-  O399  1  0.34318164  0.42649811  0.14644950  1
  O2-  O400  1  0.32713475  0.42652705  0.47421342  1
  O2-  O401  1  0.33355092  0.41167900  0.81416994  1
  O2-  O402  1  0.35853574  0.68445248  0.15566563  1
  O2-  O403  1  0.34854427  0.67946247  0.47569600  1
  O2-  O404  1  0.34548546  0.68013806  0.81272798  1
  O2-  O405  1  0.35308978  0.91365830  0.14100510  1
  O2-  O406  1  0.34679694  0.90822142  0.47369845  1
  O2-  O407  1  0.34180690  0.91980637  0.80975013  1
  O2-  O408  1  0.57802355  0.15112721  0.14614496  1
  O2-  O409  1  0.67686565  0.19750036  0.48993736  1
  O2-  O410  1  0.58981715  0.17229746  0.82217151  1
  O2-  O411  1  0.59582150  0.42206992  0.14696251  1
  O2-  O412  1  0.56796990  0.41566958  0.48951493  1
  O2-  O413  1  0.58818542  0.41917843  0.81594225  1
  O2-  O414  1  0.60886104  0.67688388  0.14077759  1
  O2-  O415  1  0.59710514  0.67127687  0.47576852  1
  O2-  O416  1  0.59711886  0.67104493  0.80585843  1
  O2-  O417  1  0.58503781  0.91760632  0.14029037  1
  O2-  O418  1  0.58802751  0.90846344  0.47891881  1
  O2-  O419  1  0.58880673  0.92490862  0.81812873  1
  O2-  O420  1  0.84039656  0.16619041  0.15172166  1
  O2-  O421  1  0.84107592  0.16064072  0.47465685  1
  O2-  O422  1  0.83533171  0.19467944  0.82016467  1
  O2-  O423  1  0.84601927  0.42173549  0.15013298  1
  O2-  O424  1  0.83157908  0.41279110  0.48672140  1
  O2-  O425  1  0.84268586  0.43963584  0.84118453  1
  O2-  O426  1  0.78154836  0.70637686  0.12975507  1
  O2-  O427  1  0.82794002  0.65308556  0.46403059  1
  O2-  O428  1  0.82567477  0.66700211  0.81146731  1
  O2-  O429  1  0.83580931  0.94309077  0.13727116  1
  O2-  O430  1  0.83477726  0.91427347  0.45788431  1
  O2-  O431  1  0.82905571  0.91993068  0.80787780  1
  O2-  O432  1  0.19584923  0.06762004  0.19301569  1
  O2-  O433  1  0.15805834  0.09195321  0.51823870  1
  O2-  O434  1  0.17398079  0.08109228  0.84962877  1
  O2-  O435  1  0.17679682  0.34928617  0.18289904  1
  O2-  O436  1  0.16742838  0.33481988  0.51511638  1
  O2-  O437  1  0.16908097  0.32479908  0.85660407  1
  O2-  O438  1  0.18475289  0.58386628  0.19319931  1
  O2-  O439  1  0.18315047  0.58687062  0.52445027  1
  O2-  O440  1  0.15812607  0.61541780  0.86297496  1
  O2-  O441  1  0.22451507  0.80364185  0.20714310  1
  O2-  O442  1  0.18574871  0.81623746  0.52731430  1
  O2-  O443  1  0.17680227  0.84271145  0.84774285  1
  O2-  O444  1  0.41314819  0.08017135  0.18177127  1
  O2-  O445  1  0.30813649  0.02167534  0.52620025  1
  O2-  O446  1  0.41995029  0.08123488  0.85633117  1
  O2-  O447  1  0.41955762  0.33962703  0.18812172  1
  O2-  O448  1  0.41646198  0.31684221  0.53209834  1
  O2-  O449  1  0.41845730  0.33303834  0.85483711  1
  O2-  O450  1  0.44057717  0.59817581  0.18392539  1
  O2-  O451  1  0.43362224  0.59616831  0.51427867  1
  O2-  O452  1  0.45474724  0.56759847  0.86487562  1
  O2-  O453  1  0.43847316  0.84456207  0.18349219  1
  O2-  O454  1  0.43062136  0.83900763  0.52255689  1
  O2-  O455  1  0.42262412  0.84398844  0.86137309  1
  O2-  O456  1  0.67192981  0.07639945  0.17971423  1
  O2-  O457  1  0.69892481  0.06051752  0.53869009  1
  O2-  O458  1  0.67145106  0.08491094  0.86249252  1
  O2-  O459  1  0.68754679  0.36442746  0.17934248  1
  O2-  O460  1  0.66904900  0.34513130  0.52973268  1
  O2-  O461  1  0.67534439  0.34438129  0.86374773  1
  O2-  O462  1  0.64432922  0.57131287  0.19239237  1
  O2-  O463  1  0.66460305  0.58010564  0.51911006  1
  O2-  O464  1  0.67148112  0.58919505  0.84961094  1
  O2-  O465  1  0.66787665  0.83606404  0.18696483  1
  O2-  O466  1  0.68102959  0.83417293  0.50862602  1
  O2-  O467  1  0.66323920  0.83328121  0.85541541  1
  O2-  O468  1  0.93129631  0.09690431  0.19562471  1
  O2-  O469  1  0.92325686  0.07502477  0.50841581  1
  O2-  O470  1  0.86253803  0.00434192  0.82233396  1
  O2-  O471  1  0.92153278  0.33636399  0.18869582  1
  O2-  O472  1  0.91882044  0.32504950  0.51680779  1
  O2-  O473  1  0.92490560  0.33983754  0.86564185  1
  O2-  O474  1  0.95000773  0.57500973  0.20458305  1
  O2-  O475  1  0.92292053  0.58494060  0.51758599  1
  O2-  O476  1  0.91511671  0.61296855  0.85062570  1
  O2-  O477  1  0.86661473  0.84408531  0.20790528  1
  O2-  O478  1  0.89520809  0.82321057  0.48963336  1
  O2-  O479  1  0.90176762  0.84694174  0.85418043  1
  O2-  O480  1  0.16567210  0.10106703  0.31966395  1
  O2-  O481  1  0.17714933  0.08572187  0.64302300  1
  O2-  O482  1  0.16388131  0.07089499  0.97638284  1
  O2-  O483  1  0.16729417  0.34124087  0.30797948  1
  O2-  O484  1  0.16506122  0.32707251  0.64036404  1
  O2-  O485  1  0.17228297  0.33694759  0.97984867  1
  O2-  O486  1  0.16158961  0.57559257  0.31754826  1
  O2-  O487  1  0.14213663  0.57088198  0.65065565  1
  O2-  O488  1  0.18695712  0.58466489  0.98727802  1
  O2-  O489  1  0.17494216  0.84463553  0.33824701  1
  O2-  O490  1  0.17089200  0.82747366  0.64883716  1
  O2-  O491  1  0.16055096  0.84258599  0.97911923  1
  O2-  O492  1  0.40479055  0.08262741  0.30368341  1
  O2-  O493  1  0.41361851  0.06915537  0.64023937  1
  O2-  O494  1  0.39653606  0.03606698  0.97712767  1
  O2-  O495  1  0.40501146  0.33213211  0.31008793  1
  O2-  O496  1  0.41402438  0.32543157  0.64474843  1
  O2-  O497  1  0.42268009  0.34571526  0.98016061  1
  O2-  O498  1  0.42772028  0.59698378  0.30897495  1
  O2-  O499  1  0.36253185  0.55709024  0.62763103  1
  O2-  O500  1  0.41797966  0.60000474  0.98662885  1
  O2-  O501  1  0.39702373  0.77927022  0.33114760  1
  O2-  O502  1  0.42641457  0.84646848  0.64356323  1
  O2-  O503  1  0.40429177  0.84776663  0.98975583  1
  O2-  O504  1  0.68658123  0.09726397  0.30429895  1
  O2-  O505  1  0.67497369  0.10700539  0.65918952  1
  O2-  O506  1  0.66296769  0.08069061  0.98257796  1
  O2-  O507  1  0.68649093  0.32406460  0.29478144  1
  O2-  O508  1  0.65654332  0.33330759  0.64933015  1
  O2-  O509  1  0.67782568  0.34937101  0.98962934  1
  O2-  O510  1  0.65409783  0.58443127  0.32145245  1
  O2-  O511  1  0.66130680  0.57142716  0.64354213  1
  O2-  O512  1  0.66104969  0.59076406  0.97184096  1
  O2-  O513  1  0.66628425  0.84763256  0.31033444  1
  O2-  O514  1  0.67924257  0.82783295  0.62539600  1
  O2-  O515  1  0.66914962  0.83892429  0.97835314  1
  O2-  O516  1  0.98532893  0.12121540  0.31940815  1
  O2-  O517  1  0.92308557  0.06430864  0.63326610  1
  O2-  O518  1  0.94179775  0.08160576  0.97834722  1
  O2-  O519  1  0.92575262  0.32856724  0.31172181  1
  O2-  O520  1  0.91196911  0.32019030  0.63698382  1
  O2-  O521  1  0.92437974  0.33804219  0.98551461  1
  O2-  O522  1  0.93163627  0.56859183  0.32479604  1
  O2-  O523  1  0.90761401  0.57889470  0.64203542  1
  O2-  O524  1  0.93426568  0.60089126  0.99201827  1
  O2-  O525  1  0.93689871  0.82701054  0.31353373  1
  O2-  O526  1  0.92710583  0.82434253  0.66398883  1
  O2-  O527  1  0.90471412  0.84164762  0.97186139  1
  O2-  O528  1  0.09771891  0.16722139  0.02538524  1
  O2-  O529  1  0.07457399  0.16848646  0.34241876  1
  O2-  O530  1  0.08638542  0.16311115  0.68281859  1
  O2-  O531  1  0.09303119  0.42649602  0.02615374  1
  O2-  O532  1  0.08542663  0.41442281  0.35891315  1
  O2-  O533  1  0.07112581  0.39785185  0.67874579  1
  O2-  O534  1  0.09630880  0.67409248  0.02535823  1
  O2-  O535  1  0.09198751  0.65487512  0.35786376  1
  O2-  O536  1  0.06941909  0.65728486  0.68394699  1
  O2-  O537  1  0.06508840  0.91502433  0.01598797  1
  O2-  O538  1  0.10167861  0.94374361  0.35236369  1
  O2-  O539  1  0.06896705  0.94352331  0.70415952  1
  O2-  O540  1  0.37344614  0.18836492  0.02135297  1
  O2-  O541  1  0.32511479  0.16943583  0.34895213  1
  O2-  O542  1  0.33888030  0.16423877  0.68563506  1
  O2-  O543  1  0.33713034  0.42762442  0.02131965  1
  O2-  O544  1  0.33263130  0.43071890  0.34698572  1
  O2-  O545  1  0.32528430  0.41054250  0.68790791  1
  O2-  O546  1  0.34941492  0.68834372  0.03359719  1
  O2-  O547  1  0.34984536  0.69101340  0.35342450  1
  O2-  O548  1  0.35665265  0.69368307  0.68897567  1
  O2-  O549  1  0.34816410  0.87676189  0.01647120  1
  O2-  O550  1  0.33942727  0.91182788  0.35017418  1
  O2-  O551  1  0.34335805  0.91627001  0.68590053  1
  O2-  O552  1  0.57990977  0.16168448  0.01340175  1
  O2-  O553  1  0.59004523  0.16295780  0.28444673  1
  O2-  O554  1  0.58562552  0.17365869  0.69758904  1
  O2-  O555  1  0.58377562  0.42767892  0.02583746  1
  O2-  O556  1  0.56132374  0.43060835  0.36696460  1
  O2-  O557  1  0.57151232  0.41194335  0.69054831  1
  O2-  O558  1  0.58359779  0.67336747  0.02085336  1
  O2-  O559  1  0.58956068  0.67718827  0.35413564  1
  O2-  O560  1  0.58688481  0.67292172  0.67753163  1
  O2-  O561  1  0.57358515  0.91838732  0.02140808  1
  O2-  O562  1  0.56315862  0.90002785  0.36385800  1
  O2-  O563  1  0.57766382  0.93605336  0.69261206  1
  O2-  O564  1  0.81516397  0.11958612  0.03298352  1
  O2-  O565  1  0.86159407  0.16858589  0.35083251  1
  O2-  O566  1  0.82497358  0.18949570  0.70030287  1
  O2-  O567  1  0.84280687  0.42573048  0.02515408  1
  O2-  O568  1  0.83838423  0.40165860  0.36239773  1
  O2-  O569  1  0.82155240  0.40692250  0.67276683  1
  O2-  O570  1  0.82839898  0.67516822  0.01646521  1
  O2-  O571  1  0.84431111  0.66362688  0.33293478  1
  O2-  O572  1  0.82658295  0.65637036  0.69256507  1
  O2-  O573  1  0.82077894  0.93712139  0.02245456  1
  O2-  O574  1  0.84306682  0.91970100  0.30718035  1
  O2-  O575  1  0.84149743  0.91309904  0.68393400  1
