# generated using pymatgen
data_H2O
_symmetry_space_group_name_H-M   'P 1'
_cell_length_a   17.99284556
_cell_length_b   17.99207789
_cell_length_c   22.00474215
_cell_angle_alpha   89.96856140
_cell_angle_beta   90.05237494
_cell_angle_gamma   119.99257815
_symmetry_Int_Tables_number   1
_chemical_formula_structural   H2O
_chemical_formula_sum   'H384 O192'
_cell_volume   6169.64792318
_cell_formula_units_Z   192
loop_
 _symmetry_equiv_pos_site_id
 _symmetry_equiv_pos_as_xyz
  1  'x, y, z'
loop_
 _atom_type_symbol
 _atom_type_oxidation_number
  H+  1.0
  O2-  -2.0
loop_
 _atom_site_type_symbol
 _atom_site_label
 _atom_site_symmetry_multiplicity
 _atom_site_fract_x
 _atom_site_fract_y
 _atom_site_fract_z
 _atom_site_occupancy
  H+  H0  1  0.85407594  0.37711785  0.49525297  1
  H+  H1  1  0.47773820  0.62243314  0.50421171  1
  H+  H2  1  0.47825262  0.12587727  0.66550283  1
  H+  H3  1  0.42283086  0.75674922  0.69139931  1
  H+  H4  1  0.39589572  0.13903488  0.50428953  1
  H+  H5  1  0.13703055  0.86738171  0.33190877  1
  H+  H6  1  0.22634626  0.62119699  0.50399338  1
  H+  H7  1  0.27561709  0.89287912  0.35240334  1
  H+  H8  1  0.21349847  0.60123285  0.83672537  1
  H+  H9  1  0.34593742  0.89451589  1.01449995  1
  H+  H10  1  0.38408985  0.63687481  0.17422464  1
  H+  H11  1  0.36591645  0.39277997  0.66723900  1
  H+  H12  1  0.27695271  0.39461576  0.66835337  1
  H+  H13  1  0.62549947  0.13780273  0.50762131  1
  H+  H14  1  0.63234514  0.26771225  0.51126556  1
  H+  H15  1  0.12038455  0.38235050  0.16593936  1
  H+  H16  1  0.73017367  0.36557963  0.32843340  1
  H+  H17  1  0.89509459  0.90365261  0.50676511  1
  H+  H18  1  0.11732614  0.73480657  0.48680607  1
  H+  H19  1  0.63018834  0.46974073  0.83962574  1
  H+  H20  1  0.64580977  0.35805826  0.88994721  1
  H+  H21  1  0.74696291  0.88217129  -0.02719011  1
  H+  H22  1  0.37135240  0.24619106  0.67006247  1
  H+  H23  1  0.64486705  0.36925154  0.17382437  1
  H+  H24  1  0.22596437  0.86199747  0.84761329  1
  H+  H25  1  0.37063115  0.15508185  0.67116308  1
  H+  H26  1  0.74830959  0.13441874  0.16765026  1
  H+  H27  1  0.63980016  0.51733612  0.32173067  1
  H+  H28  1  0.87057766  0.48883865  0.66294027  1
  H+  H29  1  0.39782008  0.39427003  0.37081809  1
  H+  H30  1  0.76425153  0.38546648  0.81964017  1
  H+  H31  1  0.13766795  0.35636175  0.97810064  1
  H+  H32  1  0.73439610  0.61840167  0.50611472  1
  H+  H33  1  0.72936840  0.91595421  0.20827223  1
  H+  H34  1  0.58295533  0.15299793  0.44727805  1
  H+  H35  1  0.85809572  0.53694103  1.01988258  1
  H+  H36  1  0.48164917  0.37715882  0.19474939  1
  H+  H37  1  0.63525275  0.85767756  0.82444342  1
  H+  H38  1  0.33264812  0.43200975  0.06059761  1
  H+  H39  1  0.22729970  0.87635288  0.17768631  1
  H+  H40  1  0.87019716  0.47188634  0.34177533  1
  H+  H41  1  0.02058321  0.63226199  0.83269781  1
  H+  H42  1  0.13407902  0.86711722  0.17287519  1
  H+  H43  1  0.60904338  0.88141750  0.34611093  1
  H+  H44  1  0.77810079  0.89150676  0.82537084  1
  H+  H45  1  0.65214928  0.88032190  -0.01982901  1
  H+  H46  1  0.42914216  0.61395247  0.22660381  1
  H+  H47  1  0.87459616  0.85336097  0.16305291  1
  H+  H48  1  0.85612592  0.99545537  0.48981529  1
  H+  H49  1  0.79479767  0.16192806  0.41299433  1
  H+  H50  1  0.94595373  0.28557728  0.61546097  1
  H+  H51  1  0.91537707  0.85706630  0.60570407  1
  H+  H52  1  0.41992033  0.62617557  0.66781926  1
  H+  H53  1  0.83460095  0.79056460  0.64020201  1
  H+  H54  1  0.86700833  0.69829299  0.67542949  1
  H+  H55  1  1.03011525  0.91152705  0.49542506  1
  H+  H56  1  0.35315910  1.00579504  0.68163090  1
  H+  H57  1  0.61517914  0.47337842  0.16324294  1
  H+  H58  1  0.76952732  0.90247685  0.68515374  1
  H+  H59  1  0.41469183  0.83795509  0.27976892  1
  H+  H60  1  0.12193150  0.51390237  0.83172173  1
  H+  H61  1  0.33393542  0.14475890  0.16387526  1
  H+  H62  1  0.72718167  0.61449350  0.84012456  1
  H+  H63  1  0.36339913  0.90522873  0.17295804  1
  H+  H64  1  0.12602016  0.98934673  0.49088077  1
  H+  H65  1  0.89338537  1.03197275  0.83549839  1
  H+  H66  1  0.72105919  0.85449294  0.33211779  1
  H+  H67  1  0.40013355  0.52909855  0.66016838  1
  H+  H68  1  0.12004852  0.44931855  0.34117057  1
  H+  H69  1  0.76526401  0.63342488  0.15048491  1
  H+  H70  1  0.11614324  0.21946358  0.33089611  1
  H+  H71  1  0.21432996  0.08847325  0.29385260  1
  H+  H72  1  0.39918731  0.70264190  0.04755371  1
  H+  H73  1  0.65815662  0.82819412  0.27546857  1
  H+  H74  1  0.60562002  0.13590377  0.03865864  1
  H+  H75  1  0.63342353  0.60591409  0.83756707  1
  H+  H76  1  0.38126890  0.12139080  0.34277133  1
  H+  H77  1  0.25127577  0.63525413  0.17579008  1
  H+  H78  1  0.61864677  0.38682924  0.49539946  1
  H+  H79  1  0.89891706  -0.00119172  0.30695604  1
  H+  H80  1  0.24469654  0.60041792  0.33153375  1
  H+  H81  1  0.80543999  0.11308243  0.51353438  1
  H+  H82  1  0.36495751  0.89480496  0.35091611  1
  H+  H83  1  0.28994309  0.40842956  0.15778414  1
  H+  H84  1  0.37445661  0.50060310  0.15277278  1
  H+  H85  1  0.87994523  0.70162424  0.47884243  1
  H+  H86  1  0.40240900  1.02606429  0.84829224  1
  H+  H87  1  0.60952089  0.37435618  0.67913491  1
  H+  H88  1  0.86296151  0.35710455  0.99153173  1
  H+  H89  1  0.02383399  0.64140166  0.34122106  1
  H+  H90  1  0.10550392  0.38193852  0.82221376  1
  H+  H91  1  0.11544830  0.88818737  0.83170690  1
  H+  H92  1  0.97994661  0.86871039  0.83235980  1
  H+  H93  1  0.38305301  1.02955854  0.00365380  1
  H+  H94  1  0.10690328  0.47575015  1.00329386  1
  H+  H95  1  0.84529168  0.22086078  0.35618463  1
  H+  H96  1  -0.00020004  0.86805304  0.15008603  1
  H+  H97  1  0.51765644  0.15549570  0.17621556  1
  H+  H98  1  0.11290246  0.73244056  0.34013932  1
  H+  H99  1  0.38690357  0.60255997  0.83937452  1
  H+  H100  1  0.10952241  0.63819209  0.82188473  1
  H+  H101  1  0.64737195  0.63316995  0.65719044  1
  H+  H102  1  0.23465358  0.13302611  0.65786725  1
  H+  H103  1  0.60937641  0.14031478  0.67586249  1
  H+  H104  1  0.13692853  0.36919360  0.66048110  1
  H+  H105  1  0.07149129  0.66518662  0.06519619  1
  H+  H106  1  0.54208081  0.88492774  0.00913180  1
  H+  H107  1  0.01151090  0.88614550  -0.00242274  1
  H+  H108  1  0.28203640  0.14397468  -0.00219632  1
  H+  H109  1  0.38421629  0.04752840  0.18599194  1
  H+  H110  1  0.63264328  0.27046445  -0.01283676  1
  H+  H111  1  0.37972284  0.78607611  0.18338459  1
  H+  H112  1  0.62699328  0.74172994  0.15774093  1
  H+  H113  1  0.61543755  0.23134761  0.67448653  1
  H+  H114  1  0.18344303  0.35496584  0.33204399  1
  H+  H115  1  0.85777097  0.49452770  0.50537231  1
  H+  H116  1  0.89161911  0.87192267  0.83474017  1
  H+  H117  1  0.17989920  0.28594235  0.16619018  1
  H+  H118  1  0.63211356  0.97841681  0.49432657  1
  H+  H119  1  0.11821825  0.77143476  -0.00314602  1
  H+  H120  1  -0.02871789  0.34710456  0.18026043  1
  H+  H121  1  -0.00631089  0.65364234  0.17559686  1
  H+  H122  1  0.96649001  0.70652528  0.21703569  1
  H+  H123  1  0.49624789  0.87295171  0.51410734  1
  H+  H124  1  0.02171797  0.20364290  0.12869894  1
  H+  H125  1  0.15143196  0.12219390  -0.01561308  1
  H+  H126  1  0.95385862  0.61001452  1.00452423  1
  H+  H127  1  0.47531989  0.11490169  0.00743947  1
  H+  H128  1  0.76444649  0.87294042  0.13373190  1
  H+  H129  1  0.52096264  0.88449862  0.34799163  1
  H+  H130  1  0.36851074  0.46986303  0.82133197  1
  H+  H131  1  0.22949987  0.86629562  0.65348085  1
  H+  H132  1  0.54007975  0.64144483  0.66924751  1
  H+  H133  1  0.72596182  0.34992722  0.65812420  1
  H+  H134  1  0.36043576  0.88421978  0.82119435  1
  H+  H135  1  0.89225192  0.81564308  0.51264643  1
  H+  H136  1  0.86944448  0.76273068  0.16366174  1
  H+  H137  1  0.60573956  0.98723319  0.16677581  1
  H+  H138  1  0.88482934  0.12621007  0.65661381  1
  H+  H139  1  1.01503393  0.88006007  0.33928423  1
  H+  H140  1  0.88982573  0.50431235  0.84211193  1
  H+  H141  1  0.32338170  0.78763706  0.95537706  1
  H+  H142  1  0.61733507  0.96718588  0.80752083  1
  H+  H143  1  0.63976951  0.61590901  0.17087497  1
  H+  H144  1  0.72601310  0.34902640  -0.02170499  1
  H+  H145  1  0.42035396  0.88379735  0.67521358  1
  H+  H146  1  -0.02856940  0.37181773  0.50585333  1
  H+  H147  1  0.38675861  0.77547446  0.33805295  1
  H+  H148  1  0.73317817  0.36551724  0.16749993  1
  H+  H149  1  0.84372385  0.36684977  0.82564043  1
  H+  H150  1  0.84923571  0.60343550  0.49327052  1
  H+  H151  1  0.83042736  0.38913815  0.72850649  1
  H+  H152  1  0.86112318  0.90702970  0.67735795  1
  H+  H153  1  0.72656786  0.09314703  0.82349260  1
  H+  H154  1  0.51058793  0.12478716  0.35858284  1
  H+  H155  1  0.47755306  0.85636685  0.82372838  1
  H+  H156  1  0.84678560  0.60119224  0.67604032  1
  H+  H157  1  0.63172230  1.02072978  0.33062658  1
  H+  H158  1  0.90599808  0.82195076  0.26591832  1
  H+  H159  1  0.64150984  0.86439934  0.49589976  1
  H+  H160  1  0.25824040  0.89414206  0.01835970  1
  H+  H161  1  0.18294781  0.60598674  0.97967243  1
  H+  H162  1  0.00494121  0.12462303  -0.01567116  1
  H+  H163  1  0.02575175  0.13965003  0.81812799  1
  H+  H164  1  0.88350776  0.60633347  0.32874745  1
  H+  H165  1  0.05414838  0.11520086  0.48287779  1
  H+  H166  1  0.07199333  0.96283688  0.15450630  1
  H+  H167  1  0.60530803  0.71495315  0.33876477  1
  H+  H168  1  0.27158163  0.14157982  0.38070797  1
  H+  H169  1  0.73171008  0.61359867  0.65786862  1
  H+  H170  1  0.27126659  0.66606037  1.03395873  1
  H+  H171  1  0.61923501  0.11596460  0.18390637  1
  H+  H172  1  0.67102763  0.58479950  0.22925911  1
  H+  H173  1  0.86966903  0.38241592  0.34422212  1
  H+  H174  1  0.11346362  0.26948230  0.50756855  1
  H+  H175  1  0.36567233  0.23714702  0.82104598  1
  H+  H176  1  0.35393809  0.17988424  0.42047008  1
  H+  H177  1  0.48127114  0.36709946  0.66454477  1
  H+  H178  1  0.34854646  0.26919703  0.33716872  1
  H+  H179  1  0.93319500  0.10022971  0.88988092  1
  H+  H180  1  0.61907374  0.72295053  0.48285364  1
  H+  H181  1  -0.03444670  0.32005892  -0.01257966  1
  H+  H182  1  0.26742557  0.65819984  0.67880367  1
  H+  H183  1  0.64338122  0.61914754  0.50452265  1
  H+  H184  1  0.15713001  0.57303490  0.23840569  1
  H+  H185  1  0.66569623  0.05913579  0.90837559  1
  H+  H186  1  0.54113852  0.12822617  0.83692020  1
  H+  H187  1  0.93057116  0.09636860  0.15321690  1
  H+  H188  1  0.30626892  0.13915376  0.50647534  1
  H+  H189  1  1.02328285  0.14283360  0.66449734  1
  H+  H190  1  0.17472924  0.46046371  0.03570927  1
  H+  H191  1  0.48111725  0.35367657  0.83701521  1
  H+  H192  1  0.87434812  0.25955379  0.82884314  1
  H+  H193  1  0.10927384  0.63995379  0.16245684  1
  H+  H194  1  0.75519132  0.12179298  1.00491722  1
  H+  H195  1  0.63028967  0.87739919  0.70907574  1
  H+  H196  1  0.86209867  0.13376357  0.81373636  1
  H+  H197  1  0.26847564  0.61707393  0.67886113  1
  H+  H198  1  0.26746835  0.14234971  0.81809875  1
  H+  H199  1  0.12802114  0.85812037  0.49878787  1
  H+  H200  1  0.87051104  0.23891305  -0.00684470  1
  H+  H201  1  0.22394448  0.18535066  0.13801862  1
  H+  H202  1  0.40460201  0.51392432  0.37203236  1
  H+  H203  1  0.62484094  0.73774884  0.67934717  1
  H+  H204  1  0.12443074  0.51589513  0.17875335  1
  H+  H205  1  0.66359948  0.32685140  0.60016102  1
  H+  H206  1  0.84825854  -0.03813525  0.13984070  1
  H+  H207  1  0.62166774  0.47742787  0.49679733  1
  H+  H208  1  0.85852880  0.22732075  0.66637438  1
  H+  H209  1  0.40190556  0.28065537  0.99390630  1
  H+  H210  1  0.62482221  0.09340075  0.95523844  1
  H+  H211  1  0.28804372  0.66046362  0.00351888  1
  H+  H212  1  0.88530457  0.03832368  0.65874256  1
  H+  H213  1  0.64048263  0.62906436  0.99019436  1
  H+  H214  1  0.87906227  0.76110049  0.32475431  1
  H+  H215  1  0.63638252  0.76853817  0.83366303  1
  H+  H216  1  0.87142712  0.44571048  0.97487905  1
  H+  H217  1  0.14276718  0.77549946  0.65444593  1
  H+  H218  1  0.38097281  0.37549192  0.47888259  1
  H+  H219  1  0.36833449  0.65063198  0.50212849  1
  H+  H220  1  0.51830145  0.62271633  0.34164102  1
  H+  H221  1  0.27510703  0.39629865  -0.00165814  1
  H+  H222  1  0.76715081  0.62670158  0.33192022  1
  H+  H223  1  0.13849393  0.28068801  0.65971562  1
  H+  H224  1  0.82851663  0.12022344  0.16294534  1
  H+  H225  1  0.63788289  0.03217871  0.61031800  1
  H+  H226  1  -0.02135101  0.34629955  0.33405584  1
  H+  H227  1  0.53378329  0.66102289  0.15680797  1
  H+  H228  1  0.85557326  0.87366068  0.33949690  1
  H+  H229  1  0.71556335  0.11395110  0.33337961  1
  H+  H230  1  0.10440910  0.51088620  0.64785141  1
  H+  H231  1  0.13925427  0.12088499  0.65563626  1
  H+  H232  1  0.77354991  0.13190926  0.65173366  1
  H+  H233  1  0.52541162  0.63341647  0.82216924  1
  H+  H234  1  0.15345683  1.00064172  0.67705783  1
  H+  H235  1  0.62356594  0.38797398  1.01529158  1
  H+  H236  1  0.13923278  0.23525038  -0.00246207  1
  H+  H237  1  0.40540509  0.80230603  0.98911403  1
  H+  H238  1  0.12856218  1.00995533  0.32375198  1
  H+  H239  1  0.61462260  0.23882883  0.17166324  1
  H+  H240  1  0.85978008  0.65261408  -0.00132121  1
  H+  H241  1  0.14352777  0.02676268  0.83257213  1
  H+  H242  1  0.63770665  0.60643435  0.32018199  1
  H+  H243  1  0.94073095  0.12603616  0.50100369  1
  H+  H244  1  0.09246244  0.59282176  0.64326938  1
  H+  H245  1  0.98402477  0.09250218  0.30404960  1
  H+  H246  1  0.64003247  0.88685603  0.17750020  1
  H+  H247  1  0.40412211  0.02561811  0.51436582  1
  H+  H248  1  0.86990869  0.89735598  0.98488784  1
  H+  H249  1  0.49240177  0.36926379  0.50771728  1
  H+  H250  1  0.86228332  0.36077712  0.66836097  1
  H+  H251  1  0.36883584  0.63752478  0.36116499  1
  H+  H252  1  0.35661479  0.71353681  0.83376688  1
  H+  H253  1  0.59562638  0.11662017  0.35377622  1
  H+  H254  1  1.01520058  0.16805792  0.10725526  1
  H+  H255  1  0.47241555  0.87095944  0.17993627  1
  H+  H256  1  0.12330936  0.73601238  0.15848344  1
  H+  H257  1  0.40968528  0.27563605  0.51215004  1
  H+  H258  1  0.36946227  0.14337608  1.00596880  1
  H+  H259  1  0.38930325  0.90368879  0.50353156  1
  H+  H260  1  0.01457488  0.37658911  0.66908888  1
  H+  H261  1  0.10974901  0.47612322  0.48610725  1
  H+  H262  1  0.37945557  1.03134126  0.33842335  1
  H+  H263  1  0.11478145  0.13825879  0.81820550  1
  H+  H264  1  0.53167706  0.62720041  1.00222056  1
  H+  H265  1  0.13507630  0.77345639  0.84573792  1
  H+  H266  1  0.06648545  0.91154468  0.06849759  1
  H+  H267  1  0.62075087  0.97744731  -0.00444546  1
  H+  H268  1  0.41807806  0.62216164  0.97847313  1
  H+  H269  1  0.85682816  0.72844411  0.82686350  1
  H+  H270  1  0.92283740  0.58831283  0.27093214  1
  H+  H271  1  0.08167746  0.62907051  0.00037177  1
  H+  H272  1  0.50939892  0.88634470  0.68621427  1
  H+  H273  1  0.86408407  0.37936510  0.15574785  1
  H+  H274  1  0.89370810  0.78793118  -0.01684921  1
  H+  H275  1  0.18620253  0.14159638  0.50618489  1
  H+  H276  1  0.40316884  0.39240514  0.18444349  1
  H+  H277  1  0.87768435  0.26305002  0.17903657  1
  H+  H278  1  0.01240001  0.03183808  0.21911835  1
  H+  H279  1  0.10348231  0.87967263  1.00632523  1
  H+  H280  1  0.10897331  0.12942139  0.33743630  1
  H+  H281  1  0.15463241  0.33059750  0.56522609  1
  H+  H282  1  0.39567820  0.36285140  0.83120826  1
  H+  H283  1  0.62526260  0.39564942  0.33589274  1
  H+  H284  1  0.39143060  0.52210366  0.98783936  1
  H+  H285  1  0.73982270  0.63821473  0.98309911  1
  H+  H286  1  0.31479509  0.15682035  0.09536426  1
  H+  H287  1  0.95257908  0.58465743  0.66370095  1
  H+  H288  1  0.91072118  0.04492881  0.98108474  1
  H+  H289  1  0.22929839  0.52755085  0.28628557  1
  H+  H290  1  0.13507448  0.18507751  0.05940671  1
  H+  H291  1  0.58457925  0.65400945  0.42947456  1
  H+  H292  1  0.49845648  0.74817959  0.04892090  1
  H+  H293  1  0.67573920  0.34225261  0.26790255  1
  H+  H294  1  0.17112563  0.84222890  0.27331594  1
  H+  H295  1  0.10339060  0.92560860  0.76928973  1
  H+  H296  1  0.90234941  0.56734535  0.89699635  1
  H+  H297  1  0.83669475  0.92247923  0.39383909  1
  H+  H298  1  0.77790673  0.89858067  0.48446768  1
  H+  H299  1  0.30083315  0.67464227  0.11567894  1
  H+  H300  1  0.16337120  0.82856083  0.55493580  1
  H+  H301  1  0.91562303  0.32118249  0.27693572  1
  H+  H302  1  1.01271757  0.37594096  0.82401987  1
  H+  H303  1  0.65424203  0.85746184  0.63765523  1
  H+  H304  1  0.33160865  0.93294477  0.11372603  1
  H+  H305  1  0.41056951  0.10426538  0.24540018  1
  H+  H306  1  0.08225537  0.16755614  0.72430060  1
  H+  H307  1  0.82939761  0.68383822  0.05584356  1
  H+  H308  1  0.22895976  0.36261956  0.82792292  1
  H+  H309  1  0.32549045  0.92830025  0.77429746  1
  H+  H310  1  0.36804120  0.73941286  0.50397925  1
  H+  H311  1  0.59065674  0.66530690  0.76509120  1
  H+  H312  1  0.17495696  0.08940001  0.89014372  1
  H+  H313  1  0.42475413  0.84091763  0.88569339  1
  H+  H314  1  0.08545710  0.39732486  0.40193183  1
  H+  H315  1  0.12787002  0.14228363  0.15684960  1
  H+  H316  1  0.82245652  0.15704385  0.75504729  1
  H+  H317  1  0.83606750  0.39868039  0.09231927  1
  H+  H318  1  0.90315347  0.30874383  0.89203177  1
  H+  H319  1  0.10474641  0.38458928  0.49587893  1
  H+  H320  1  0.02365180  0.71344226  0.69736897  1
  H+  H321  1  0.59258615  0.66479364  0.06205827  1
  H+  H322  1  0.17149007  0.33231408  0.91805277  1
  H+  H323  1  0.10421945  0.05218272  0.23413593  1
  H+  H324  1  0.89928039  0.09057113  0.56679581  1
  H+  H325  1  0.67684389  0.59918861  0.58937728  1
  H+  H326  1  0.13918953  0.27405784  0.82735392  1
  H+  H327  1  0.59557730  0.42733977  0.39425700  1
  H+  H328  1  0.89906717  0.05546618  0.21840715  1
  H+  H329  1  0.59003989  0.91795476  0.43530769  1
  H+  H330  1  0.72072425  0.35568249  0.50683974  1
  H+  H331  1  0.14979548  0.58085436  0.55385454  1
  H+  H332  1  0.86192147  0.64837624  0.15019121  1
  H+  H333  1  0.42856130  0.34278797  0.60066679  1
  H+  H334  1  0.57370828  0.17645166  0.08679995  1
  H+  H335  1  0.42563825  0.59773367  0.56567318  1
  H+  H336  1  0.91383772  0.34266123  0.56639688  1
  H+  H337  1  0.83888993  0.93030346  0.76775780  1
  H+  H338  1  0.14044326  0.90523062  0.67140672  1
  H+  H339  1  0.12251296  0.64117164  0.48472733  1
  H+  H340  1  0.07675582  0.41793644  0.72764221  1
  H+  H341  1  0.82664538  0.65821784  0.77428301  1
  H+  H342  1  0.80387042  0.15445923  0.06956732  1
  H+  H343  1  0.07622553  0.91866777  0.39881670  1
  H+  H344  1  0.43330743  0.33595792  0.93442400  1
  H+  H345  1  0.67328914  0.82578234  0.54880887  1
  H+  H346  1  0.43411891  0.08633044  0.90617758  1
  H+  H347  1  0.82332291  0.40411845  0.43354025  1
  H+  H348  1  0.83235123  0.91831256  0.04389710  1
  H+  H349  1  0.65110714  0.08216310  0.24156141  1
  H+  H350  1  0.35143383  0.92929033  0.44608208  1
  H+  H351  1  0.18433071  0.09525074  0.56824511  1
  H+  H352  1  0.67075530  0.59483227  0.92281899  1
  H+  H353  1  0.59636284  0.16456763  0.77683415  1
  H+  H354  1  0.88346315  0.55237400  0.56662922  1
  H+  H355  1  0.15638220  0.83389166  0.93835295  1
  H+  H356  1  0.53622670  0.38784133  0.01256101  1
  H+  H357  1  0.08913070  0.67280525  0.42046013  1
  H+  H358  1  0.33848296  0.41381531  0.76070063  1
  H+  H359  1  0.06429519  0.67404272  0.74068500  1
  H+  H360  1  0.47893685  0.73619401  0.73365150  1
  H+  H361  1  0.92957195  0.84672362  0.92144927  1
  H+  H362  1  0.34383993  0.66075170  0.77610458  1
  H+  H363  1  0.19112169  0.33433705  0.22893261  1
  H+  H364  1  0.14450997  0.03012028  0.98483183  1
  H+  H365  1  0.38233462  0.33473164  0.27928332  1
  H+  H366  1  0.05731159  0.16297255  0.42215387  1
  H+  H367  1  0.33546209  0.67460756  0.41346613  1
  H+  H368  1  0.58427591  0.39839603  0.74163708  1
  H+  H369  1  0.67273159  0.84445180  0.91168846  1
  H+  H370  1  0.63676809  0.09452322  0.82815941  1
  H+  H371  1  0.12909686  0.56873070  0.92004853  1
  H+  H372  1  0.49614073  0.11582970  0.51802482  1
  H+  H373  1  0.37431538  0.52097460  0.30721857  1
  H+  H374  1  0.25318241  0.32372721  0.31686273  1
  H+  H375  1  0.44516207  0.85239217  0.57658676  1
  H+  H376  1  0.42749111  0.57382658  0.89272880  1
  H+  H377  1  0.33217922  0.18022419  0.75374919  1
  H+  H378  1  0.42382232  0.09418390  0.60349537  1
  H+  H379  1  0.58250271  0.40853457  0.10788989  1
  H+  H380  1  0.82389859  0.64992850  0.39326814  1
  H+  H381  1  0.08465314  0.41042677  0.10979934  1
  H+  H382  1  0.58948136  0.93080054  0.10602822  1
  H+  H383  1  0.25938248  0.96478689  0.70819628  1
  O2-  O384  1  0.17251269  0.19381878  0.13547088  1
  O2-  O385  1  0.04704106  0.16180783  0.46714445  1
  O2-  O386  1  0.08655647  0.16982143  0.80234985  1
  O2-  O387  1  0.08553868  0.40968966  0.15464431  1
  O2-  O388  1  0.07615944  0.41440013  0.47537538  1
  O2-  O389  1  0.07355201  0.41172482  0.81022623  1
  O2-  O390  1  0.08782790  0.67576133  0.14304223  1
  O2-  O391  1  0.09136525  0.67260636  0.46892285  1
  O2-  O392  1  0.07874587  0.67053908  0.81363369  1
  O2-  O393  1  0.06047552  0.90761480  0.13513916  1
  O2-  O394  1  0.08662277  0.93021029  0.47591297  1
  O2-  O395  1  0.08818328  0.91969471  0.81352282  1
  O2-  O396  1  0.28999245  0.14475455  0.13716457  1
  O2-  O397  1  0.36545764  0.17191854  0.49024583  1
  O2-  O398  1  0.32903175  0.17660672  0.80123684  1
  O2-  O399  1  0.34859463  0.44056169  0.13933256  1
  O2-  O400  1  0.35072795  0.39562743  0.45018362  1
  O2-  O401  1  0.33844178  0.40929113  0.80634334  1
  O2-  O402  1  0.31179854  0.67217799  0.15898517  1
  O2-  O403  1  0.33550889  0.67998773  0.48752597  1
  O2-  O404  1  0.32632218  0.65288715  0.81952833  1
  O2-  O405  1  0.33139301  0.93395927  0.15893137  1
  O2-  O406  1  0.35885081  0.93439378  0.49086727  1
  O2-  O407  1  0.32866965  0.91587288  0.81834745  1
  O2-  O408  1  0.57649134  0.17620994  0.15899571  1
  O2-  O409  1  0.59173936  0.16419589  0.49334683  1
  O2-  O410  1  0.60106537  0.15297442  0.82011094  1
  O2-  O411  1  0.58366723  0.41118916  0.15403117  1
  O2-  O412  1  0.59011123  0.41903399  0.47978301  1
  O2-  O413  1  0.60040537  0.40727441  0.82816726  1
  O2-  O414  1  0.59322783  0.68316544  0.14179679  1
  O2-  O415  1  0.58917572  0.66015857  0.47486179  1
  O2-  O416  1  0.58786966  0.66599290  0.81048688  1
  O2-  O417  1  0.58138800  0.92606475  0.15051463  1
  O2-  O418  1  0.59673719  0.91710543  0.48091198  1
  O2-  O419  1  0.58392572  0.90372885  0.79318193  1
  O2-  O420  1  0.80765150  0.15929106  0.14993141  1
  O2-  O421  1  0.76729644  0.13473784  0.49739679  1
  O2-  O422  1  0.82439562  0.15710110  0.80087643  1
  O2-  O423  1  0.83585672  0.40855948  0.13616954  1
  O2-  O424  1  0.81752443  0.40196392  0.47890531  1
  O2-  O425  1  0.82330203  0.40380845  0.80621759  1
  O2-  O426  1  0.82425232  0.66789533  0.13126140  1
  O2-  O427  1  0.82967622  0.64534579  0.47273450  1
  O2-  O428  1  0.82312311  0.66601137  0.81828596  1
  O2-  O429  1  0.82508939  0.90329151  0.12103030  1
  O2-  O430  1  0.83941468  0.93671084  0.47262683  1
  O2-  O431  1  0.83942475  0.92399853  0.81348835  1
  O2-  O432  1  0.06519898  0.04058173  0.19880105  1
  O2-  O433  1  0.19258724  0.09470101  0.52247865  1
  O2-  O434  1  0.17421092  0.08908553  0.84433396  1
  O2-  O435  1  0.18840738  0.34104678  0.18408052  1
  O2-  O436  1  0.14778920  0.32964757  0.52037802  1
  O2-  O437  1  0.16846503  0.33457562  0.84302563  1
  O2-  O438  1  0.15030001  0.57659597  0.19362791  1
  O2-  O439  1  0.16250893  0.58907261  0.50883647  1
  O2-  O440  1  0.15161960  0.57483066  0.84760596  1
  O2-  O441  1  0.16500490  0.83901888  0.18927694  1
  O2-  O442  1  0.15372696  0.82282766  0.51033771  1
  O2-  O443  1  0.16521794  0.83292758  0.86311512  1
  O2-  O444  1  0.41238274  0.10787220  0.19994738  1
  O2-  O445  1  0.43390605  0.08751095  0.53142342  1
  O2-  O446  1  0.44134018  0.08559420  0.86156826  1
  O2-  O447  1  0.42648089  0.36642896  0.21250048  1
  O2-  O448  1  0.43150931  0.33697935  0.52357630  1
  O2-  O449  1  0.41914951  0.32578177  0.84642017  1
  O2-  O450  1  0.42530721  0.61603816  0.18246421  1
  O2-  O451  1  0.42043405  0.60381605  0.52138178  1
  O2-  O452  1  0.42275675  0.57555706  0.84725202  1
  O2-  O453  1  0.41403315  0.84589681  0.19799110  1
  O2-  O454  1  0.43749604  0.84680120  0.53202309  1
  O2-  O455  1  0.41896874  0.82815835  0.84185570  1
  O2-  O456  1  0.64789413  0.08213859  0.19527351  1
  O2-  O457  1  0.68505349  0.08225268  0.52395210  1
  O2-  O458  1  0.66515012  0.05724395  0.83818817  1
  O2-  O459  1  0.67532944  0.33778858  0.18712431  1
  O2-  O460  1  0.66097790  0.32930644  0.52457406  1
  O2-  O461  1  0.65966161  0.37696472  0.84674380  1
  O2-  O462  1  0.67150277  0.58672857  0.18317218  1
  O2-  O463  1  0.67598954  0.59327580  0.52510411  1
  O2-  O464  1  0.66551092  0.57929074  0.85591717  1
  O2-  O465  1  0.67878624  0.86464230  0.19267805  1
  O2-  O466  1  0.67367397  0.83160378  0.50479023  1
  O2-  O467  1  0.66531648  0.83084916  0.84652141  1
  O2-  O468  1  0.87835903  0.05546700  0.17514917  1
  O2-  O469  1  0.88581984  0.08778256  0.52176643  1
  O2-  O470  1  0.92511653  0.09479075  0.84433089  1
  O2-  O471  1  0.91179913  0.32257333  0.19537820  1
  O2-  O472  1  0.91148203  0.34412835  0.52121269  1
  O2-  O473  1  0.90342369  0.31842105  0.84752726  1
  O2-  O474  1  0.94306713  0.65068821  0.19727794  1
  O2-  O475  1  0.88244090  0.55537653  0.52186003  1
  O2-  O476  1  0.93263168  0.55603579  0.86475843  1
  O2-  O477  1  0.90266986  0.82283158  0.18103964  1
  O2-  O478  1  0.92654445  0.87504339  0.52604134  1
  O2-  O479  1  0.92081061  0.84018122  0.85009463  1
  O2-  O480  1  0.15493349  0.06933233  0.30471533  1
  O2-  O481  1  0.17521781  0.09529592  0.64179533  1
  O2-  O482  1  0.17628434  0.08711401  0.96614122  1
  O2-  O483  1  0.19593681  0.31739072  0.30665016  1
  O2-  O484  1  0.17028166  0.34151390  0.64587517  1
  O2-  O485  1  0.17235697  0.33141803  0.96400347  1
  O2-  O486  1  0.19948171  0.55471189  0.30459116  1
  O2-  O487  1  0.12255935  0.56597078  0.62545523  1
  O2-  O488  1  0.12335829  0.56921145  0.96618310  1
  O2-  O489  1  0.17047658  0.83986904  0.31838989  1
  O2-  O490  1  0.17205523  0.83206371  0.63423368  1
  O2-  O491  1  0.14961087  0.83336374  0.98422501  1
  O2-  O492  1  0.40904606  0.09178532  0.32317992  1
  O2-  O493  1  0.41857456  0.10035166  0.64904769  1
  O2-  O494  1  0.41890709  0.08765350  0.98608431  1
  O2-  O495  1  0.34992869  0.32061958  0.31923056  1
  O2-  O496  1  0.42208083  0.34181100  0.64615116  1
  O2-  O497  1  0.43902450  0.34009052  0.97874750  1
  O2-  O498  1  0.40369112  0.55707877  0.34216021  1
  O2-  O499  1  0.43866043  0.58983287  0.64631414  1
  O2-  O500  1  0.43636834  0.58088384  0.96835859  1
  O2-  O501  1  0.41630949  0.83681658  0.32489280  1
  O2-  O502  1  0.45407674  0.85836326  0.66128085  1
  O2-  O503  1  0.38135418  0.83265970  0.96610467  1
  O2-  O504  1  0.65617065  0.07991299  0.31434359  1
  O2-  O505  1  0.69813908  0.05547096  0.59864377  1
  O2-  O506  1  0.65793434  0.06396877  0.95459557  1
  O2-  O507  1  0.67122569  0.34323811  0.31275588  1
  O2-  O508  1  0.66459530  0.32537005  0.64607225  1
  O2-  O509  1  0.66509212  0.32666748  0.96687473  1
  O2-  O510  1  0.67034626  0.57973119  0.30387260  1
  O2-  O511  1  0.67511712  0.59955945  0.63808481  1
  O2-  O512  1  0.67739058  0.60414457  0.96978207  1
  O2-  O513  1  0.65874964  0.82398084  0.32015506  1
  O2-  O514  1  0.66505743  0.84183591  0.67774269  1
  O2-  O515  1  0.68252746  0.85264549  0.95935103  1
  O2-  O516  1  0.94017150  0.04456305  0.27875834  1
  O2-  O517  1  0.91680495  0.09698052  0.64051780  1
  O2-  O518  1  0.94853923  0.10251783  0.96445670  1
  O2-  O519  1  0.91754920  0.32353477  0.32215270  1
  O2-  O520  1  0.92468117  0.31470815  0.64167372  1
  O2-  O521  1  0.90723239  0.29791157  0.97255899  1
  O2-  O522  1  0.91941646  0.58089177  0.31547694  1
  O2-  O523  1  0.89231268  0.55062450  0.65018523  1
  O2-  O524  1  0.89246688  0.58180694  0.99044731  1
  O2-  O525  1  0.90945741  0.82292159  0.31098484  1
  O2-  O526  1  0.89434787  0.83386963  0.64725215  1
  O2-  O527  1  0.92985050  0.84902250  0.96829141  1
  O2-  O528  1  0.11551392  0.17688793  0.01610655  1
  O2-  O529  1  0.07707998  0.15981864  0.34644954  1
  O2-  O530  1  0.08419780  0.16895788  0.67878794  1
  O2-  O531  1  0.11343061  0.43117645  0.02616616  1
  O2-  O532  1  0.09062065  0.39009616  0.35682194  1
  O2-  O533  1  0.07764532  0.41649241  0.68263861  1
  O2-  O534  1  0.06044772  0.66470697  0.02045833  1
  O2-  O535  1  0.08465453  0.67238925  0.35566847  1
  O2-  O536  1  0.05263141  0.67990983  0.69605476  1
  O2-  O537  1  0.07251614  0.91274141  0.02027243  1
  O2-  O538  1  0.07599880  0.91452319  0.35330178  1
  O2-  O539  1  0.15192064  0.95204600  0.70029925  1
  O2-  O540  1  0.33817831  0.17356347  0.01904087  1
  O2-  O541  1  0.33367928  0.17653498  0.37651138  1
  O2-  O542  1  0.33857434  0.18433085  0.68610929  1
  O2-  O543  1  0.33009475  0.44052972  0.01617974  1
  O2-  O544  1  0.41749484  0.43970692  0.40395796  1
  O2-  O545  1  0.33765600  0.42430265  0.68382812  1
  O2-  O546  1  0.45023247  0.74084360  0.02395191  1
  O2-  O547  1  0.33766648  0.66921627  0.36749645  1
  O2-  O548  1  0.42254158  0.70866066  0.71437892  1
  O2-  O549  1  0.31819853  0.92405787  0.03371651  1
  O2-  O550  1  0.33634606  0.92636134  0.36605267  1
  O2-  O551  1  0.30676632  0.95225342  0.70193192  1
  O2-  O552  1  0.57663301  0.16922943  0.04075527  1
  O2-  O553  1  0.56242149  0.13372192  0.38054860  1
  O2-  O554  1  0.58239181  0.17108828  0.69271724  1
  O2-  O555  1  0.59298891  0.41459046  0.03408998  1
  O2-  O556  1  0.59686074  0.42944636  0.34943910  1
  O2-  O557  1  0.57700025  0.40001307  0.69741546  1
  O2-  O558  1  0.59233964  0.66353629  0.01696437  1
  O2-  O559  1  0.58033594  0.65399230  0.35186272  1
  O2-  O560  1  0.60074077  0.67334362  0.68585119  1
  O2-  O561  1  0.60286400  0.92191551  0.01850459  1
  O2-  O562  1  0.58255621  0.91497571  0.36128337  1
  O2-  O563  1  0.59550798  0.91366751  0.72631767  1
  O2-  O564  1  0.81157796  0.15238192  0.02491687  1
  O2-  O565  1  0.80564765  0.16089195  0.36929762  1
  O2-  O566  1  0.82299634  0.16312797  0.67983855  1
  O2-  O567  1  0.83785542  0.39507915  0.00015073  1
  O2-  O568  1  0.83830387  0.41231365  0.35759584  1
  O2-  O569  1  0.83061884  0.38940401  0.68305603  1
  O2-  O570  1  0.83466392  0.68970102  0.01022120  1
  O2-  O571  1  0.82831059  0.65740432  0.34827525  1
  O2-  O572  1  0.82409471  0.64076586  0.68912240  1
  O2-  O573  1  0.83569259  0.92424048  -0.00146769  1
  O2-  O574  1  0.82918798  0.90979810  0.34926836  1
  O2-  O575  1  0.83370999  0.93876394  0.69373368  1
