# generated using pymatgen
data_H2O
_symmetry_space_group_name_H-M   'P 1'
_cell_length_a   17.99231209
_cell_length_b   17.99509417
_cell_length_c   21.98665234
_cell_angle_alpha   89.99584445
_cell_angle_beta   90.00818681
_cell_angle_gamma   120.05168391
_symmetry_Int_Tables_number   1
_chemical_formula_structural   H2O
_chemical_formula_sum   'H384 O192'
_cell_volume   6161.75490012
_cell_formula_units_Z   192
loop_
 _symmetry_equiv_pos_site_id
 _symmetry_equiv_pos_as_xyz
  1  'x, y, z'
loop_
 _atom_type_symbol
 _atom_type_oxidation_number
  H+  1.0
  O2-  -2.0
loop_
 _atom_site_type_symbol
 _atom_site_label
 _atom_site_symmetry_multiplicity
 _atom_site_fract_x
 _atom_site_fract_y
 _atom_site_fract_z
 _atom_site_occupancy
  H+  H0  1  0.87297887  0.38449846  0.33249555  1
  H+  H1  1  0.89710038  0.52573899  0.48192550  1
  H+  H2  1  0.13237650  0.75449305  0.67366422  1
  H+  H3  1  0.29991593  0.91640495  0.16153895  1
  H+  H4  1  0.71825286  0.36602256  0.99385089  1
  H+  H5  1  0.11021096  0.00859933  0.50588338  1
  H+  H6  1  0.73532921  0.36847196  0.33356787  1
  H+  H7  1  0.82294860  0.16719754  0.72614950  1
  H+  H8  1  0.46616720  0.59569758  0.68089982  1
  H+  H9  1  0.65528824  0.78160777  0.17175608  1
  H+  H10  1  0.83754354  0.70060125  0.34312869  1
  H+  H11  1  0.33039587  0.41109056  0.24154095  1
  H+  H12  1  0.85139649  0.13159822  0.81947711  1
  H+  H13  1  0.52782799  0.14008208  0.82750551  1
  H+  H14  1  0.12310230  0.35503156  0.85335376  1
  H+  H15  1  0.52239544  0.69464114  0.69581058  1
  H+  H16  1  0.41309355  -0.00007325  0.31637068  1
  H+  H17  1  0.92322881  0.37336154  0.58282552  1
  H+  H18  1  0.13237823  0.51138255  0.33221537  1
  H+  H19  1  0.78193696  0.25567156  -0.05765125  1
  H+  H20  1  0.01447056  0.92154618  0.82392551  1
  H+  H21  1  0.38349715  0.51695049  0.30298043  1
  H+  H22  1  0.38947643  0.85092113  0.64941979  1
  H+  H23  1  0.58409336  0.31910960  0.66411623  1
  H+  H24  1  0.31881154  0.10580249  0.06087279  1
  H+  H25  1  0.16090240  0.08805922  0.94570416  1
  H+  H26  1  0.40107548  0.77600913  0.83994901  1
  H+  H27  1  1.01517759  0.13263655  0.82347998  1
  H+  H28  1  0.83674514  0.86698188  0.33522028  1
  H+  H29  1  0.08180899  0.12181945  0.12924028  1
  H+  H30  1  0.85574802  0.71942892  0.99980006  1
  H+  H31  1  0.37704153  0.88676879  0.83044246  1
  H+  H32  1  0.01565087  0.63200685  0.32948121  1
  H+  H33  1  0.53450988  0.64417849  0.01014034  1
  H+  H34  1  0.92560361  0.62634887  0.46265022  1
  H+  H35  1  0.38521813  0.54020678  0.17238118  1
  H+  H36  1  0.63707213  0.11482493  -0.00203136  1
  H+  H37  1  0.86762318  0.87862980  0.02204902  1
  H+  H38  1  0.12674529  0.24879876  1.01099237  1
  H+  H39  1  0.84160053  0.62451943  0.65664599  1
  H+  H40  1  0.59898093  0.46906928  0.34343667  1
  H+  H41  1  0.47285381  0.36905313  0.50370563  1
  H+  H42  1  0.39753836  0.87354710  -0.00797708  1
  H+  H43  1  0.63610914  0.02036739  0.32150948  1
  H+  H44  1  0.13337697  0.62455000  0.02116910  1
  H+  H45  1  0.87419905  0.00232311  0.32268642  1
  H+  H46  1  0.75912889  0.12410824  0.51358800  1
  H+  H47  1  0.90152444  0.30692105  0.53033554  1
  H+  H48  1  0.11506171  0.97919146  0.82331730  1
  H+  H49  1  0.39685089  0.78423815  0.99644330  1
  H+  H50  1  0.76146292  0.37695028  0.81788857  1
  H+  H51  1  0.71660244  0.85422357  0.48157267  1
  H+  H52  1  0.60932092  0.93218321  0.79009124  1
  H+  H53  1  0.73493310  0.86358313  1.00919154  1
  H+  H54  1  0.34285228  0.94201886  0.67242731  1
  H+  H55  1  0.88073774  0.86529171  0.86054196  1
  H+  H56  1  0.10649337  0.70188417  0.30554309  1
  H+  H57  1  0.61347114  0.34617188  0.84184435  1
  H+  H58  1  0.86664028  0.12947380  1.00630293  1
  H+  H59  1  0.68499039  0.34936591  0.65911117  1
  H+  H60  1  0.62707433  0.72784605  0.00940370  1
  H+  H61  1  0.38184093  0.26267593  0.00315221  1
  H+  H62  1  0.52495846  0.88055778  0.84261117  1
  H+  H63  1  1.02658304  0.41053223  0.50283830  1
  H+  H64  1  0.62912981  0.02369477  0.17696481  1
  H+  H65  1  0.85800272  0.22415702  0.81729779  1
  H+  H66  1  0.67816261  0.13403737  0.50197522  1
  H+  H67  1  0.28520812  0.15118883  0.66442456  1
  H+  H68  1  0.62830982  0.77519424  0.31971769  1
  H+  H69  1  0.87274709  0.47417658  0.33286329  1
  H+  H70  1  0.14086899  0.35888632  0.33636672  1
  H+  H71  1  0.11523377  0.36211020  0.17992634  1
  H+  H72  1  0.73776362  0.61930543  0.49874656  1
  H+  H73  1  0.89183609  0.26916564  0.31060268  1
  H+  H74  1  0.19358506  0.81823536  0.34664606  1
  H+  H75  1  0.52142061  0.63218726  0.77968702  1
  H+  H76  1  0.35792944  0.34361728  0.85162905  1
  H+  H77  1  0.84132098  0.37818500  -0.00892407  1
  H+  H78  1  0.99089903  0.57683340  0.71789544  1
  H+  H79  1  0.36187157  0.71936508  0.33683600  1
  H+  H80  1  0.24028616  0.86245408  0.85093220  1
  H+  H81  1  -0.01458877  0.53516312  0.72974974  1
  H+  H82  1  0.13806551  0.77712545  0.50613567  1
  H+  H83  1  0.35473484  0.20818367  0.82297857  1
  H+  H84  1  0.09906765  0.85332256  0.65578505  1
  H+  H85  1  0.58807933  0.80701664  0.64782396  1
  H+  H86  1  0.65862820  0.31359226  0.50159903  1
  H+  H87  1  0.60399854  0.36695778  0.15137190  1
  H+  H88  1  0.70690232  0.59527880  0.32533624  1
  H+  H89  1  0.59872589  0.72447355  0.47625277  1
  H+  H90  1  0.53348384  0.88908985  1.00539776  1
  H+  H91  1  0.87453931  0.35655991  0.82193342  1
  H+  H92  1  0.63653957  0.14850507  0.34465056  1
  H+  H93  1  0.15531813  0.87748106  0.17960224  1
  H+  H94  1  0.52052848  0.89350304  0.16186802  1
  H+  H95  1  0.86933334  0.98783609  0.50330126  1
  H+  H96  1  0.79703177  0.90286314  0.91952654  1
  H+  H97  1  0.59372722  0.93912148  0.41206682  1
  H+  H98  1  0.72092010  0.87254594  0.62472538  1
  H+  H99  1  0.37772788  -0.02441010  0.82487323  1
  H+  H100  1  0.34477198  0.68131229  0.07040042  1
  H+  H101  1  0.13053031  0.74215791  0.17437327  1
  H+  H102  1  0.73038534  0.10771303  0.32227766  1
  H+  H103  1  0.36122030  0.01030987  0.49349398  1
  H+  H104  1  0.25665535  0.11519738  0.01370781  1
  H+  H105  1  0.51097475  0.63271661  0.48112152  1
  H+  H106  1  0.62179541  0.10469684  0.65316267  1
  H+  H107  1  0.12304950  0.11423108  0.32571928  1
  H+  H108  1  0.57934045  0.91969735  0.27542222  1
  H+  H109  1  0.88970038  0.00600651  1.01386386  1
  H+  H110  1  0.64354799  0.36318609  0.33974885  1
  H+  H111  1  0.63558540  0.26684922  0.16001140  1
  H+  H112  1  0.82567688  0.38811099  0.65888867  1
  H+  H113  1  0.22418891  0.35434750  0.31291902  1
  H+  H114  1  0.88003409  0.27575031  0.16520421  1
  H+  H115  1  0.37914558  0.60257036  0.32275880  1
  H+  H116  1  0.43435731  0.10187139  0.51505338  1
  H+  H117  1  0.62625788  0.14466658  0.83729254  1
  H+  H118  1  0.62652810  0.36164986  0.99428487  1
  H+  H119  1  0.82893091  0.47673095  0.65366432  1
  H+  H120  1  0.23692509  0.19808078  0.87790789  1
  H+  H121  1  0.39184181  0.12037107  0.98314831  1
  H+  H122  1  0.26519129  0.35699172  1.03042574  1
  H+  H123  1  0.43183728  0.26021809  0.69150879  1
  H+  H124  1  1.02132704  0.90322073  0.66674808  1
  H+  H125  1  0.96684983  0.36119121  0.83456549  1
  H+  H126  1  0.49088455  0.35734793  0.17055114  1
  H+  H127  1  0.12815602  1.01078330  -0.00322285  1
  H+  H128  1  0.10019970  0.21654213  0.33970495  1
  H+  H129  1  0.15586707  0.91379178  0.34307880  1
  H+  H130  1  0.22959009  0.85680459  1.00258534  1
  H+  H131  1  0.51759305  0.63512651  0.32724792  1
  H+  H132  1  0.84930127  0.42522666  0.42648901  1
  H+  H133  1  0.63656987  0.99846245  0.70430976  1
  H+  H134  1  0.10788491  0.12065216  0.03090513  1
  H+  H135  1  0.59204824  0.47008200  0.84754839  1
  H+  H136  1  0.39841057  0.78434300  0.49130906  1
  H+  H137  1  0.23582766  0.46650731  1.05524104  1
  H+  H138  1  0.38252863  0.77401115  0.17404700  1
  H+  H139  1  0.12669009  0.85917272  0.50638193  1
  H+  H140  1  0.60429510  0.62613691  0.66671929  1
  H+  H141  1  0.90596355  0.77532514  0.17486219  1
  H+  H142  1  0.90678758  0.61916851  0.16371962  1
  H+  H143  1  0.76885697  0.14185131  0.16288862  1
  H+  H144  1  0.92365262  0.37402183  0.69880765  1
  H+  H145  1  0.96423221  0.73471509  0.10541792  1
  H+  H146  1  0.11074275  0.35313551  0.51659860  1
  H+  H147  1  0.49993750  0.10689714  0.65566402  1
  H+  H148  1  0.03013214  0.88279972  0.16930469  1
  H+  H149  1  0.13940143  0.12596811  0.64927805  1
  H+  H150  1  0.80625400  0.99541281  0.68014044  1
  H+  H151  1  0.29166673  0.64918824  1.00875857  1
  H+  H152  1  0.14028435  0.73699402  0.83458559  1
  H+  H153  1  0.27099573  0.63008559  0.33842636  1
  H+  H154  1  0.61728429  0.23748052  0.83575052  1
  H+  H155  1  0.28395301  0.64776771  0.49300940  1
  H+  H156  1  0.41073540  0.63925638  0.99487230  1
  H+  H157  1  0.47882187  0.35665950  0.33224300  1
  H+  H158  1  0.92167600  0.68939820  0.80524967  1
  H+  H159  1  0.36492234  0.08499119  0.65955920  1
  H+  H160  1  0.04197601  0.61054410  0.03567807  1
  H+  H161  1  0.86204555  0.38792865  0.14791939  1
  H+  H162  1  0.65073055  0.53330259  0.71527278  1
  H+  H163  1  0.59978484  0.47060194  0.00367643  1
  H+  H164  1  0.72182129  0.35862768  0.15350847  1
  H+  H165  1  0.35924392  0.58930127  0.64407722  1
  H+  H166  1  0.15579131  0.62311391  0.81643390  1
  H+  H167  1  0.34209866  0.13799063  0.49520849  1
  H+  H168  1  0.84365850  0.91003205  0.08496489  1
  H+  H169  1  0.57559961  0.16081380  0.06744910  1
  H+  H170  1  0.36544309  0.72116840  0.65816282  1
  H+  H171  1  0.00352590  0.63645805  0.82438437  1
  H+  H172  1  0.64812273  0.86845000  1.00111930  1
  H+  H173  1  0.86618019  0.12064334  0.31813268  1
  H+  H174  1  0.07547862  0.41328436  0.40327613  1
  H+  H175  1  0.32727154  0.49101874  0.63040767  1
  H+  H176  1  0.13568071  0.03106873  0.32354544  1
  H+  H177  1  0.39798178  0.99500952  0.15312394  1
  H+  H178  1  0.86338729  0.07300999  0.50576387  1
  H+  H179  1  0.24675425  0.39409949  0.17625072  1
  H+  H180  1  0.36501714  -0.01746782  1.00106463  1
  H+  H181  1  0.62028509  0.97834140  0.00574038  1
  H+  H182  1  0.86811795  0.51349417  0.97191141  1
  H+  H183  1  0.72719980  0.12596591  0.83956489  1
  H+  H184  1  0.36573254  0.38099587  0.29818451  1
  H+  H185  1  0.53544823  0.66707556  0.16076979  1
  H+  H186  1  0.14484732  0.76364443  0.00684417  1
  H+  H187  1  0.17971566  0.57219030  0.76991102  1
  H+  H188  1  0.58347091  0.17308599  0.50017188  1
  H+  H189  1  0.13754602  1.03621405  0.65088536  1
  H+  H190  1  0.21159443  0.35749581  0.85455362  1
  H+  H191  1  0.91496880  0.19614209  0.55529757  1
  H+  H192  1  0.38894693  0.86641801  0.17488313  1
  H+  H193  1  0.89635260  0.92385663  0.66884493  1
  H+  H194  1  0.63242107  0.99352987  0.47345399  1
  H+  H195  1  0.41445438  0.54203175  0.84373356  1
  H+  H196  1  0.44355290  0.13811279  0.29492261  1
  H+  H197  1  1.05614248  0.38870767  0.66799468  1
  H+  H198  1  0.58965381  0.47876423  0.50048915  1
  H+  H199  1  0.91127226  0.79858777  0.83720440  1
  H+  H200  1  0.82674847  0.01583127  0.70999485  1
  H+  H201  1  0.10729889  0.10128877  0.50194586  1
  H+  H202  1  0.82672159  0.16338724  0.10412307  1
  H+  H203  1  0.70709387  0.58745073  0.17213031  1
  H+  H204  1  -0.03015089  0.36626349  0.16210581  1
  H+  H205  1  0.17719910  0.82695910  0.90855005  1
  H+  H206  1  0.16271626  0.64120105  0.66543194  1
  H+  H207  1  0.60637115  0.11890777  0.16604530  1
  H+  H208  1  0.63027015  0.86972645  0.31655055  1
  H+  H209  1  0.59855938  0.39279115  0.50025067  1
  H+  H210  1  0.02251203  0.37973288  0.33976503  1
  H+  H211  1  0.58483472  0.20023228  0.65626877  1
  H+  H212  1  0.04212952  0.63949941  0.48151591  1
  H+  H213  1  0.88609547  0.75236122  0.65155504  1
  H+  H214  1  0.26965489  0.12348106  0.82459642  1
  H+  H215  1  0.86785851  0.75139148  0.49960704  1
  H+  H216  1  0.37813890  0.27811776  0.17661560  1
  H+  H217  1  0.32976621  0.12367479  0.34891177  1
  H+  H218  1  0.85517146  0.21175540  -0.00264198  1
  H+  H219  1  0.72544349  0.11116312  0.99811158  1
  H+  H220  1  0.46826847  0.35276259  0.99456987  1
  H+  H221  1  0.95551885  0.01726911  0.17283108  1
  H+  H222  1  0.84941847  0.86112936  0.48836238  1
  H+  H223  1  0.87291732  0.71199146  0.75450768  1
  H+  H224  1  0.14450345  0.14287236  0.84929263  1
  H+  H225  1  0.32014395  0.17642766  0.43683107  1
  H+  H226  1  0.66652937  0.07619065  0.60142234  1
  H+  H227  1  0.27089441  0.63811661  0.16216267  1
  H+  H228  1  0.14231764  0.61923219  0.18586616  1
  H+  H229  1  0.60168824  0.45640273  0.15945403  1
  H+  H230  1  0.90269004  0.04213323  0.25727262  1
  H+  H231  1  0.48240093  0.85900076  0.32363225  1
  H+  H232  1  0.81903835  0.60638975  0.50111912  1
  H+  H233  1  0.02151977  0.12246179  0.03967218  1
  H+  H234  1  0.19747753  0.40632537  0.66169150  1
  H+  H235  1  0.37847613  0.90223964  0.47551510  1
  H+  H236  1  0.39462706  0.90068879  0.32634629  1
  H+  H237  1  0.89664554  0.86034405  0.18272822  1
  H+  H238  1  0.36409918  0.47679310  0.47668507  1
  H+  H239  1  0.47760306  0.33865427  0.83589276  1
  H+  H240  1  0.86654460  1.01846322  0.85884375  1
  H+  H241  1  1.04108885  0.17104226  0.66240341  1
  H+  H242  1  0.95229879  0.60342541  0.96125633  1
  H+  H243  1  0.38340869  0.61148431  0.49511300  1
  H+  H244  1  0.63494071  0.86937590  0.47697682  1
  H+  H245  1  0.09840640  0.22525459  0.82829225  1
  H+  H246  1  0.36376311  0.64433586  0.16118759  1
  H+  H247  1  0.77253460  0.60418241  0.70890996  1
  H+  H248  1  0.84894201  0.62767040  0.99100657  1
  H+  H249  1  0.23630458  0.61861649  0.66270873  1
  H+  H250  1  0.76234309  0.14350764  0.66703460  1
  H+  H251  1  0.35972486  0.37727687  0.02929528  1
  H+  H252  1  0.39284522  0.10736898  0.83066776  1
  H+  H253  1  0.90642142  0.92587467  0.70228535  1
  H+  H254  1  0.59806425  0.89547232  0.70727750  1
  H+  H255  1  0.89607379  0.15770518  0.64384824  1
  H+  H256  1  0.59806603  0.73790565  0.85323324  1
  H+  H257  1  0.71374918  0.59957462  0.98930831  1
  H+  H258  1  0.52615287  0.13704722  0.31991705  1
  H+  H259  1  0.10967640  0.47025507  0.82794032  1
  H+  H260  1  0.15301330  0.62327537  0.50680034  1
  H+  H261  1  0.87622535  0.60193143  0.32508246  1
  H+  H262  1  0.38849782  0.64942666  0.81936481  1
  H+  H263  1  0.10972750  0.48356289  0.16433200  1
  H+  H264  1  0.62902406  0.60543001  -0.00826679  1
  H+  H265  1  0.69963865  0.64282936  0.65551064  1
  H+  H266  1  -0.01360694  0.61070502  0.17961085  1
  H+  H267  1  0.38485465  0.26808192  0.32720369  1
  H+  H268  1  0.63568078  0.58887954  0.56928771  1
  H+  H269  1  0.86888377  0.68021604  0.08278021  1
  H+  H270  1  0.25387630  0.14141132  0.33658354  1
  H+  H271  1  0.11460523  0.87581499  1.01228099  1
  H+  H272  1  0.16082249  0.38939646  1.02181080  1
  H+  H273  1  0.86980191  0.27935712  0.67019802  1
  H+  H274  1  0.87259777  0.40814815  0.49471602  1
  H+  H275  1  0.75099471  0.87066011  0.85869839  1
  H+  H276  1  0.93513042  0.83913362  0.33891783  1
  H+  H277  1  0.97704663  0.85442349  1.00097781  1
  H+  H278  1  0.37856960  0.36717983  0.49497542  1
  H+  H279  1  0.12991848  0.59953855  0.32900878  1
  H+  H280  1  0.11040509  0.97567033  0.16244037  1
  H+  H281  1  0.12228916  0.48707551  0.49619670  1
  H+  H282  1  0.11116357  0.26515638  0.51816508  1
  H+  H283  1  0.60942449  0.22765139  1.01077163  1
  H+  H284  1  0.12318312  0.48776623  0.67655770  1
  H+  H285  1  0.17549237  0.52222500  1.00113922  1
  H+  H286  1  0.61519232  0.61401889  0.50313434  1
  H+  H287  1  0.06524985  0.88940467  0.32138747  1
  H+  H288  1  0.33533298  0.66908759  0.42943114  1
  H+  H289  1  0.34224700  0.41605915  0.41863965  1
  H+  H290  1  0.57545722  0.66485836  0.38692595  1
  H+  H291  1  0.49786446  0.80701207  0.65548507  1
  H+  H292  1  0.68045390  0.53809992  0.78337802  1
  H+  H293  1  0.71060849  0.81162692  0.74762147  1
  H+  H294  1  0.41460732  0.82541401  0.26924272  1
  H+  H295  1  0.65994519  0.08734947  0.23687917  1
  H+  H296  1  0.66441148  0.82681913  0.56633334  1
  H+  H297  1  0.10470015  0.67684769  0.11829065  1
  H+  H298  1  0.91051999  0.58004568  0.26307305  1
  H+  H299  1  0.15007418  0.08041863  0.56869012  1
  H+  H300  1  0.43101624  0.32900330  0.24038787  1
  H+  H301  1  0.92914271  0.21933796  0.48485838  1
  H+  H302  1  0.74945253  0.81688527  0.76421967  1
  H+  H303  1  0.95889127  0.61544106  0.63713042  1
  H+  H304  1  0.42454434  0.83324808  0.90265608  1
  H+  H305  1  0.34148500  0.89872256  0.73538246  1
  H+  H306  1  0.56973731  0.40826935  0.06286781  1
  H+  H307  1  0.80591215  0.63805434  0.40096024  1
  H+  H308  1  0.37364165  0.04523781  0.59779865  1
  H+  H309  1  0.42741030  0.08798392  0.89222575  1
  H+  H310  1  0.95608548  0.05485717  0.96148771  1
  H+  H311  1  0.68667825  0.84124619  0.23719329  1
  H+  H312  1  0.20019119  0.36927046  0.59834647  1
  H+  H313  1  0.14142537  0.32487174  0.23682535  1
  H+  H314  1  0.52164193  0.34816528  0.77179665  1
  H+  H315  1  0.64332670  0.54573347  0.89463499  1
  H+  H316  1  0.36604330  0.94228774  0.41415306  1
  H+  H317  1  0.38463179  0.30746541  0.90974771  1
  H+  H318  1  0.08698206  0.90998720  0.07054097  1
  H+  H319  1  0.65819133  0.33402988  0.90196652  1
  H+  H320  1  0.12944210  0.70129496  0.76722778  1
  H+  H321  1  0.63764585  0.24192036  0.34530586  1
  H+  H322  1  0.65019022  0.55787576  0.23196574  1
  H+  H323  1  0.86395114  0.47722916  0.14938316  1
  H+  H324  1  0.14128483  0.08446600  0.23158519  1
  H+  H325  1  0.44320269  0.61152587  0.93633159  1
  H+  H326  1  0.60813079  0.86354985  0.84626961  1
  H+  H327  1  0.81072614  0.41109216  0.75533302  1
  H+  H328  1  0.85041816  0.15886589  0.37792344  1
  H+  H329  1  0.76387269  0.86982647  0.17912340  1
  H+  H330  1  0.90803825  0.10267105  0.89800732  1
  H+  H331  1  0.01195910  0.12450064  0.33200118  1
  H+  H332  1  0.92039522  0.33623755  0.25608049  1
  H+  H333  1  0.11073577  0.81059559  0.59424298  1
  H+  H334  1  0.35112741  0.67434186  0.72341629  1
  H+  H335  1  0.48677239  0.87456894  0.49016072  1
  H+  H336  1  0.10507899  0.67433735  0.42547519  1
  H+  H337  1  0.22743753  0.78646355  0.69471989  1
  H+  H338  1  0.06286600  0.14962461  0.43149882  1
  H+  H339  1  0.37629190  0.27106879  0.50218150  1
  H+  H340  1  1.00014670  0.11081478  0.48971398  1
  H+  H341  1  0.48115551  0.12133573  0.98959438  1
  H+  H342  1  0.90149974  0.81262072  0.27034769  1
  H+  H343  1  0.92288347  0.10494816  0.59802146  1
  H+  H344  1  0.64180818  0.80088885  0.91171457  1
  H+  H345  1  0.30141734  0.19369061  0.10566130  1
  H+  H346  1  0.15201011  0.30426567  0.94734805  1
  H+  H347  1  0.08269455  0.40720695  0.77338626  1
  H+  H348  1  0.92078026  0.83448847  0.94054906  1
  H+  H349  1  0.40215390  0.56922346  0.55300718  1
  H+  H350  1  0.58442588  0.92635248  0.10498043  1
  H+  H351  1  0.27796900  0.90140792  0.32436427  1
  H+  H352  1  0.00640917  0.87356855  0.48651445  1
  H+  H353  1  0.62310065  0.60536028  0.32065998  1
  H+  H354  1  0.47981618  0.35891815  0.67594493  1
  H+  H355  1  0.98082371  0.78518257  0.62816100  1
  H+  H356  1  0.87242827  0.31060680  0.91283278  1
  H+  H357  1  0.08158388  0.16716669  0.72610257  1
  H+  H358  1  0.91392404  0.59129573  0.57301957  1
  H+  H359  1  0.41838924  0.83172419  0.58365557  1
  H+  H360  1  0.07420168  0.94536381  0.72719624  1
  H+  H361  1  0.67133025  0.09796259  0.90304634  1
  H+  H362  1  0.57040358  0.41522075  0.40602043  1
  H+  H363  1  0.75496284  0.87949360  0.33846181  1
  H+  H364  1  0.64191232  0.33849873  0.56727586  1
  H+  H365  1  0.07569807  0.91394635  0.43160766  1
  H+  H366  1  0.62295975  0.18963158  0.43357887  1
  H+  H367  1  0.10750693  0.43215512  0.10506022  1
  H+  H368  1  0.83428375  0.42155363  0.05409637  1
  H+  H369  1  0.59700071  0.68665318  0.10346742  1
  H+  H370  1  0.24182346  0.16174625  0.16425071  1
  H+  H371  1  0.32084030  0.40795248  0.12988733  1
  H+  H372  1  0.42283413  0.60125185  0.22848619  1
  H+  H373  1  0.49201624  0.11107565  0.21345798  1
  H+  H374  1  0.16995863  0.57854022  0.23990001  1
  H+  H375  1  0.92100052  0.59513422  0.86768896  1
  H+  H376  1  0.82501697  0.89725766  0.42755763  1
  H+  H377  1  0.34495928  0.92944090  0.06321595  1
  H+  H378  1  0.32580810  0.15258355  0.72943657  1
  H+  H379  1  0.17877017  0.59493918  0.56901165  1
  H+  H380  1  0.29610681  0.64295236  0.81517079  1
  H+  H381  1  0.91102884  0.80896439  0.55816859  1
  H+  H382  1  0.18087703  0.57541884  0.94056049  1
  H+  H383  1  0.19564729  0.85640636  0.23772624  1
  O2-  O384  1  0.06888254  0.09850332  0.17198985  1
  O2-  O385  1  0.06166911  0.14611095  0.47700885  1
  O2-  O386  1  0.07592566  0.16640313  0.81096612  1
  O2-  O387  1  0.07834600  0.42578546  0.14456280  1
  O2-  O388  1  0.08181608  0.42745074  0.48178235  1
  O2-  O389  1  0.07549505  0.40787773  0.81836724  1
  O2-  O390  1  0.09724442  0.67994155  0.16279660  1
  O2-  O391  1  0.10430342  0.67338501  0.47027619  1
  O2-  O392  1  0.11478073  0.68100144  0.81029737  1
  O2-  O393  1  0.08927387  0.91455564  0.15125101  1
  O2-  O394  1  0.06875820  0.91254124  0.47630105  1
  O2-  O395  1  0.06414837  0.96501206  0.79944948  1
  O2-  O396  1  0.30205965  0.19733609  0.15014931  1
  O2-  O397  1  0.32875919  0.18282576  0.48141375  1
  O2-  O398  1  0.32781696  0.14857469  0.80665399  1
  O2-  O399  1  0.31161346  0.42777340  0.16996005  1
  O2-  O400  1  0.33915385  0.41543938  0.46283061  1
  O2-  O401  1  0.33068192  0.42520983  0.83385569  1
  O2-  O402  1  0.33058400  0.67239955  0.14575406  1
  O2-  O403  1  0.34275594  0.67647177  0.47463758  1
  O2-  O404  1  0.35794777  0.67956830  0.80446854  1
  O2-  O405  1  0.35610684  0.93494064  0.14160259  1
  O2-  O406  1  0.35027334  0.93280882  0.45782008  1
  O2-  O407  1  0.34472812  0.91379607  0.81357955  1
  O2-  O408  1  0.57375576  0.14922071  0.14524356  1
  O2-  O409  1  0.63806300  0.19920351  0.47867368  1
  O2-  O410  1  0.59217543  0.17554128  0.81882724  1
  O2-  O411  1  0.56803318  0.39587525  0.14188802  1
  O2-  O412  1  0.56224083  0.41851133  0.48417114  1
  O2-  O413  1  0.53406628  0.35982536  0.81590043  1
  O2-  O414  1  0.59644523  0.69792798  0.14792421  1
  O2-  O415  1  0.57149496  0.66223985  0.46503014  1
  O2-  O416  1  0.53075917  0.63734045  0.82558224  1
  O2-  O417  1  0.58149617  0.93046832  0.14976079  1
  O2-  O418  1  0.59548153  0.93479820  0.45658793  1
  O2-  O419  1  0.59067398  0.90850027  0.83617456  1
  O2-  O420  1  0.82894820  0.17370220  0.14828099  1
  O2-  O421  1  0.88691165  0.20389634  0.51734539  1
  O2-  O422  1  0.82288963  0.16284449  0.80356346  1
  O2-  O423  1  0.83377798  0.41947695  0.13029172  1
  O2-  O424  1  0.84893827  0.43854164  0.47076634  1
  O2-  O425  1  0.81697683  0.39586420  0.79743047  1
  O2-  O426  1  0.90582698  0.70018244  0.12100656  1
  O2-  O427  1  0.79781327  0.64103381  0.48157724  1
  O2-  O428  1  0.91108139  0.73627408  0.78975359  1
  O2-  O429  1  0.85068424  0.90622638  0.15859355  1
  O2-  O430  1  0.82230208  0.89472837  0.47335956  1
  O2-  O431  1  0.80889564  0.90998620  0.87582468  1
  O2-  O432  1  0.13841683  0.08014810  0.18541710  1
  O2-  O433  1  0.13836210  0.07061323  0.52002785  1
  O2-  O434  1  0.19030363  0.13847948  0.87286473  1
  O2-  O435  1  0.14705083  0.33267016  0.19222771  1
  O2-  O436  1  0.11799002  0.31305572  0.54343016  1
  O2-  O437  1  0.15109687  0.32222560  0.86766608  1
  O2-  O438  1  0.16969679  0.58397734  0.19444233  1
  O2-  O439  1  0.18185538  0.59274354  0.52385160  1
  O2-  O440  1  0.18177548  0.58336982  0.81361447  1
  O2-  O441  1  0.19066497  0.85152899  0.19280041  1
  O2-  O442  1  0.15156269  0.82961649  0.52921011  1
  O2-  O443  1  0.17925521  0.82870337  0.86363510  1
  O2-  O444  1  0.48471722  0.10504433  0.16824923  1
  O2-  O445  1  0.37263546  0.06403448  0.51871653  1
  O2-  O446  1  0.42991147  0.08513446  0.84669578  1
  O2-  O447  1  0.42895638  0.33318060  0.19389739  1
  O2-  O448  1  0.40732037  0.33636100  0.51582798  1
  O2-  O449  1  0.37152106  0.29876187  0.86477081  1
  O2-  O450  1  0.42146518  0.60234601  0.18278849  1
  O2-  O451  1  0.40986497  0.57619275  0.50745466  1
  O2-  O452  1  0.44441389  0.60544023  0.85083186  1
  O2-  O453  1  0.41468204  0.83321853  0.19200002  1
  O2-  O454  1  0.42715255  0.84531428  0.50593130  1
  O2-  O455  1  0.43012016  0.83590715  0.85687749  1
  O2-  O456  1  0.65729009  0.08629883  0.19113876  1
  O2-  O457  1  0.69604782  0.09231006  0.51588726  1
  O2-  O458  1  0.66925739  0.10512901  0.85807273  1
  O2-  O459  1  0.66090670  0.32909667  0.16660893  1
  O2-  O460  1  0.65528649  0.35890895  0.52430490  1
  O2-  O461  1  0.65593443  0.32926524  0.85643064  1
  O2-  O462  1  0.64904142  0.55023196  0.18682002  1
  O2-  O463  1  0.64050097  0.58199563  0.52437442  1
  O2-  O464  1  0.63304869  0.53195625  0.85080726  1
  O2-  O465  1  0.69745736  0.84259796  0.19139881  1
  O2-  O466  1  0.65460651  0.82979617  0.49243804  1
  O2-  O467  1  0.63651876  0.79909147  0.86665246  1
  O2-  O468  1  0.89396691  -0.00418077  0.18143931  1
  O2-  O469  1  0.89865979  0.04901731  0.51937766  1
  O2-  O470  1  0.90248521  0.08255478  0.85608975  1
  O2-  O471  1  0.91042544  0.33811200  0.17892897  1
  O2-  O472  1  0.92502336  0.36922107  0.53795717  1
  O2-  O473  1  0.90363117  0.32676380  0.84182953  1
  O2-  O474  1  0.92309894  0.58114442  0.18595494  1
  O2-  O475  1  0.93328115  0.59351775  0.49483008  1
  O2-  O476  1  0.94098502  0.61583104  0.82639603  1
  O2-  O477  1  0.92749851  0.82851396  0.19938629  1
  O2-  O478  1  0.90334372  0.81230827  0.51265977  1
  O2-  O479  1  0.92501589  0.84887199  0.86611574  1
  O2-  O480  1  0.15848559  0.09010731  0.30713286  1
  O2-  O481  1  0.16843743  0.09475347  0.63101653  1
  O2-  O482  1  0.15746846  0.07443622  0.99000508  1
  O2-  O483  1  0.16062819  0.32088337  0.31865648  1
  O2-  O484  1  0.23655893  0.39962008  0.63415966  1
  O2-  O485  1  0.16003940  0.30665585  0.99224325  1
  O2-  O486  1  0.16378040  0.57235318  0.31657500  1
  O2-  O487  1  0.17349929  0.59418566  0.65218394  1
  O2-  O488  1  0.18365998  0.57858244  0.98486087  1
  O2-  O489  1  0.21167300  0.86762894  0.31986359  1
  O2-  O490  1  0.08231210  0.79715601  0.63632526  1
  O2-  O491  1  0.16750512  0.82235158  0.99085846  1
  O2-  O492  1  0.47403814  0.10638404  0.29118122  1
  O2-  O493  1  0.38412680  0.04623886  0.64230719  1
  O2-  O494  1  0.42292598  0.09113084  0.96943967  1
  O2-  O495  1  0.42148861  0.32643378  0.30986380  1
  O2-  O496  1  0.48783914  0.31535742  0.69634247  1
  O2-  O497  1  0.40534958  0.31904702  0.98353636  1
  O2-  O498  1  0.41520601  0.58134217  0.30326871  1
  O2-  O499  1  0.37962460  0.55087521  0.62805513  1
  O2-  O500  1  0.44042042  0.60841916  0.98100795  1
  O2-  O501  1  0.41744577  0.82685047  0.31487085  1
  O2-  O502  1  0.41519487  0.81982905  0.62832873  1
  O2-  O503  1  0.42771604  0.84313489  0.97755157  1
  O2-  O504  1  0.66866361  0.08562160  0.31344850  1
  O2-  O505  1  0.66356652  0.08228479  0.64588218  1
  O2-  O506  1  0.66671810  0.08545388  0.98008397  1
  O2-  O507  1  0.67315523  0.33361981  0.32368687  1
  O2-  O508  1  0.62681389  0.30952243  0.64242450  1
  O2-  O509  1  0.65718380  0.33088916  0.98005556  1
  O2-  O510  1  0.64714506  0.56741592  0.30920771  1
  O2-  O511  1  0.63860170  0.60394947  0.64625587  1
  O2-  O512  1  0.65282719  0.56886184  0.97628189  1
  O2-  O513  1  0.66430547  0.83673681  0.30743511  1
  O2-  O514  1  0.54181386  0.79903019  0.67764315  1
  O2-  O515  1  0.67953711  0.83859853  0.98638011  1
  O2-  O516  1  0.90741020  0.05893902  0.30074387  1
  O2-  O517  1  0.94235574  0.16171721  0.61627526  1
  O2-  O518  1  0.92499823  0.06512834  0.99373636  1
  O2-  O519  1  0.92219340  0.33156232  0.30173126  1
  O2-  O520  1  0.90061818  0.34347647  0.66064034  1
  O2-  O521  1  0.84212751  0.29228861  0.95364114  1
  O2-  O522  1  0.91388309  0.58045428  0.30866487  1
  O2-  O523  1  0.90257674  0.58570478  0.61767387  1
  O2-  O524  1  0.89094700  0.57221193  0.95298283  1
  O2-  O525  1  0.88336771  0.80516826  0.31501383  1
  O2-  O526  1  0.93379927  0.79961306  0.62827827  1
  O2-  O527  1  0.91649352  0.82806300  0.98636312  1
  O2-  O528  1  0.08227973  0.15076769  0.05333983  1
  O2-  O529  1  0.06882355  0.15470312  0.35300100  1
  O2-  O530  1  0.08874454  0.16767428  0.68148262  1
  O2-  O531  1  0.17701669  0.44659592  0.04149141  1
  O2-  O532  1  0.08122999  0.41071655  0.35812957  1
  O2-  O533  1  0.10339234  0.42911064  0.69369669  1
  O2-  O534  1  0.10275039  0.65277155  0.03981241  1
  O2-  O535  1  0.07928289  0.66257262  0.33947479  1
  O2-  O536  1  0.16894475  0.73475030  0.69507633  1
  O2-  O537  1  0.08438292  0.90731498  0.02519765  1
  O2-  O538  1  0.10899181  0.92818201  0.35000762  1
  O2-  O539  1  0.08056902  0.93875799  0.68214937  1
  O2-  O540  1  0.31781056  0.14413806  0.02980994  1
  O2-  O541  1  0.31320144  0.16691232  0.35563839  1
  O2-  O542  1  0.33912397  0.16344796  0.68503678  1
  O2-  O543  1  0.32071439  0.39148109  0.05131218  1
  O2-  O544  1  0.33261866  0.40984426  0.28745391  1
  O2-  O545  1  0.31122630  0.42130913  0.77661973  1
  O2-  O546  1  0.35065699  0.68529619  0.02475756  1
  O2-  O547  1  0.33209354  0.65877923  0.35220704  1
  O2-  O548  1  0.33722713  0.66381636  0.67926413  1
  O2-  O549  1  0.33759219  0.92331602  0.01804632  1
  O2-  O550  1  0.37382006  0.94304887  0.33498065  1
  O2-  O551  1  0.33089607  0.88638974  0.69086816  1
  O2-  O552  1  0.57945788  0.16530152  0.02194068  1
  O2-  O553  1  0.60699300  0.17922572  0.36122487  1
  O2-  O554  1  0.56083637  0.13937672  0.66860686  1
  O2-  O555  1  0.56980855  0.40852437  0.01744772  1
  O2-  O556  1  0.57279403  0.40967905  0.36091806  1
  O2-  O557  1  0.69333518  0.52882027  0.74057528  1
  O2-  O558  1  0.59570996  0.66821815  0.02523674  1
  O2-  O559  1  0.57887705  0.66712001  0.34140562  1
  O2-  O560  1  0.51815373  0.63801713  0.70413426  1
  O2-  O561  1  0.59335505  0.91845785  0.02158126  1
  O2-  O562  1  0.58475444  0.91835627  0.31968514  1
  O2-  O563  1  0.63334780  0.95135743  0.72968932  1
  O2-  O564  1  0.83287403  0.15619361  0.01887106  1
  O2-  O565  1  0.84219168  0.15716958  0.33410488  1
  O2-  O566  1  0.82441500  0.17732745  0.68125205  1
  O2-  O567  1  0.82687431  0.42056332  0.00851638  1
  O2-  O568  1  0.84512853  0.41548955  0.35075831  1
  O2-  O569  1  0.79604699  0.41901685  0.67214677  1
  O2-  O570  1  0.82570312  0.65866539  0.01499333  1
  O2-  O571  1  0.81163275  0.63941326  0.35582081  1
  O2-  O572  1  0.81502128  0.65200493  0.68035828  1
  O2-  O573  1  0.83915634  0.91016633  0.03852677  1
  O2-  O574  1  0.81694041  0.90464963  0.35340043  1
  O2-  O575  1  0.67110530  0.81960085  0.61099580  1
