# generated using pymatgen
data_H2O
_symmetry_space_group_name_H-M   'P 1'
_cell_length_a   17.98030066
_cell_length_b   17.98067066
_cell_length_c   21.98309435
_cell_angle_alpha   90.03297750
_cell_angle_beta   89.99434633
_cell_angle_gamma   119.98733377
_symmetry_Int_Tables_number   1
_chemical_formula_structural   H2O
_chemical_formula_sum   'H384 O192'
_cell_volume   6155.70254086
_cell_formula_units_Z   192
loop_
 _symmetry_equiv_pos_site_id
 _symmetry_equiv_pos_as_xyz
  1  'x, y, z'
loop_
 _atom_type_symbol
 _atom_type_oxidation_number
  H+  1.0
  O2-  -2.0
loop_
 _atom_site_type_symbol
 _atom_site_label
 _atom_site_symmetry_multiplicity
 _atom_site_fract_x
 _atom_site_fract_y
 _atom_site_fract_z
 _atom_site_occupancy
  H+  H0  1  0.61564917  0.22997054  0.83583201  1
  H+  H1  1  -0.02211410  0.61702347  0.84388790  1
  H+  H2  1  0.11931408  0.63652193  0.67285725  1
  H+  H3  1  0.13996463  0.54973470  0.00698346  1
  H+  H4  1  0.77401340  0.38896525  0.34565021  1
  H+  H5  1  0.37288801  0.36044218  0.33857574  1
  H+  H6  1  0.83380900  0.23559544  1.01316761  1
  H+  H7  1  0.37986167  0.66666538  0.48811087  1
  H+  H8  1  0.85369432  0.71737273  0.19106304  1
  H+  H9  1  0.87053996  0.73436859  0.49960914  1
  H+  H10  1  0.41849298  0.07689942  0.93934775  1
  H+  H11  1  0.66913661  0.34419626  0.59486866  1
  H+  H12  1  0.89869814  0.05699048  0.60009935  1
  H+  H13  1  0.36200570  0.10820328  1.00697298  1
  H+  H14  1  0.45227637  0.89697205  0.16255274  1
  H+  H15  1  0.02314820  0.63060883  0.16887326  1
  H+  H16  1  0.82832929  0.95663330  0.69957394  1
  H+  H17  1  0.77937818  0.13592605  0.83060411  1
  H+  H18  1  0.36271391  0.22200295  0.83326845  1
  H+  H19  1  0.11597864  0.96867824  0.15562915  1
  H+  H20  1  0.11430278  0.96672305  0.82488443  1
  H+  H21  1  0.48552268  0.87983249  0.49330790  1
  H+  H22  1  1.02259565  0.10961390  0.81888299  1
  H+  H23  1  0.86248873  0.40155823  0.66798030  1
  H+  H24  1  -0.01311918  0.62340209  0.50667412  1
  H+  H25  1  0.42546508  0.34533104  0.42017626  1
  H+  H26  1  -0.00560154  0.21104589  0.38813798  1
  H+  H27  1  0.89713680  0.62533537  0.50678434  1
  H+  H28  1  0.36648954  0.59446331  0.85545874  1
  H+  H29  1  0.98207668  0.63570820  0.99754296  1
  H+  H30  1  -0.01695081  0.87315078  0.66154010  1
  H+  H31  1  0.62610067  0.65115922  0.48646573  1
  H+  H32  1  0.03128394  0.41496858  0.01238093  1
  H+  H33  1  0.14017069  0.38916413  1.01244554  1
  H+  H34  1  0.11965778  0.28814971  0.33761493  1
  H+  H35  1  0.66527058  0.33034097  0.91439389  1
  H+  H36  1  0.64954898  0.80247622  0.66335539  1
  H+  H37  1  0.27157917  0.88830914  0.82528793  1
  H+  H38  1  0.51226877  0.80316204  0.86244064  1
  H+  H39  1  0.36451857  0.89377163  0.82869376  1
  H+  H40  1  0.53610969  0.90696811  0.32731604  1
  H+  H41  1  0.89227281  0.27315028  0.83913420  1
  H+  H42  1  0.76496646  0.14220084  0.33997089  1
  H+  H43  1  0.14951815  0.86155500  0.17601998  1
  H+  H44  1  0.54713292  0.66613210  0.66506853  1
  H+  H45  1  0.62678579  0.10696123  -0.00160014  1
  H+  H46  1  0.38348742  0.63495231  0.32702331  1
  H+  H47  1  0.36511118  0.13438386  0.67559865  1
  H+  H48  1  0.96897687  0.36584882  0.33707610  1
  H+  H49  1  0.09440904  0.66988101  0.43537270  1
  H+  H50  1  0.04803067  0.27031651  0.53608152  1
  H+  H51  1  0.24041090  0.87025498  0.50725165  1
  H+  H52  1  0.13422819  0.09482983  0.84011381  1
  H+  H53  1  0.42312373  0.09100217  0.60172323  1
  H+  H54  1  0.39665039  0.61174625  0.65623722  1
  H+  H55  1  0.14727722  0.77755646  0.83398490  1
  H+  H56  1  0.52300023  0.89895039  0.81955329  1
  H+  H57  1  0.18585343  0.59889472  0.60167570  1
  H+  H58  1  0.78130529  0.88225076  0.15725713  1
  H+  H59  1  0.10914591  0.12276821  0.66328236  1
  H+  H60  1  0.10028214  0.20197800  0.50005950  1
  H+  H61  1  0.88960282  0.52680555  0.84721084  1
  H+  H62  1  0.76959129  0.37949695  0.16266523  1
  H+  H63  1  0.11414462  -0.05140513  1.00514984  1
  H+  H64  1  0.12022498  0.40278422  0.84200950  1
  H+  H65  1  0.40327323  0.39449745  0.99796678  1
  H+  H66  1  0.41360062  0.86326238  0.25875105  1
  H+  H67  1  0.11172379  0.39834667  0.49965641  1
  H+  H68  1  0.61560014  -0.01783576  0.48591325  1
  H+  H69  1  0.22804109  0.62313287  0.18062572  1
  H+  H70  1  0.52268042  0.88392029  0.00910208  1
  H+  H71  1  0.52745490  0.13855941  0.33479959  1
  H+  H72  1  0.60784566  0.59532708  0.33620665  1
  H+  H73  1  0.61719395  0.13903797  0.33948754  1
  H+  H74  1  0.25915725  0.10099049  1.00516627  1
  H+  H75  1  0.66898757  0.85729405  0.60251097  1
  H+  H76  1  0.78488219  0.64941535  0.66356311  1
  H+  H77  1  -0.03576922  0.09664666  0.50755836  1
  H+  H78  1  0.54947394  0.14947597  0.17619586  1
  H+  H79  1  0.06815465  0.41560824  0.58341425  1
  H+  H80  1  0.85803555  0.12779788  0.67492920  1
  H+  H81  1  0.53627399  0.65106371  0.48802922  1
  H+  H82  1  0.72704039  0.86587465  -0.00692582  1
  H+  H83  1  0.36656378  0.21530267  0.16093709  1
  H+  H84  1  0.83452535  0.42826867  0.07545775  1
  H+  H85  1  0.84784556  0.21191797  0.50138258  1
  H+  H86  1  0.62268461  0.37708509  0.16413781  1
  H+  H87  1  0.76986251  0.88887185  0.49015774  1
  H+  H88  1  0.36322058  0.13469417  0.49333456  1
  H+  H89  1  0.98093656  0.85859314  0.17065794  1
  H+  H90  1  0.98967985  0.60787585  0.32994249  1
  H+  H91  1  0.64443324  0.12584421  0.17921392  1
  H+  H92  1  0.87302321  1.01203273  0.50257832  1
  H+  H93  1  0.59047640  -0.01294161  0.16518938  1
  H+  H94  1  0.62205133  0.46437575  0.14494191  1
  H+  H95  1  0.86078194  0.24298822  0.34516581  1
  H+  H96  1  0.38389905  0.35275869  0.63327316  1
  H+  H97  1  0.37528768  0.73062804  0.82126865  1
  H+  H98  1  0.49694029  0.33250090  0.02279683  1
  H+  H99  1  0.64101335  0.27534542  0.33492149  1
  H+  H100  1  0.62999443  0.49439997  0.00807517  1
  H+  H101  1  0.77261661  0.40509173  0.65924370  1
  H+  H102  1  0.88491871  1.01496337  0.16086560  1
  H+  H103  1  0.77948510  0.39189495  0.83984224  1
  H+  H104  1  0.83731672  -0.02818998  0.79932573  1
  H+  H105  1  0.84674345  0.36541608  0.99509523  1
  H+  H106  1  0.13318708  0.88060559  0.49950775  1
  H+  H107  1  1.03215926  0.40074194  0.83323645  1
  H+  H108  1  0.66688904  0.09235770  0.59931226  1
  H+  H109  1  0.67812897  0.09541589  0.26840291  1
  H+  H110  1  0.13201593  0.49753013  0.50229156  1
  H+  H111  1  0.47893828  0.12012971  0.50587517  1
  H+  H112  1  0.62897536  0.99880406  0.67457708  1
  H+  H113  1  0.40070001  0.76005289  0.69035385  1
  H+  H114  1  0.39062675  0.11380449  0.84675565  1
  H+  H115  1  0.76385937  0.64478038  0.99303651  1
  H+  H116  1  0.73871949  0.90445960  0.79297675  1
  H+  H117  1  0.90174137  0.88623306  0.65677731  1
  H+  H118  1  0.28970727  0.42409022  0.16586940  1
  H+  H119  1  0.35706794  0.21934707  0.48160235  1
  H+  H120  1  0.37506268  0.51528146  0.15952748  1
  H+  H121  1  0.86194565  0.12973864  0.16223232  1
  H+  H122  1  0.73477948  0.37222749  0.50370149  1
  H+  H123  1  0.09631462  0.37878306  0.63961881  1
  H+  H124  1  0.14500516  0.86492948  0.83000041  1
  H+  H125  1  0.36102564  0.63978282  0.01240166  1
  H+  H126  1  0.40143558  0.65080680  0.17217574  1
  H+  H127  1  0.61927235  0.89459512  0.32974360  1
  H+  H128  1  0.63827411  0.48080135  0.97763774  1
  H+  H129  1  0.12392054  0.73207270  0.49405869  1
  H+  H130  1  0.13268555  0.52233730  0.64608697  1
  H+  H131  1  0.60767449  0.73973411  0.00146466  1
  H+  H132  1  0.20750070  0.35168127  0.66382384  1
  H+  H133  1  0.65354068  0.77377577  0.16773621  1
  H+  H134  1  -0.03716185  0.36068240  0.65123600  1
  H+  H135  1  0.87406701  0.50866937  0.65613105  1
  H+  H136  1  0.71665821  0.10987429  0.99814787  1
  H+  H137  1  0.85825679  0.86987191  0.00440834  1
  H+  H138  1  0.42560432  0.34154842  0.90338919  1
  H+  H139  1  0.86116511  0.38370823  0.16312445  1
  H+  H140  1  0.10375574  0.11538146  0.49080734  1
  H+  H141  1  0.38570479  0.35773549  0.84447252  1
  H+  H142  1  0.19220619  0.29411105  0.19612139  1
  H+  H143  1  0.22121373  0.61965552  0.84873766  1
  H+  H144  1  0.00468673  0.79445199  0.37601818  1
  H+  H145  1  0.11304696  0.71837404  0.16953686  1
  H+  H146  1  0.39369631  0.12104171  0.31697729  1
  H+  H147  1  0.23055343  0.86702323  0.32921684  1
  H+  H148  1  0.60780375  0.97565198  0.00989402  1
  H+  H149  1  0.91089258  0.09356800  0.97015451  1
  H+  H150  1  0.38912839  0.85484237  0.98901522  1
  H+  H151  1  0.62689926  0.90469158  0.67622412  1
  H+  H152  1  0.07587697  0.41610576  0.07522557  1
  H+  H153  1  0.84141069  0.62876682  0.01186792  1
  H+  H154  1  0.64268096  0.12764156  0.65962225  1
  H+  H155  1  0.10059517  0.84898740  0.34965207  1
  H+  H156  1  0.38981640  0.02486155  0.84440762  1
  H+  H157  1  0.64571211  0.36466027  0.34601920  1
  H+  H158  1  0.21096163  0.81758262  1.00956463  1
  H+  H159  1  0.63409333  0.77747880  0.32239800  1
  H+  H160  1  0.88860313  0.73660179  0.33951375  1
  H+  H161  1  0.15290933  0.62825912  0.50832893  1
  H+  H162  1  0.88350571  0.51881108  0.17724162  1
  H+  H163  1  0.87339601  0.73792337  0.66804428  1
  H+  H164  1  0.63942201  0.36035653  0.85283658  1
  H+  H165  1  0.48293484  0.12241666  0.66150996  1
  H+  H166  1  0.87854670  0.27288031  0.67262752  1
  H+  H167  1  0.21941055  0.36271623  0.86474563  1
  H+  H168  1  0.64190403  0.26083824  0.17035221  1
  H+  H169  1  0.13165714  0.30686887  0.57520669  1
  H+  H170  1  0.60961256  0.21518750  0.01506251  1
  H+  H171  1  0.09640571  0.21480677  0.12724289  1
  H+  H172  1  0.64599487  0.36863487  0.49630575  1
  H+  H173  1  0.44622982  0.81850658  0.90222257  1
  H+  H174  1  0.35131064  0.11955166  0.15837890  1
  H+  H175  1  0.89596513  0.76819712  0.83943344  1
  H+  H176  1  0.72431897  0.86510530  0.32463319  1
  H+  H177  1  0.32706946  0.14515083  0.06754415  1
  H+  H178  1  0.11489923  0.88381519  0.67278293  1
  H+  H179  1  0.97051115  0.84390807  0.99990334  1
  H+  H180  1  1.03121783  0.63839073  0.67150448  1
  H+  H181  1  0.12273402  0.97081060  0.49249378  1
  H+  H182  1  0.78150448  0.26771411  0.54677702  1
  H+  H183  1  0.61831822  0.63206043  0.13922581  1
  H+  H184  1  0.86505988  0.63295671  0.82423787  1
  H+  H185  1  0.16011636  0.17244545  0.32695953  1
  H+  H186  1  0.72117590  0.10940630  0.50331058  1
  H+  H187  1  0.12712233  0.37880223  0.33399039  1
  H+  H188  1  0.74162462  0.62805201  0.49850962  1
  H+  H189  1  0.33746459  0.92484426  0.73378103  1
  H+  H190  1  0.53101749  0.40348180  0.66359333  1
  H+  H191  1  0.36385087  0.98650348  0.67554063  1
  H+  H192  1  0.12566961  0.63492110  0.34046027  1
  H+  H193  1  0.13125974  0.10738372  0.15872571  1
  H+  H194  1  0.10254246  0.48238666  0.34323004  1
  H+  H195  1  0.65072507  0.03260107  0.32729945  1
  H+  H196  1  0.22203348  0.10120704  0.50318663  1
  H+  H197  1  0.26382905  0.40045750  0.33486920  1
  H+  H198  1  0.13341384  0.29874035  1.02056228  1
  H+  H199  1  0.27497843  0.64780715  0.01109932  1
  H+  H200  1  0.90685676  0.65691009  0.34587916  1
  H+  H201  1  0.22592391  0.09982605  0.84261489  1
  H+  H202  1  0.89363948  0.86402342  0.16638993  1
  H+  H203  1  0.37700501  0.54219254  0.32256141  1
  H+  H204  1  0.58325990  0.67548955  0.05855446  1
  H+  H205  1  0.64474234  0.52336856  0.83334137  1
  H+  H206  1  0.13517103  0.01333963  0.31453720  1
  H+  H207  1  0.24654360  0.63730638  0.50650562  1
  H+  H208  1  0.87866293  0.85941758  0.50598102  1
  H+  H209  1  0.13368502  0.61347412  0.18164664  1
  H+  H210  1  0.66389975  0.08344526  0.90094293  1
  H+  H211  1  0.14497759  0.77482381  0.66019581  1
  H+  H212  1  0.61900313  0.24011331  0.67507275  1
  H+  H213  1  0.27416417  0.11909521  0.32791117  1
  H+  H214  1  0.89180660  0.10112915  0.83396494  1
  H+  H215  1  0.64195254  0.78474155  0.50572327  1
  H+  H216  1  0.25245475  0.43111391  0.47914965  1
  H+  H217  1  0.10304240  0.36024472  0.15830847  1
  H+  H218  1  0.36462266  0.99006127  0.33643468  1
  H+  H219  1  0.30161791  0.38375892  0.49463070  1
  H+  H220  1  0.37778294  0.75587036  0.49264911  1
  H+  H221  1  0.39170822  0.54781140  0.49859530  1
  H+  H222  1  0.64084401  0.87271393  0.99973889  1
  H+  H223  1  0.60305908  1.00065614  0.82063776  1
  H+  H224  1  0.50930514  0.36342155  0.82244885  1
  H+  H225  1  0.85312990  0.62908767  0.19371573  1
  H+  H226  1  0.64244270  0.37981465  0.65348830  1
  H+  H227  1  0.47697821  0.62532774  0.99704155  1
  H+  H228  1  0.39018360  1.03061854  0.50650336  1
  H+  H229  1  0.56128542  0.92804552  0.10505357  1
  H+  H230  1  0.85418220  0.88197175  0.33498343  1
  H+  H231  1  0.48439858  0.34723452  0.18358660  1
  H+  H232  1  0.12568207  0.72448695  0.33991122  1
  H+  H233  1  0.87668459  0.75991381  1.00020800  1
  H+  H234  1  0.86627993  0.49212016  0.01607101  1
  H+  H235  1  0.99762746  0.08701923  0.98035722  1
  H+  H236  1  0.11903694  0.14229754  0.31088238  1
  H+  H237  1  0.22280544  0.58062062  0.31945978  1
  H+  H238  1  0.01018878  0.35338703  0.15944447  1
  H+  H239  1  0.08511509  0.91267087  0.73347235  1
  H+  H240  1  0.35034492  -0.04966635  1.01650698  1
  H+  H241  1  0.63427511  0.66600204  0.67239845  1
  H+  H242  1  0.37230926  0.90147257  0.48824944  1
  H+  H243  1  0.96736797  0.86347040  0.32090912  1
  H+  H244  1  0.86407508  0.16757641  0.01721915  1
  H+  H245  1  0.86700673  0.39230141  0.83092440  1
  H+  H246  1  0.39125951  0.74410622  0.65808354  1
  H+  H247  1  0.35902583  0.43883460  0.71258324  1
  H+  H248  1  0.23219556  0.86664653  0.66183383  1
  H+  H249  1  0.28155489  0.40113408  0.01851935  1
  H+  H250  1  -0.04218362  0.10878625  0.31839198  1
  H+  H251  1  0.64341837  0.64861494  0.96919381  1
  H+  H252  1  0.89045959  0.62339240  0.65499911  1
  H+  H253  1  0.86843721  -0.03809048  0.99778405  1
  H+  H254  1  0.61630067  0.23054151  0.49022375  1
  H+  H255  1  0.61255131  0.47407910  0.37631952  1
  H+  H256  1  0.13508110  0.52670184  0.85047200  1
  H+  H257  1  -0.02723311  0.10418309  0.15551312  1
  H+  H258  1  0.54317309  0.39666478  0.46910726  1
  H+  H259  1  0.64181476  0.12307546  0.84266129  1
  H+  H260  1  0.89510303  0.52416946  0.33313594  1
  H+  H261  1  0.36080210  0.21999688  0.67460802  1
  H+  H262  1  0.01670405  0.11539281  0.66844360  1
  H+  H263  1  0.11371750  0.17960939  -0.01696793  1
  H+  H264  1  0.64719956  0.54517768  0.65235478  1
  H+  H265  1  0.13695475  0.01405444  0.65914053  1
  H+  H266  1  0.35243167  0.75170877  0.15856551  1
  H+  H267  1  0.85643676  0.97166648  0.33244001  1
  H+  H268  1  0.22487528  0.10433946  0.65820810  1
  H+  H269  1  0.39934758  0.80450522  0.31752636  1
  H+  H270  1  0.39108678  0.76859276  0.99361799  1
  H+  H271  1  0.40765004  0.90369482  0.64928123  1
  H+  H272  1  0.88103112  0.26586655  0.18212128  1
  H+  H273  1  0.38915383  0.53222169  1.00310466  1
  H+  H274  1  0.61480020  0.79609983  0.83738115  1
  H+  H275  1  0.71895979  0.36527077  1.00773439  1
  H+  H276  1  0.36960142  0.90511602  0.33737358  1
  H+  H277  1  0.25945027  0.58500000  0.68044621  1
  H+  H278  1  0.13097080  0.67324576  1.00635665  1
  H+  H279  1  0.85876654  0.12726497  0.49321137  1
  H+  H280  1  0.61521178  0.32791731  0.01016792  1
  H+  H281  1  0.63953586  0.87211041  0.50150094  1
  H+  H282  1  0.87425154  0.48876489  0.49814623  1
  H+  H283  1  0.52654015  0.14051269  0.83129006  1
  H+  H284  1  0.13453311  0.08296528  -0.00610118  1
  H+  H285  1  0.35945182  0.47268215  0.84400466  1
  H+  H286  1  0.51759187  0.64655410  0.33837164  1
  H+  H287  1  0.44538641  0.08603021  0.14273354  1
  H+  H288  1  0.77433507  0.13678373  0.67319461  1
  H+  H289  1  0.30251541  0.40585117  0.79188997  1
  H+  H290  1  0.58276799  0.16842110  0.43195663  1
  H+  H291  1  0.62625389  0.54051076  0.28821946  1
  H+  H292  1  0.34501329  0.43825879  0.07595864  1
  H+  H293  1  0.85952761  0.68112140  0.43863496  1
  H+  H294  1  0.05206815  0.17289923  0.40821385  1
  H+  H295  1  0.22248381  0.11147724  0.16166733  1
  H+  H296  1  0.92301518  0.59301545  0.59415189  1
  H+  H297  1  0.73249570  0.60998802  0.16017939  1
  H+  H298  1  0.50346327  0.65151379  0.82176497  1
  H+  H299  1  0.58325380  0.67587344  0.39515831  1
  H+  H300  1  0.15997985  0.34707997  0.92077314  1
  H+  H301  1  0.65617829  0.85089500  0.89790933  1
  H+  H302  1  0.58322086  0.16107231  0.07708459  1
  H+  H303  1  0.29984892  0.71816174  0.77870566  1
  H+  H304  1  0.42114045  0.08494521  0.25922197  1
  H+  H305  1  0.67195238  0.32693670  0.23032695  1
  H+  H306  1  0.17260687  0.05769727  0.25101076  1
  H+  H307  1  0.65324422  0.54044465  0.49311132  1
  H+  H308  1  0.41004674  0.57930613  0.91316245  1
  H+  H309  1  0.49860226  0.90736342  0.64847763  1
  H+  H310  1  0.11140687  0.63702239  0.83272558  1
  H+  H311  1  0.08522291  0.66462614  0.77020778  1
  H+  H312  1  0.37767663  -0.00676328  0.16864109  1
  H+  H313  1  0.08697472  0.90050383  0.10139107  1
  H+  H314  1  0.67844006  0.83351783  0.22666696  1
  H+  H315  1  0.91391278  0.33123217  0.23819241  1
  H+  H316  1  0.17038887  0.05845444  0.93458466  1
  H+  H317  1  0.42251942  0.54478007  0.63915570  1
  H+  H318  1  0.33632156  0.93098306  0.43174029  1
  H+  H319  1  0.59130366  0.92641239  0.42388372  1
  H+  H320  1  0.23688888  0.85532506  0.17901065  1
  H+  H321  1  0.57940892  0.94310576  0.74789395  1
  H+  H322  1  0.42773029  0.31759233  0.58999635  1
  H+  H323  1  0.07861571  0.14533113  0.07328446  1
  H+  H324  1  0.91315827  0.07051205  0.25433804  1
  H+  H325  1  0.83745600  0.91062461  0.09511852  1
  H+  H326  1  0.83615771  0.16324815  0.77072077  1
  H+  H327  1  0.53553018  0.64374081  0.15507709  1
  H+  H328  1  0.92226407  0.59400074  0.93956510  1
  H+  H329  1  0.92582111  0.82247533  0.90056016  1
  H+  H330  1  0.58497948  0.42813569  0.72445196  1
  H+  H331  1  0.71157228  0.59768318  0.09098388  1
  H+  H332  1  0.82896173  0.91575082  0.42955569  1
  H+  H333  1  0.17203246  0.34543547  0.24454583  1
  H+  H334  1  0.72752468  0.61212317  0.82179131  1
  H+  H335  1  0.33594344  0.16403243  0.77277338  1
  H+  H336  1  0.17158548  0.83092253  0.26935664  1
  H+  H337  1  0.86740135  0.30756515  0.58398541  1
  H+  H338  1  0.56476076  0.69355154  0.76360871  1
  H+  H339  1  0.91448669  0.83642733  0.25846815  1
  H+  H340  1  0.59036036  0.18026081  0.73494754  1
  H+  H341  1  0.02593684  0.87539398  0.82623220  1
  H+  H342  1  0.33403390  0.89196657  0.07541920  1
  H+  H343  1  0.49845791  0.43751861  0.97484471  1
  H+  H344  1  0.34488030  0.70284286  0.40242792  1
  H+  H345  1  0.91994455  0.05420418  0.88303472  1
  H+  H346  1  0.31891454  0.61611122  0.73954678  1
  H+  H347  1  0.28352158  0.69516794  0.34809114  1
  H+  H348  1  0.87935499  0.36568291  0.33452220  1
  H+  H349  1  0.42689805  0.61647812  0.23050660  1
  H+  H350  1  0.90815027  0.33117968  0.89742866  1
  H+  H351  1  0.82827381  0.17230047  0.40552856  1
  H+  H352  1  0.42981059  0.40064381  0.47778044  1
  H+  H353  1  0.72633700  0.11049027  0.18129839  1
  H+  H354  1  0.91258775  0.83631819  0.56618840  1
  H+  H355  1  0.16749361  0.59805292  0.94269491  1
  H+  H356  1  0.08197366  0.89011620  0.43558644  1
  H+  H357  1  0.12229315  0.25645617  0.66384018  1
  H+  H358  1  0.42631735  0.31733495  0.24236937  1
  H+  H359  1  0.10455339  0.85516810  0.00953003  1
  H+  H360  1  0.08787707  0.14378116  0.76456713  1
  H+  H361  1  0.54806360  0.32023454  0.78127850  1
  H+  H362  1  0.83681801  0.42173094  0.40430421  1
  H+  H363  1  0.67809715  0.60216862  0.59215104  1
  H+  H364  1  0.63439261  0.11535876  0.50306291  1
  H+  H365  1  0.17991103  0.83658156  0.56852416  1
  H+  H366  1  0.37096882  0.26919419  0.34290244  1
  H+  H367  1  0.07562759  0.43186514  0.40782038  1
  H+  H368  1  0.55076347  0.34876940  0.08382029  1
  H+  H369  1  0.92001154  0.57586870  0.23749883  1
  H+  H370  1  0.79063750  0.29113351  0.94946880  1
  H+  H371  1  0.33348102  0.68579761  0.10420177  1
  H+  H372  1  0.16300266  0.06751249  0.56327533  1
  H+  H373  1  0.82606230  0.16787409  0.11141360  1
  H+  H374  1  0.67291493  0.62053979  0.90733648  1
  H+  H375  1  0.30849122  0.48885756  0.69772620  1
  H+  H376  1  0.84342652  0.66648943  0.76215611  1
  H+  H377  1  0.47445123  0.10464369  1.00185787  1
  H+  H378  1  0.32462836  0.14934127  0.39183320  1
  H+  H379  1  0.16777317  0.58039022  0.25842728  1
  H+  H380  1  0.32696536  0.43674047  0.39042368  1
  H+  H381  1  0.43500319  0.86856832  0.55613206  1
  H+  H382  1  0.85969374  0.39196555  0.50279635  1
  H+  H383  1  0.43176751  0.60954221  0.55592339  1
  O2-  O384  1  0.07617010  0.15408108  0.12077001  1
  O2-  O385  1  0.07154544  0.14537513  0.47948916  1
  O2-  O386  1  0.08498124  0.13788762  0.80912578  1
  O2-  O387  1  0.05768898  0.35932887  0.13262475  1
  O2-  O388  1  0.08764346  0.43627447  0.49297981  1
  O2-  O389  1  0.09414749  0.43552959  0.82362507  1
  O2-  O390  1  0.08468186  0.65738733  0.15699779  1
  O2-  O391  1  0.09227942  0.67060183  0.48105366  1
  O2-  O392  1  0.08317213  0.66810469  0.81517046  1
  O2-  O393  1  0.08906687  0.90611626  0.14684085  1
  O2-  O394  1  0.09837003  0.90756263  0.48121922  1
  O2-  O395  1  0.08544793  0.90783554  0.80658039  1
  O2-  O396  1  0.33003234  0.15711143  0.14142718  1
  O2-  O397  1  0.32611076  0.15684348  0.47554659  1
  O2-  O398  1  0.33679971  0.16189450  0.81804865  1
  O2-  O399  1  0.34616449  0.45408841  0.14594695  1
  O2-  O400  1  0.30870489  0.43576027  0.47527848  1
  O2-  O401  1  0.33065033  0.41025880  0.83060647  1
  O2-  O402  1  0.33469788  0.69083293  0.14959147  1
  O2-  O403  1  0.34640672  0.69473376  0.47570491  1
  O2-  O404  1  0.32182974  0.68560123  0.80017977  1
  O2-  O405  1  0.34015151  0.90090729  0.15167177  1
  O2-  O406  1  0.33728239  0.92937094  0.47743805  1
  O2-  O407  1  0.33705782  0.92447284  0.81245550  1
  O2-  O408  1  0.59990184  0.17356112  0.15004633  1
  O2-  O409  1  0.58395085  0.16903456  0.47770939  1
  O2-  O410  1  0.58656580  0.17264330  0.81492324  1
  O2-  O411  1  0.58569310  0.40111131  0.14956758  1
  O2-  O412  1  0.60683355  0.42882120  0.46101243  1
  O2-  O413  1  0.56279839  0.37582713  0.79875433  1
  O2-  O414  1  0.59225822  0.66948308  0.13462298  1
  O2-  O415  1  0.59629552  0.68265868  0.47266431  1
  O2-  O416  1  0.54047965  0.70547196  0.80018962  1
  O2-  O417  1  0.54485390  0.93208181  0.14765645  1
  O2-  O418  1  0.58743887  0.92251672  0.46939149  1
  O2-  O419  1  0.55662605  0.95273878  0.79468185  1
  O2-  O420  1  0.83074227  0.16277112  0.15596360  1
  O2-  O421  1  0.82886344  0.15841777  0.47718462  1
  O2-  O422  1  0.83977005  0.16517980  0.81596778  1
  O2-  O423  1  0.83170970  0.41474195  0.14866712  1
  O2-  O424  1  0.83983950  0.42819140  0.48272139  1
  O2-  O425  1  0.83774028  0.42556234  0.82250524  1
  O2-  O426  1  0.81685931  0.65571446  0.20081790  1
  O2-  O427  1  0.84545461  0.67284532  0.48306810  1
  O2-  O428  1  0.83509025  0.66252547  0.80678760  1
  O2-  O429  1  0.84269192  0.91472365  0.14055007  1
  O2-  O430  1  0.83078783  0.91807504  0.47524672  1
  O2-  O431  1  0.79363352  0.92938091  0.77095160  1
  O2-  O432  1  0.16164476  0.07851716  0.17579060  1
  O2-  O433  1  0.16108842  0.06610964  0.51731568  1
  O2-  O434  1  0.16624749  0.06623377  0.85802347  1
  O2-  O435  1  0.18271906  0.34273212  0.19991845  1
  O2-  O436  1  0.11049036  0.29930472  0.53149246  1
  O2-  O437  1  0.16018542  0.34599239  0.87588152  1
  O2-  O438  1  0.16919374  0.58677494  0.19719378  1
  O2-  O439  1  0.18720659  0.60201809  0.52385890  1
  O2-  O440  1  0.16318791  0.58920886  0.86645031  1
  O2-  O441  1  0.17650934  0.83041378  0.19512081  1
  O2-  O442  1  0.17911201  0.83689198  0.52244557  1
  O2-  O443  1  0.18130635  0.83997646  0.84338347  1
  O2-  O444  1  0.40248758  0.06005691  0.17501338  1
  O2-  O445  1  0.41909160  0.09119767  0.52246958  1
  O2-  O446  1  0.42184445  0.08428266  0.86204699  1
  O2-  O447  1  0.42439662  0.31012078  0.19826829  1
  O2-  O448  1  0.43379636  0.35022384  0.46665491  1
  O2-  O449  1  0.41782262  0.32895541  0.85867224  1
  O2-  O450  1  0.43141771  0.61937811  0.18545390  1
  O2-  O451  1  0.42884173  0.60834022  0.51034998  1
  O2-  O452  1  0.40353731  0.57156963  0.86679645  1
  O2-  O453  1  0.38943546  0.86276563  0.17971307  1
  O2-  O454  1  0.42606727  0.85389418  0.51084839  1
  O2-  O455  1  0.46095537  0.81002654  0.85927636  1
  O2-  O456  1  0.66738077  0.08831285  0.19824422  1
  O2-  O457  1  0.66216111  0.08351662  0.52050290  1
  O2-  O458  1  0.66775029  0.08741602  0.85538148  1
  O2-  O459  1  0.67320503  0.32688985  0.18562840  1
  O2-  O460  1  0.67318073  0.33863344  0.51702705  1
  O2-  O461  1  0.66848805  0.33012478  0.86842240  1
  O2-  O462  1  0.68175806  0.58138701  0.13058175  1
  O2-  O463  1  0.67916504  0.59837935  0.51127754  1
  O2-  O464  1  0.66476334  0.58450894  0.83156275  1
  O2-  O465  1  0.68682242  0.83404044  0.18208225  1
  O2-  O466  1  0.67032304  0.84507857  0.52107888  1
  O2-  O467  1  0.64000173  0.85478948  0.85517760  1
  O2-  O468  1  0.91511856  0.07706709  0.17487089  1
  O2-  O469  1  0.90366482  0.07243181  0.52117059  1
  O2-  O470  1  0.91478782  0.06144976  0.83848321  1
  O2-  O471  1  0.91349760  0.32847777  0.19313630  1
  O2-  O472  1  0.84347280  0.29402588  0.54102564  1
  O2-  O473  1  0.91969785  0.33408094  0.85342677  1
  O2-  O474  1  0.91608454  0.57914288  0.19245041  1
  O2-  O475  1  0.92654447  0.59315584  0.52257572  1
  O2-  O476  1  0.91839504  0.58869204  0.86077457  1
  O2-  O477  1  0.92101321  0.83321745  0.18626136  1
  O2-  O478  1  0.90815296  0.82894358  0.52136169  1
  O2-  O479  1  0.93294671  0.82691931  0.85575150  1
  O2-  O480  1  0.18806945  0.04353101  0.29128038  1
  O2-  O481  1  0.16621820  0.07339857  0.64018609  1
  O2-  O482  1  0.17129992  0.05599042  0.98042483  1
  O2-  O483  1  0.15628227  0.34662709  0.31996172  1
  O2-  O484  1  0.14825506  0.31750254  0.64825645  1
  O2-  O485  1  0.16887515  0.35496868  1.00205400  1
  O2-  O486  1  0.16738525  0.57479175  0.30908108  1
  O2-  O487  1  0.17511162  0.58503717  0.64624618  1
  O2-  O488  1  0.17187061  0.60753320  0.98801235  1
  O2-  O489  1  0.17009773  0.82837476  0.31548439  1
  O2-  O490  1  0.17291713  0.83455864  0.64377028  1
  O2-  O491  1  0.15351737  0.79019334  0.98926646  1
  O2-  O492  1  0.42512961  0.09060176  0.30411745  1
  O2-  O493  1  0.42208838  0.09146528  0.64726308  1
  O2-  O494  1  0.41413050  0.07325813  0.98509279  1
  O2-  O495  1  0.40720268  0.33275718  0.34794590  1
  O2-  O496  1  0.42172931  0.32837316  0.63281407  1
  O2-  O497  1  0.44570595  0.38190204  0.97671349  1
  O2-  O498  1  0.41199521  0.60402484  0.31118296  1
  O2-  O499  1  0.44025764  0.60517371  0.63193998  1
  O2-  O500  1  0.41382659  0.59085041  0.98434612  1
  O2-  O501  1  0.42758006  0.86476410  0.30288495  1
  O2-  O502  1  0.45190597  0.90316871  0.62257552  1
  O2-  O503  1  0.42248011  0.82759821  0.97432322  1
  O2-  O504  1  0.68114480  0.09553222  0.31545993  1
  O2-  O505  1  0.67263214  0.09692442  0.64468992  1
  O2-  O506  1  0.65862116  0.07960938  0.97947628  1
  O2-  O507  1  0.67284473  0.33723984  0.32284386  1
  O2-  O508  1  0.67274913  0.34856639  0.64051600  1
  O2-  O509  1  0.66339670  0.32299304  0.98896454  1
  O2-  O510  1  0.62618726  0.55135005  0.33156247  1
  O2-  O511  1  0.68013665  0.60520885  0.63757900  1
  O2-  O512  1  0.68893739  0.64139499  0.94978669  1
  O2-  O513  1  0.66435765  0.83806826  0.30770069  1
  O2-  O514  1  0.66837664  0.86110227  0.64757408  1
  O2-  O515  1  0.66633186  0.84143764  0.97862924  1
  O2-  O516  1  0.90400498  0.06592248  0.29917196  1
  O2-  O517  1  0.90214986  0.05795054  0.64598740  1
  O2-  O518  1  0.93396778  0.05625776  0.96094385  1
  O2-  O519  1  0.90871917  0.33243067  0.32105226  1
  O2-  O520  1  0.89877850  0.33101807  0.65432679  1
  O2-  O521  1  0.84550401  0.31547913  0.97089035  1
  O2-  O522  1  0.92907840  0.58340787  0.31608911  1
  O2-  O523  1  0.91792946  0.58813773  0.64073024  1
  O2-  O524  1  0.92229243  0.59491849  0.98522082  1
  O2-  O525  1  0.90863777  0.83456458  0.30463758  1
  O2-  O526  1  0.92211478  0.84573828  0.64695468  1
  O2-  O527  1  0.91153874  0.81935396  0.98302257  1
  O2-  O528  1  0.08161150  0.12806631  0.00754033  1
  O2-  O529  1  0.03675899  0.19721837  0.37260360  1
  O2-  O530  1  0.07831145  0.15243802  0.67874474  1
  O2-  O531  1  0.08739722  0.44137588  0.03200222  1
  O2-  O532  1  0.07092539  0.42378684  0.36298603  1
  O2-  O533  1  0.06790529  0.41247056  0.62833759  1
  O2-  O534  1  0.10252462  0.70656248  0.01974888  1
  O2-  O535  1  0.09637542  0.66495510  0.35758388  1
  O2-  O536  1  0.09041752  0.66824925  0.68771076  1
  O2-  O537  1  0.07980835  0.89061063  0.02393604  1
  O2-  O538  1  0.05511488  0.85456856  0.37309708  1
  O2-  O539  1  0.08606450  0.91564151  0.68709569  1
  O2-  O540  1  0.32321480  0.13423303  0.02175385  1
  O2-  O541  1  0.33112949  0.15957425  0.34730490  1
  O2-  O542  1  0.33151960  0.16146662  0.69144561  1
  O2-  O543  1  0.34326463  0.43083589  0.02952358  1
  O2-  O544  1  0.32633550  0.43318665  0.34573591  1
  O2-  O545  1  0.31584920  0.43865007  0.68560402  1
  O2-  O546  1  0.33544602  0.67510205  0.02666438  1
  O2-  O547  1  0.34061374  0.70344438  0.35620939  1
  O2-  O548  1  0.30752187  0.58191556  0.70170222  1
  O2-  O549  1  0.32619434  0.89017565  0.02947660  1
  O2-  O550  1  0.33560271  0.93080418  0.35419192  1
  O2-  O551  1  0.33462982  0.92504104  0.68831735  1
  O2-  O552  1  0.57696090  0.15510339  0.03057052  1
  O2-  O553  1  0.58538162  0.16763940  0.35466633  1
  O2-  O554  1  0.58975251  0.17967014  0.68936828  1
  O2-  O555  1  0.53287459  0.31462857  0.04506036  1
  O2-  O556  1  0.60531031  0.41868513  0.39444056  1
  O2-  O557  1  0.59036861  0.43494615  0.67950972  1
  O2-  O558  1  0.57555180  0.67725051  0.01339709  1
  O2-  O559  1  0.57904352  0.67057992  0.34976318  1
  O2-  O560  1  0.60270397  0.69489773  0.68682651  1
  O2-  O561  1  0.58092243  0.91700928  0.02798380  1
  O2-  O562  1  0.59435675  0.93054757  0.34553051  1
  O2-  O563  1  0.59737650  0.93913924  0.69222099  1
  O2-  O564  1  0.81966790  0.17868984  0.03212835  1
  O2-  O565  1  0.82821108  0.17892567  0.35945404  1
  O2-  O566  1  0.83424300  0.16377038  0.68968429  1
  O2-  O567  1  0.83094596  0.43093818  0.02957342  1
  O2-  O568  1  0.83620666  0.41946192  0.35891822  1
  O2-  O569  1  0.83557265  0.43860857  0.67215040  1
  O2-  O570  1  0.80838486  0.65623805  0.02520943  1
  O2-  O571  1  0.90544131  0.70482563  0.36834759  1
  O2-  O572  1  0.84552119  0.67539360  0.67842553  1
  O2-  O573  1  0.83135613  0.90486397  0.01735466  1
  O2-  O574  1  0.82556290  0.91288975  0.35203110  1
  O2-  O575  1  0.86019022  0.96511039  0.65946342  1
