# generated using pymatgen
data_H2O
_symmetry_space_group_name_H-M   'P 1'
_cell_length_a   18.00120244
_cell_length_b   18.00841367
_cell_length_c   22.01633039
_cell_angle_alpha   89.97948050
_cell_angle_beta   90.00616284
_cell_angle_gamma   120.00070716
_symmetry_Int_Tables_number   1
_chemical_formula_structural   H2O
_chemical_formula_sum   'H384 O192'
_cell_volume   6180.86724433
_cell_formula_units_Z   192
loop_
 _symmetry_equiv_pos_site_id
 _symmetry_equiv_pos_as_xyz
  1  'x, y, z'
loop_
 _atom_type_symbol
 _atom_type_oxidation_number
  H+  1.0
  O2-  -2.0
loop_
 _atom_site_type_symbol
 _atom_site_label
 _atom_site_symmetry_multiplicity
 _atom_site_fract_x
 _atom_site_fract_y
 _atom_site_fract_z
 _atom_site_occupancy
  H+  H0  1  0.36193199  0.88602959  0.83802926  1
  H+  H1  1  0.71817899  0.86215373  0.51647499  1
  H+  H2  1  0.10928572  0.87868975  0.33880357  1
  H+  H3  1  0.63602822  0.00566756  0.84752581  1
  H+  H4  1  0.35905349  0.38630265  0.33490980  1
  H+  H5  1  0.89336936  0.82213836  0.42164120  1
  H+  H6  1  0.48511459  0.35454717  0.84063220  1
  H+  H7  1  0.51948775  0.62369827  0.68137619  1
  H+  H8  1  0.86584924  0.09633350  0.99337000  1
  H+  H9  1  0.77410794  0.38581148  0.67187324  1
  H+  H10  1  0.12631868  0.77270567  0.98531021  1
  H+  H11  1  0.87197958  0.87450370  1.00797674  1
  H+  H12  1  0.13833554  0.36163900  0.30513631  1
  H+  H13  1  0.72990209  0.09713900  0.15142581  1
  H+  H14  1  0.34891507  0.49390002  0.82685908  1
  H+  H15  1  0.17220641  0.15960479  0.18337267  1
  H+  H16  1  0.85896210  0.63699634  0.67400469  1
  H+  H17  1  0.63772799  0.52101442  0.18364941  1
  H+  H18  1  0.86386820  0.87867892  0.67942939  1
  H+  H19  1  0.60755883  0.63316867  0.17019558  1
  H+  H20  1  0.13500491  0.61470040  0.98535190  1
  H+  H21  1  0.19183365  0.92824828  0.54518864  1
  H+  H22  1  0.53181470  0.39382983  0.15956784  1
  H+  H23  1  0.88847517  0.52449494  0.83651913  1
  H+  H24  1  0.46427724  0.84934787  0.84197039  1
  H+  H25  1  0.60135713  0.61157534  0.67474258  1
  H+  H26  1  0.86990445  0.89153278  0.16398765  1
  H+  H27  1  0.11788392  0.72819537  0.83127921  1
  H+  H28  1  0.06168733  0.16289576  -0.00937676  1
  H+  H29  1  0.13992081  0.51125455  0.13346298  1
  H+  H30  1  0.13876240  0.47559473  0.26452624  1
  H+  H31  1  -0.03557555  0.10210099  0.50542697  1
  H+  H32  1  0.18158244  0.01253648  0.16620159  1
  H+  H33  1  0.37665213  0.34167286  0.51275759  1
  H+  H34  1  0.23383688  0.86783350  0.84526261  1
  H+  H35  1  0.62635652  0.62280752  0.33503592  1
  H+  H36  1  0.13090477  0.67569858  0.47782694  1
  H+  H37  1  0.09791205  0.42402366  0.06789746  1
  H+  H38  1  0.94505878  0.34154363  0.30729310  1
  H+  H39  1  0.62716969  0.88357466  0.15703386  1
  H+  H40  1  0.36926363  0.73303340  0.67726811  1
  H+  H41  1  0.36821099  0.76955855  0.84407200  1
  H+  H42  1  0.85946168  0.38705874  0.00248586  1
  H+  H43  1  0.52929999  0.38471393  0.66832399  1
  H+  H44  1  0.52013644  0.88416659  0.49023266  1
  H+  H45  1  0.49347295  0.64147589  0.51073506  1
  H+  H46  1  0.49118311  0.85217964  0.16054669  1
  H+  H47  1  0.61977718  0.49829176  0.01574346  1
  H+  H48  1  0.72895323  0.36186871  0.16545250  1
  H+  H49  1  0.35340996  0.22738583  0.37392813  1
  H+  H50  1  0.10565282  0.58003845  0.36485951  1
  H+  H51  1  0.39607572  0.02107495  0.85556275  1
  H+  H52  1  0.09485299  0.21028596  0.49397935  1
  H+  H53  1  0.60427709  0.87574040  0.49105632  1
  H+  H54  1  0.89085648  0.52839529  -0.01134309  1
  H+  H55  1  0.35632126  0.72213690  0.99708312  1
  H+  H56  1  0.86653946  0.40833912  0.16044950  1
  H+  H57  1  0.22370550  0.35877726  0.32227484  1
  H+  H58  1  0.63576287  0.36609226  0.50888566  1
  H+  H59  1  0.37033311  0.39152339  0.14843255  1
  H+  H60  1  0.89640506  0.22441224  0.15673406  1
  H+  H61  1  0.53463432  0.14756721  0.83941254  1
  H+  H62  1  0.60279043  0.12574771  0.17550145  1
  H+  H63  1  0.77594063  0.39896878  1.00351120  1
  H+  H64  1  0.63803354  0.39500732  0.99738578  1
  H+  H65  1  0.66710690  0.81033067  0.61406217  1
  H+  H66  1  0.88657144  0.65154458  0.99981877  1
  H+  H67  1  0.61813932  0.38663534  0.16311518  1
  H+  H68  1  0.38581352  0.62685317  0.67022285  1
  H+  H69  1  0.64118639  0.51077420  0.65624385  1
  H+  H70  1  0.39599992  0.10969385  1.00721538  1
  H+  H71  1  0.46317755  0.96879161  0.26072733  1
  H+  H72  1  0.88196760  0.76610093  0.32800694  1
  H+  H73  1  0.75393389  0.62913327  0.99272454  1
  H+  H74  1  0.72407994  0.60560283  0.65756093  1
  H+  H75  1  0.14021284  0.11087398  0.84603078  1
  H+  H76  1  0.62894180  0.22551400  0.67904722  1
  H+  H77  1  0.64344099  0.77279549  0.17670694  1
  H+  H78  1  0.11328162  0.39224611  -0.01248752  1
  H+  H79  1  0.88346368  0.52619469  0.66437485  1
  H+  H80  1  0.41182865  0.08140072  0.23886011  1
  H+  H81  1  0.25464865  0.12015887  0.50197121  1
  H+  H82  1  0.11047064  0.38399393  0.50104368  1
  H+  H83  1  0.59356717  0.17791376  0.77912567  1
  H+  H84  1  0.64190477  0.24638677  0.32329288  1
  H+  H85  1  0.85334585  0.97248210  0.49996814  1
  H+  H86  1  0.87827912  0.20905047  0.18845787  1
  H+  H87  1  0.54284112  0.13544658  0.68561367  1
  H+  H88  1  0.97701186  0.62653990  0.50791932  1
  H+  H89  1  0.32465023  0.15107280  0.41832316  1
  H+  H90  1  0.11398380  0.13310659  0.34091707  1
  H+  H91  1  0.10789060  0.12360960  0.67446031  1
  H+  H92  1  0.57538547  0.90799876  0.75901115  1
  H+  H93  1  0.64356674  0.07019963  0.25159190  1
  H+  H94  1  0.99346102  0.44682793  0.62361744  1
  H+  H95  1  0.35642406  0.62924440  0.15233959  1
  H+  H96  1  0.13116129  0.60612508  0.14206753  1
  H+  H97  1  0.89519820  0.02352020  0.17230835  1
  H+  H98  1  0.85964889  0.13579279  0.49865930  1
  H+  H99  1  1.00823568  0.35449437  0.67658553  1
  H+  H100  1  0.77200919  0.37572633  0.33858756  1
  H+  H101  1  0.35256840  0.96619142  0.49452777  1
  H+  H102  1  0.60325956  -0.06044133  0.99720223  1
  H+  H103  1  0.63415401  0.32826270  0.31329153  1
  H+  H104  1  0.23844318  0.35831236  0.16698027  1
  H+  H105  1  0.72710959  0.37041833  0.50487685  1
  H+  H106  1  0.47876216  0.62216907  -0.01257728  1
  H+  H107  1  0.52929197  0.13397391  0.34564707  1
  H+  H108  1  0.63896437  0.28210509  0.84150569  1
  H+  H109  1  0.91864900  0.32569887  0.20090689  1
  H+  H110  1  0.39425833  0.36812780  0.97870986  1
  H+  H111  1  0.36537887  0.41429295  0.67468139  1
  H+  H112  1  1.00021178  0.61139699  0.31654630  1
  H+  H113  1  0.97915466  0.88211700  0.99544403  1
  H+  H114  1  0.62333998  0.22961861  0.16001210  1
  H+  H115  1  0.40332759  0.10294394  0.67147658  1
  H+  H116  1  0.36124469  0.71926554  0.14829387  1
  H+  H117  1  0.83545544  0.95343520  0.00734377  1
  H+  H118  1  0.97099233  0.85725686  0.66952730  1
  H+  H119  1  0.39717902  0.12548932  0.33926031  1
  H+  H120  1  0.40553101  0.46233240  0.54624480  1
  H+  H121  1  0.09622995  0.37756417  0.83673004  1
  H+  H122  1  0.61490396  0.12483756  0.34668387  1
  H+  H123  1  0.59195442  0.43639909  0.07485017  1
  H+  H124  1  0.87964100  0.35672964  0.84173228  1
  H+  H125  1  0.61174416  0.17558276  0.01104176  1
  H+  H126  1  0.08910153  0.34184435  0.68196296  1
  H+  H127  1  0.06564740  0.38777284  0.13685923  1
  H+  H128  1  0.86996535  0.40080325  0.66943135  1
  H+  H129  1  0.60492857  0.41260703  0.35349379  1
  H+  H130  1  1.02088082  0.63722319  0.67914260  1
  H+  H131  1  0.76783034  0.64238233  0.82771884  1
  H+  H132  1  0.38944989  0.86329384  0.66768401  1
  H+  H133  1  0.38938366  0.10473107  0.17660535  1
  H+  H134  1  0.86132841  0.38970254  0.49067687  1
  H+  H135  1  0.63006237  0.86186625  0.32566242  1
  H+  H136  1  0.64066587  0.74372693  0.67142986  1
  H+  H137  1  0.51660853  0.64415236  0.34247189  1
  H+  H138  1  0.35296347  0.18744442  0.62988679  1
  H+  H139  1  0.88869050  0.77618995  0.83093838  1
  H+  H140  1  0.14661941  0.56988155  0.42647455  1
  H+  H141  1  0.59547074  0.49388748  0.34746870  1
  H+  H142  1  0.77551461  0.10540365  0.08881370  1
  H+  H143  1  0.12525923  0.86610560  -0.01679661  1
  H+  H144  1  0.86585185  0.48092960  0.49348831  1
  H+  H145  1  0.61688946  0.97500009  0.67951796  1
  H+  H146  1  0.62795727  0.30451882  0.98787013  1
  H+  H147  1  0.65360840  0.58516340  0.27735513  1
  H+  H148  1  0.71401872  0.60034541  0.50591537  1
  H+  H149  1  0.78032993  0.69129257  0.11836613  1
  H+  H150  1  0.46866770  0.34881222  0.51137398  1
  H+  H151  1  0.91654179  0.58694951  0.60564857  1
  H+  H152  1  0.38672415  0.03289182  0.33641844  1
  H+  H153  1  0.88312400  0.61391077  0.50791750  1
  H+  H154  1  0.58050264  0.66514451  0.11035064  1
  H+  H155  1  0.22581093  0.87633980  0.50854165  1
  H+  H156  1  0.60233818  0.81892185  0.82771170  1
  H+  H157  1  0.28662695  0.13833052  0.00824359  1
  H+  H158  1  0.11746156  1.00978676  0.49703193  1
  H+  H159  1  0.52481322  0.88807615  0.67573143  1
  H+  H160  1  0.22622533  0.10980021  0.33875982  1
  H+  H161  1  0.84909903  0.22285885  0.68735290  1
  H+  H162  1  0.39410431  0.28237887  0.29506287  1
  H+  H163  1  0.97616071  0.10750876  0.33066458  1
  H+  H164  1  0.83031406  0.90913414  0.74310878  1
  H+  H165  1  0.02341559  0.64278102  -0.00409632  1
  H+  H166  1  0.37432889  0.22876744  1.00754401  1
  H+  H167  1  0.23043154  0.61426003  0.14448238  1
  H+  H168  1  0.85698973  0.21603274  0.00566624  1
  H+  H169  1  0.28006129  0.64543732  0.67826714  1
  H+  H170  1  0.47242391  0.37136665  0.31960480  1
  H+  H171  1  0.16866390  0.83012757  0.61075518  1
  H+  H172  1  0.23643956  0.62863338  0.50240110  1
  H+  H173  1  0.11987414  0.10046720  0.50047973  1
  H+  H174  1  0.63384885  0.77223099  0.51401752  1
  H+  H175  1  0.66776777  0.05584625  -0.06292717  1
  H+  H176  1  0.90005434  0.14311911  0.66177747  1
  H+  H177  1  0.12907475  0.75723826  0.32968087  1
  H+  H178  1  0.11079185  0.87652977  0.67914411  1
  H+  H179  1  0.36583065  0.90737369  0.32917626  1
  H+  H180  1  0.31027409  0.43466764  0.54838061  1
  H+  H181  1  0.34229316  0.41892778  -0.09047629  1
  H+  H182  1  0.88292648  0.27251543  0.50461712  1
  H+  H183  1  0.34893961  0.20661582  0.50649470  1
  H+  H184  1  0.87126192  0.85824411  0.47946578  1
  H+  H185  1  0.36630210  -0.03153889  0.68678138  1
  H+  H186  1  0.98092625  0.85507140  0.17632879  1
  H+  H187  1  0.39566968  0.10855360  0.86430571  1
  H+  H188  1  0.63834652  0.12135663  0.52171907  1
  H+  H189  1  0.35096327  0.63449193  0.34676269  1
  H+  H190  1  0.36814985  0.62189357  0.83645741  1
  H+  H191  1  0.98430965  0.41986764  0.22119197  1
  H+  H192  1  0.02397830  0.63814459  0.15427087  1
  H+  H193  1  0.38277443  0.52828061  0.32579386  1
  H+  H194  1  0.46528462  0.78276609  0.21012851  1
  H+  H195  1  0.17778859  0.32374178  0.23213863  1
  H+  H196  1  0.37480381  0.66068478  0.50195002  1
  H+  H197  1  0.02671713  0.13257486  0.83182331  1
  H+  H198  1  0.21699345  0.36527747  0.83942591  1
  H+  H199  1  0.84780016  0.62711956  0.33554363  1
  H+  H200  1  0.97233619  0.36217974  0.50160000  1
  H+  H201  1  0.38329229  0.31068638  0.67109133  1
  H+  H202  1  0.89058406  0.11406897  0.83947412  1
  H+  H203  1  0.86192320  0.68362211  0.06117402  1
  H+  H204  1  0.14884888  0.79047553  0.39499948  1
  H+  H205  1  0.35068664  0.87428155  0.03042187  1
  H+  H206  1  0.61504975  0.70000966  0.83717173  1
  H+  H207  1  0.85728124  0.21917919  0.83392864  1
  H+  H208  1  0.96740559  0.35399561  0.84487119  1
  H+  H209  1  0.52301677  0.89676924  0.33471578  1
  H+  H210  1  0.41265693  0.60138030  0.89132508  1
  H+  H211  1  0.13451613  0.26836970  0.84008763  1
  H+  H212  1  0.60498143  0.00843302  0.19198201  1
  H+  H213  1  0.09156827  0.91683434  0.77014263  1
  H+  H214  1  0.25882816  0.62037278  0.36328378  1
  H+  H215  1  0.40051339  0.56055601  0.50845683  1
  H+  H216  1  0.18825604  0.99649859  0.19610085  1
  H+  H217  1  0.40045912  0.28782480  0.15978353  1
  H+  H218  1  0.72038637  0.86321930  0.32891886  1
  H+  H219  1  0.38718693  0.61818589  0.98542109  1
  H+  H220  1  0.23078568  0.11233519  0.85106828  1
  H+  H221  1  0.12084508  0.97624158  0.83069226  1
  H+  H222  1  0.72757530  0.12267947  0.51917659  1
  H+  H223  1  0.72037853  0.55067154  0.95069152  1
  H+  H224  1  0.10400316  0.96181297  0.67268439  1
  H+  H225  1  0.15633158  0.12174852  0.99769893  1
  H+  H226  1  -0.02639806  0.85623248  0.32837162  1
  H+  H227  1  0.39892187  0.82892846  0.94019895  1
  H+  H228  1  0.12418124  0.71675152  0.15504450  1
  H+  H229  1  0.17429963  0.08280832  0.93816883  1
  H+  H230  1  0.59795838  0.47184881  0.50291349  1
  H+  H231  1  0.13618521  0.76674129  0.66892470  1
  H+  H232  1  0.26962737  0.88515657  0.34530738  1
  H+  H233  1  0.85226162  0.63190630  0.82681606  1
  H+  H234  1  0.23646322  0.37726451  0.97391635  1
  H+  H235  1  0.26658163  0.88731499  0.10732998  1
  H+  H236  1  0.63502330  1.01225106  0.33706165  1
  H+  H237  1  0.46234202  0.84816611  -0.00466807  1
  H+  H238  1  0.03614496  0.79261960  0.11603732  1
  H+  H239  1  0.86974960  0.51256089  0.32010307  1
  H+  H240  1  -0.01696074  0.20929464  0.62986190  1
  H+  H241  1  0.20720327  0.08892045  0.64573341  1
  H+  H242  1  0.90226012  0.32592051  0.93339640  1
  H+  H243  1  0.14241537  0.86822466  0.83888583  1
  H+  H244  1  0.14641083  0.53900206  0.51277022  1
  H+  H245  1  0.38615710  0.52726272  0.17179837  1
  H+  H246  1  0.63974423  0.35288276  0.65884719  1
  H+  H247  1  0.60728786  0.73267454  0.34164944  1
  H+  H248  1  0.30137820  0.17276191  0.16733957  1
  H+  H249  1  0.77694612  0.39298543  0.82617628  1
  H+  H250  1  0.00562230  0.87560778  0.47406012  1
  H+  H251  1  0.08583421  0.62936657  0.28254098  1
  H+  H252  1  0.43189845  0.87310106  0.24522155  1
  H+  H253  1  0.62323030  0.38796398  0.82220650  1
  H+  H254  1  0.35853662  0.08955689  0.52636517  1
  H+  H255  1  0.65007953  0.96894889  0.12280956  1
  H+  H256  1  0.93849162  0.07221880  1.00199872  1
  H+  H257  1  0.72586641  0.09233736  0.84954603  1
  H+  H258  1  0.35926653  -0.03413039  1.03365932  1
  H+  H259  1  -0.02357000  0.61473850  0.83846475  1
  H+  H260  1  0.88314737  0.35572658  0.34880450  1
  H+  H261  1  0.63105507  0.07049126  1.00087616  1
  H+  H262  1  0.61205053  0.63487579  0.49546563  1
  H+  H263  1  0.38710198  0.87063445  0.50895924  1
  H+  H264  1  0.89845875  0.11267005  0.17606696  1
  H+  H265  1  0.88529693  0.62192456  0.16551467  1
  H+  H266  1  0.51155856  0.10522250  0.01955939  1
  H+  H267  1  0.37466916  0.48686993  0.96247199  1
  H+  H268  1  0.64829085  0.11074865  0.67322213  1
  H+  H269  1  0.60422858  0.57803335  0.85293782  1
  H+  H270  1  0.20425586  0.33362030  0.50384075  1
  H+  H271  1  0.85493304  0.88362267  0.34171931  1
  H+  H272  1  0.85828990  0.21719340  0.35100768  1
  H+  H273  1  0.85964427  0.74246493  0.16237653  1
  H+  H274  1  0.48211158  0.37478334  1.00156683  1
  H+  H275  1  0.03164898  0.13994103  0.15462296  1
  H+  H276  1  0.51691138  0.67344699  0.82918631  1
  H+  H277  1  0.96612403  0.35949899  0.98941438  1
  H+  H278  1  0.11092267  0.22048947  0.33739845  1
  H+  H279  1  0.76209378  0.63423584  0.34133745  1
  H+  H280  1  0.62024243  0.47456954  0.81383119  1
  H+  H281  1  0.14841407  0.26483987  0.66097055  1
  H+  H282  1  0.10950298  0.48124201  -0.01048060  1
  H+  H283  1  0.76750773  0.12827732  0.67829891  1
  H+  H284  1  0.14190222  0.25235519  0.00201861  1
  H+  H285  1  0.11836938  0.98184860  0.00596296  1
  H+  H286  1  0.37721367  0.22598732  0.84659286  1
  H+  H287  1  0.14131475  0.62021597  0.66434264  1
  H+  H288  1  0.88039013  0.77275883  0.66372432  1
  H+  H289  1  0.08156239  0.66584424  0.73852594  1
  H+  H290  1  0.09620044  0.87870689  0.48790408  1
  H+  H291  1  0.27321118  0.88146773  0.68438776  1
  H+  H292  1  0.72248065  0.61238923  0.18855766  1
  H+  H293  1  0.82747378  0.90735940  0.07279906  1
  H+  H294  1  0.86872158  0.88801226  0.82304188  1
  H+  H295  1  0.42224918  0.07095260  0.95086442  1
  H+  H296  1  0.42004653  0.84245812  0.60421711  1
  H+  H297  1  0.06917130  0.65927857  0.42392488  1
  H+  H298  1  0.09249884  0.42940341  0.44594575  1
  H+  H299  1  0.08347584  0.67436541  0.05512762  1
  H+  H300  1  0.07990664  0.90546594  0.05744546  1
  H+  H301  1  0.91168194  0.07434310  0.89688951  1
  H+  H302  1  0.32678480  0.17392948  0.69831931  1
  H+  H303  1  0.35386429  0.49558513  0.67433943  1
  H+  H304  1  0.07959444  0.91507012  0.39178650  1
  H+  H305  1  0.22538933  0.82837731  0.21745736  1
  H+  H306  1  0.41422974  0.33712424  0.60204556  1
  H+  H307  1  0.77892257  0.88807255  0.16518817  1
  H+  H308  1  0.32098661  0.01360044  0.57264909  1
  H+  H309  1  0.42044754  0.60367687  0.60936649  1
  H+  H310  1  0.58743625  0.40663853  0.72766577  1
  H+  H311  1  0.43537017  0.32950622  0.90457212  1
  H+  H312  1  0.18519813  0.61821871  0.26059180  1
  H+  H313  1  0.57064941  0.87743164  0.05289773  1
  H+  H314  1  0.67178760  0.35356880  0.89604880  1
  H+  H315  1  0.58718399  0.16465245  0.44358195  1
  H+  H316  1  0.16154608  0.83546105  0.91830292  1
  H+  H317  1  0.22721438  0.36373062  0.65843411  1
  H+  H318  1  0.03302948  0.14679033  0.67748154  1
  H+  H319  1  0.58267211  0.15095103  0.10424721  1
  H+  H320  1  0.58463701  0.67054293  0.43659777  1
  H+  H321  1  0.22050027  0.60857137  0.98428568  1
  H+  H322  1  0.08814164  0.16006451  0.77346321  1
  H+  H323  1  0.85860326  0.97387569  0.34080602  1
  H+  H324  1  0.67136375  0.83423731  0.23510049  1
  H+  H325  1  0.88081723  0.53156154  0.16226340  1
  H+  H326  1  0.47437833  0.61636605  0.17497573  1
  H+  H327  1  0.16205563  0.33212443  0.92683696  1
  H+  H328  1  0.81806757  0.64594570  0.43302951  1
  H+  H329  1  0.10730006  0.46668266  0.33073989  1
  H+  H330  1  0.67364665  0.32022302  0.22654438  1
  H+  H331  1  0.32276943  0.42608557  0.77438033  1
  H+  H332  1  0.81844762  0.91932981  0.43791025  1
  H+  H333  1  0.83460765  0.42423650  0.09475268  1
  H+  H334  1  0.72540491  0.10323180  0.33417890  1
  H+  H335  1  0.76980826  0.12299710  0.00113432  1
  H+  H336  1  0.34827504  0.17860258  0.10287349  1
  H+  H337  1  0.83671536  0.41947285  0.76721569  1
  H+  H338  1  0.91610560  0.09180559  0.56766393  1
  H+  H339  1  0.33007622  0.91429414  0.43134258  1
  H+  H340  1  0.67206885  0.32712910  0.59964411  1
  H+  H341  1  0.65896906  0.57466550  0.56760593  1
  H+  H342  1  0.17873497  0.61107484  0.60256612  1
  H+  H343  1  0.85961091  0.12864122  0.34355064  1
  H+  H344  1  0.15849069  0.31712138  0.56919888  1
  H+  H345  1  0.43296590  0.07114290  0.61644642  1
  H+  H346  1  0.13974656  0.06100266  0.59243632  1
  H+  H347  1  0.82915245  0.15870786  0.77513474  1
  H+  H348  1  0.20009235  0.13401490  0.24450831  1
  H+  H349  1  0.42369484  0.35391721  0.21587293  1
  H+  H350  1  0.34821142  0.15332423  0.79548024  1
  H+  H351  1  0.82789270  0.41956598  0.39916646  1
  H+  H352  1  0.67113519  0.61951209  0.90530269  1
  H+  H353  1  0.07179033  0.15675526  0.43178459  1
  H+  H354  1  0.12562389  0.86704701  0.13619071  1
  H+  H355  1  0.33352435  0.91736722  0.77941054  1
  H+  H356  1  0.86719762  -0.02343947  0.82161803  1
  H+  H357  1  0.05489548  0.38077117  0.77549943  1
  H+  H358  1  0.82280615  0.66297016  0.73148769  1
  H+  H359  1  0.33831447  0.67898294  0.44018761  1
  H+  H360  1  0.76194944  0.85955674  0.67984396  1
  H+  H361  1  0.22798295  0.65866460  0.26262868  1
  H+  H362  1  0.38944543  0.78463623  0.51246409  1
  H+  H363  1  0.67399898  0.08579999  0.60901765  1
  H+  H364  1  0.33163142  0.41506326  0.39523320  1
  H+  H365  1  0.61278382  0.22701121  0.49920706  1
  H+  H366  1  0.91828776  0.58503445  0.92676917  1
  H+  H367  1  0.14141432  0.26295979  0.16616747  1
  H+  H368  1  0.32894557  0.65788103  0.05306840  1
  H+  H369  1  0.41055845  0.58876043  0.26758921  1
  H+  H370  1  0.09334601  0.17662216  0.09427244  1
  H+  H371  1  0.13960947  0.02213048  0.32416207  1
  H+  H372  1  0.84647248  0.71345353  0.48426924  1
  H+  H373  1  0.92274051  0.83623137  0.23717438  1
  H+  H374  1  0.93027484  0.36174834  0.58879728  1
  H+  H375  1  0.33119110  0.42389887  0.09569436  1
  H+  H376  1  0.89590565  0.57367926  0.25964086  1
  H+  H377  1  0.56301603  0.41568334  0.44295772  1
  H+  H378  1  0.82829805  0.16159013  0.43878862  1
  H+  H379  1  0.89440740  0.78721147  0.99415061  1
  H+  H380  1  0.57191858  0.90228292  0.39968065  1
  H+  H381  1  0.12338006  0.64331146  0.82780716  1
  H+  H382  1  0.92051400  0.07894661  0.27031147  1
  H+  H383  1  0.97888077  0.86196185  0.83438174  1
  O2-  O384  1  0.09205237  0.17659856  0.13972997  1
  O2-  O385  1  0.06814132  0.15112342  0.47723346  1
  O2-  O386  1  0.08864537  0.16148764  0.81877151  1
  O2-  O387  1  0.11511160  0.43125656  0.11466371  1
  O2-  O388  1  0.08519958  0.42044836  0.48979138  1
  O2-  O389  1  0.06056510  0.39946124  0.81850321  1
  O2-  O390  1  0.08185692  0.66094914  0.13551346  1
  O2-  O391  1  0.09626731  0.69781546  0.45855718  1
  O2-  O392  1  0.08639858  0.66765158  0.81703292  1
  O2-  O393  1  0.06479986  0.85313209  0.12698914  1
  O2-  O394  1  0.06969611  0.90932224  0.46788780  1
  O2-  O395  1  0.09438907  0.91600980  0.81573816  1
  O2-  O396  1  0.35801895  0.19097887  0.14729686  1
  O2-  O397  1  0.31785226  0.14543907  0.49306852  1
  O2-  O398  1  0.34085933  0.16016474  0.83845396  1
  O2-  O399  1  0.33182374  0.41732334  0.13970458  1
  O2-  O400  1  0.35391848  0.43664568  0.52082356  1
  O2-  O401  1  0.31907969  0.43061283  0.81891476  1
  O2-  O402  1  0.32664306  0.65873320  0.13422118  1
  O2-  O403  1  0.33760686  0.68298670  0.48599809  1
  O2-  O404  1  0.28569057  0.65652362  0.82292987  1
  O2-  O405  1  0.22368482  0.87909938  0.14152203  1
  O2-  O406  1  0.32245548  0.90780544  0.47657059  1
  O2-  O407  1  0.33316494  0.91925629  0.82496023  1
  O2-  O408  1  0.58824573  0.16539267  0.14980677  1
  O2-  O409  1  0.58232366  0.16554309  0.48815120  1
  O2-  O410  1  0.59158496  0.18956364  0.82310266  1
  O2-  O411  1  0.59522339  0.42452741  0.15065042  1
  O2-  O412  1  0.56548207  0.41025552  0.48759356  1
  O2-  O413  1  0.58839141  0.41368094  0.80392560  1
  O2-  O414  1  0.57944749  0.66563842  0.15610969  1
  O2-  O415  1  0.58581029  0.66977224  0.48193607  1
  O2-  O416  1  0.57653919  0.72160556  0.82686207  1
  O2-  O417  1  0.59992219  0.91530235  0.13827206  1
  O2-  O418  1  0.57329966  0.89886581  0.46733750  1
  O2-  O419  1  0.56618009  0.90316601  0.80755043  1
  O2-  O420  1  0.75601408  0.07058370  0.12626660  1
  O2-  O421  1  0.83405766  0.17042671  0.48373268  1
  O2-  O422  1  0.83198753  0.15808063  0.82031371  1
  O2-  O423  1  0.83040756  0.42850418  0.14026913  1
  O2-  O424  1  0.83236307  0.42183975  0.47662924  1
  O2-  O425  1  0.83813352  0.42133934  0.81262348  1
  O2-  O426  1  0.82298175  0.68478643  0.14180263  1
  O2-  O427  1  0.81906532  0.65026464  0.47832071  1
  O2-  O428  1  0.82495773  0.66347001  0.80935755  1
  O2-  O429  1  0.83879544  0.92008814  0.14793006  1
  O2-  O430  1  0.82165086  0.91307217  0.48261183  1
  O2-  O431  1  0.83668963  0.91644697  0.80714487  1
  O2-  O432  1  0.22210831  0.17311422  0.20900141  1
  O2-  O433  1  0.14905614  0.06862048  0.51563161  1
  O2-  O434  1  0.16900785  0.07957398  0.86284447  1
  O2-  O435  1  0.17809148  0.32460840  0.18515398  1
  O2-  O436  1  0.14900578  0.31567319  0.52304643  1
  O2-  O437  1  0.15775846  0.32764931  0.85651426  1
  O2-  O438  1  0.16500208  0.57639923  0.15178256  1
  O2-  O439  1  0.17157575  0.60111554  0.50518600  1
  O2-  O440  1  0.20850391  0.61384867  0.84203384  1
  O2-  O441  1  0.21616053  0.80545875  0.17605302  1
  O2-  O442  1  0.17493825  0.87011462  0.53232321  1
  O2-  O443  1  0.17053206  0.83599237  0.85733511  1
  O2-  O444  1  0.40581589  0.06568659  0.19567028  1
  O2-  O445  1  0.37160289  0.04796695  0.54764568  1
  O2-  O446  1  0.42821926  0.07904494  0.87497841  1
  O2-  O447  1  0.42721613  0.35227032  0.17109553  1
  O2-  O448  1  0.40750457  0.31306281  0.52785668  1
  O2-  O449  1  0.42801634  0.32070560  0.85982953  1
  O2-  O450  1  0.41199499  0.58671798  0.18731129  1
  O2-  O451  1  0.43277711  0.61760192  0.52674210  1
  O2-  O452  1  0.40562840  0.59809804  0.84622153  1
  O2-  O453  1  0.44156617  0.81139164  0.18582220  1
  O2-  O454  1  0.42024616  0.84548418  0.52689374  1
  O2-  O455  1  0.40569604  0.82835505  0.85937867  1
  O2-  O456  1  0.62667499  0.06729446  0.20687985  1
  O2-  O457  1  0.67147773  0.09592919  0.53993757  1
  O2-  O458  1  0.66807401  0.06136848  0.86833998  1
  O2-  O459  1  0.66885456  0.32517953  0.18141473  1
  O2-  O460  1  0.66837066  0.33838953  0.52280152  1
  O2-  O461  1  0.67277525  0.34735379  0.85150652  1
  O2-  O462  1  0.66165385  0.58047894  0.20091763  1
  O2-  O463  1  0.65386191  0.57309256  0.52151737  1
  O2-  O464  1  0.66307393  0.62295241  0.86085888  1
  O2-  O465  1  0.67601953  0.83433352  0.18949057  1
  O2-  O466  1  0.65833294  0.83040369  0.53196407  1
  O2-  O467  1  0.63062124  0.88401076  0.83078081  1
  O2-  O468  1  0.93069375  0.08412623  0.18763186  1
  O2-  O469  1  0.90601383  0.07597335  0.52384011  1
  O2-  O470  1  0.92278863  0.08426352  0.85288657  1
  O2-  O471  1  0.92351286  0.38021781  0.21358316  1
  O2-  O472  1  0.91227602  0.33521657  0.51654793  1
  O2-  O473  1  0.90476531  0.32339399  0.85958057  1
  O2-  O474  1  0.91415071  0.59118331  0.17992855  1
  O2-  O475  1  0.91854878  0.58884259  0.52320991  1
  O2-  O476  1  0.91552306  0.58499002  0.85243543  1
  O2-  O477  1  0.92246683  0.83698937  0.19162889  1
  O2-  O478  1  0.89944742  0.82407977  0.46594374  1
  O2-  O479  1  0.91800545  0.83575525  0.84617986  1
  O2-  O480  1  0.17009374  0.08551014  0.31773241  1
  O2-  O481  1  0.14519705  0.06175632  0.63789105  1
  O2-  O482  1  0.17834427  0.08382649  0.98405632  1
  O2-  O483  1  0.16676513  0.32605776  0.30170433  1
  O2-  O484  1  0.16983610  0.32170423  0.64041075  1
  O2-  O485  1  0.17239271  0.34202765  0.97283948  1
  O2-  O486  1  0.13456742  0.55063972  0.38326297  1
  O2-  O487  1  0.17365999  0.59484572  0.64537093  1
  O2-  O488  1  0.15823967  0.57728726  0.97439316  1
  O2-  O489  1  0.15780534  0.81167072  0.35269328  1
  O2-  O490  1  0.16928954  0.82900377  0.65565113  1
  O2-  O491  1  0.15448902  0.83385661  0.96795544  1
  O2-  O492  1  0.42504293  0.09381681  0.32409031  1
  O2-  O493  1  0.43605193  0.07425674  0.66145963  1
  O2-  O494  1  0.42159280  0.07314986  0.99663934  1
  O2-  O495  1  0.41496255  0.34381353  0.29855517  1
  O2-  O496  1  0.42364013  0.35771233  0.64541832  1
  O2-  O497  1  0.42543830  0.33544922  0.98283095  1
  O2-  O498  1  0.41161041  0.58899679  0.31296453  1
  O2-  O499  1  0.41262572  0.59159550  0.65338455  1
  O2-  O500  1  0.42142994  0.59229341  0.96834977  1
  O2-  O501  1  0.44331208  0.91291778  0.27980949  1
  O2-  O502  1  0.42191929  0.83765433  0.64947082  1
  O2-  O503  1  0.39933815  0.82393591  0.98515719  1
  O2-  O504  1  0.66334062  0.07320612  0.32120133  1
  O2-  O505  1  0.67651426  0.07999443  0.65554593  1
  O2-  O506  1  0.67061856  0.05308356  0.98406548  1
  O2-  O507  1  0.67248713  0.30681195  0.30280093  1
  O2-  O508  1  0.67327947  0.32536547  0.64513064  1
  O2-  O509  1  0.66711536  0.36461486  0.97846547  1
  O2-  O510  1  0.65359668  0.58744231  0.32285956  1
  O2-  O511  1  0.66445097  0.57024964  0.64055614  1
  O2-  O512  1  0.70036214  0.58454071  0.97253565  1
  O2-  O513  1  0.66125401  0.83165854  0.31128705  1
  O2-  O514  1  0.67983252  0.80420543  0.65677519  1
  O2-  O515  1  0.65139033  0.72841191  1.01337976  1
  O2-  O516  1  0.91575294  0.07733784  0.31529816  1
  O2-  O517  1  0.95002373  0.14755830  0.63767355  1
  O2-  O518  1  0.88625499  0.05541921  0.97900449  1
  O2-  O519  1  0.91536446  0.32418049  0.34617471  1
  O2-  O520  1  0.94822112  0.38779185  0.63085063  1
  O2-  O521  1  0.90377067  0.32766248  0.97965763  1
  O2-  O522  1  0.89861393  0.57365629  0.30489769  1
  O2-  O523  1  0.91652881  0.58759066  0.65079503  1
  O2-  O524  1  0.92095750  0.58856590  0.97286032  1
  O2-  O525  1  0.91127072  0.82847979  0.31697432  1
  O2-  O526  1  0.91253227  0.83459342  0.65264141  1
  O2-  O527  1  0.91576929  0.84960549  0.98636961  1
  O2-  O528  1  0.11192463  0.18955653  0.01694458  1
  O2-  O529  1  0.08144194  0.16194848  0.35497856  1
  O2-  O530  1  0.09131451  0.16341276  0.69347818  1
  O2-  O531  1  0.07967766  0.41828224  0.00392041  1
  O2-  O532  1  0.10009575  0.43242977  0.29344701  1
  O2-  O533  1  0.03508227  0.32916102  0.70206503  1
  O2-  O534  1  0.08454931  0.67871132  0.01010899  1
  O2-  O535  1  0.06452054  0.63558574  0.32190851  1
  O2-  O536  1  0.08187976  0.66756973  0.69312410  1
  O2-  O537  1  0.08130516  0.91799336  0.01305658  1
  O2-  O538  1  0.08064094  0.91279714  0.34619042  1
  O2-  O539  1  0.07990551  0.90604848  0.69442524  1
  O2-  O540  1  0.34663936  0.16911243  0.02397820  1
  O2-  O541  1  0.33036951  0.16556234  0.37357945  1
  O2-  O542  1  0.32472657  0.14349145  0.66112333  1
  O2-  O543  1  0.34373461  0.42316538  -0.04579091  1
  O2-  O544  1  0.32750710  0.41466502  0.35102745  1
  O2-  O545  1  0.32425806  0.43229668  0.68690917  1
  O2-  O546  1  0.32863196  0.65877314  0.00811328  1
  O2-  O547  1  0.32068863  0.66081590  0.36719593  1
  O2-  O548  1  0.34025417  0.67320467  0.69297598  1
  O2-  O549  1  0.32859198  0.90789971  0.05156745  1
  O2-  O550  1  0.33109620  0.92426264  0.35496424  1
  O2-  O551  1  0.33216459  0.90883566  0.70230197  1
  O2-  O552  1  0.57352567  0.12641266  0.03590775  1
  O2-  O553  1  0.59120341  0.16315184  0.35782477  1
  O2-  O554  1  0.60284322  0.16888552  0.70036697  1
  O2-  O555  1  0.58662783  0.43766279  0.02950138  1
  O2-  O556  1  0.56287204  0.43053796  0.36091536  1
  O2-  O557  1  0.58887236  0.40576934  0.68212717  1
  O2-  O558  1  0.58074696  0.66709500  0.03407877  1
  O2-  O559  1  0.57665541  0.67239301  0.35821707  1
  O2-  O560  1  0.57892487  0.64493220  0.69554792  1
  O2-  O561  1  0.56212133  0.87948820  0.00908158  1
  O2-  O562  1  0.57845433  0.91030475  0.35262070  1
  O2-  O563  1  0.58255073  0.91524939  0.69514923  1
  O2-  O564  1  0.82957128  0.15495024  0.01903546  1
  O2-  O565  1  0.82548674  0.15384241  0.35985394  1
  O2-  O566  1  0.82960027  0.16272165  0.69581204  1
  O2-  O567  1  0.83583163  0.42398632  0.01833799  1
  O2-  O568  1  0.83075146  0.41627466  0.35368643  1
  O2-  O569  1  0.83385737  0.42187122  0.68854417  1
  O2-  O570  1  0.86106799  0.68643990  0.01647880  1
  O2-  O571  1  0.82367862  0.66130446  0.35387619  1
  O2-  O572  1  0.82382843  0.66336482  0.68606834  1
  O2-  O573  1  0.82268110  0.89828182  0.02738890  1
  O2-  O574  1  0.82481013  0.91362660  0.35653763  1
  O2-  O575  1  0.82634099  0.90315126  0.69459624  1
