# generated using pymatgen
data_H2O
_symmetry_space_group_name_H-M   'P 1'
_cell_length_a   17.99080593
_cell_length_b   17.98075179
_cell_length_c   21.97631040
_cell_angle_alpha   90.02041413
_cell_angle_beta   89.96561135
_cell_angle_gamma   120.01246338
_symmetry_Int_Tables_number   1
_chemical_formula_structural   H2O
_chemical_formula_sum   'H384 O192'
_cell_volume   6155.86718636
_cell_formula_units_Z   192
loop_
 _symmetry_equiv_pos_site_id
 _symmetry_equiv_pos_as_xyz
  1  'x, y, z'
loop_
 _atom_type_symbol
 _atom_type_oxidation_number
  H+  1.0
  O2-  -2.0
loop_
 _atom_site_type_symbol
 _atom_site_label
 _atom_site_symmetry_multiplicity
 _atom_site_fract_x
 _atom_site_fract_y
 _atom_site_fract_z
 _atom_site_occupancy
  H+  H0  1  0.57805183  0.65925872  0.53635465  1
  H+  H1  1  0.28640411  0.13344621  0.49304171  1
  H+  H2  1  0.13104082  0.11899688  -0.01927267  1
  H+  H3  1  0.95199462  0.66044365  0.83936605  1
  H+  H4  1  0.32150413  0.15306995  0.09317957  1
  H+  H5  1  0.72789608  0.60387029  0.66700432  1
  H+  H6  1  0.83834496  0.49348905  0.20643060  1
  H+  H7  1  0.12953479  0.24554594  -0.00556719  1
  H+  H8  1  0.12608944  0.98434171  0.34532100  1
  H+  H9  1  0.36408751  0.47226857  0.33081939  1
  H+  H10  1  0.33658533  0.41327982  0.42946254  1
  H+  H11  1  0.87190497  0.73876421  -0.01560786  1
  H+  H12  1  0.59452313  0.42111202  0.43702721  1
  H+  H13  1  0.77745316  0.62537074  0.50058882  1
  H+  H14  1  0.66345293  0.58659744  0.28012403  1
  H+  H15  1  0.36244221  0.97382610  0.16047313  1
  H+  H16  1  0.65536823  0.12510868  0.18904954  1
  H+  H17  1  0.13335681  0.63780552  0.82615104  1
  H+  H18  1  0.63680237  0.35988051  0.66283558  1
  H+  H19  1  0.27654610  0.13010385  0.81906531  1
  H+  H20  1  0.89927186  0.86999701  0.98415314  1
  H+  H21  1  0.51668098  0.63186992  0.67407821  1
  H+  H22  1  0.40714965  0.57396743  0.25397915  1
  H+  H23  1  0.89638025  0.78043281  0.19002430  1
  H+  H24  1  0.37063802  0.72395231  0.33959475  1
  H+  H25  1  0.47887310  0.85636829  0.50656431  1
  H+  H26  1  0.91705126  0.82627986  0.88798585  1
  H+  H27  1  0.91032144  0.29801209  0.83258300  1
  H+  H28  1  0.89912176  0.77261479  0.65188657  1
  H+  H29  1  0.48738157  0.37982033  -0.00992636  1
  H+  H30  1  0.52491458  0.14381128  0.82607559  1
  H+  H31  1  0.92406077  0.60249498  0.57016918  1
  H+  H32  1  0.35491607  0.63665686  0.67434937  1
  H+  H33  1  0.22822405  0.86146328  0.17673733  1
  H+  H34  1  0.11745915  0.72918935  0.34524403  1
  H+  H35  1  0.48576355  0.39094632  0.83825227  1
  H+  H36  1  0.28042895  0.14401774  0.33936789  1
  H+  H37  1  0.51444913  0.89372248  0.82427439  1
  H+  H38  1  0.86809168  0.36185222  0.01305994  1
  H+  H39  1  0.68901310  0.84613512  0.07611804  1
  H+  H40  1  0.87559958  0.63339004  0.49640597  1
  H+  H41  1  0.61453937  0.14503030  0.82698519  1
  H+  H42  1  0.39420826  0.36112475  0.50019765  1
  H+  H43  1  0.64382385  0.27216651  0.99689270  1
  H+  H44  1  0.27347219  0.63438852  0.15580531  1
  H+  H45  1  0.62572126  0.87364076  0.83379182  1
  H+  H46  1  0.93522932  0.93379583  0.15651271  1
  H+  H47  1  0.89473947  -0.00582723  0.15593502  1
  H+  H48  1  0.46473057  0.61284317  0.84062803  1
  H+  H49  1  0.65555257  0.01660741  0.97912290  1
  H+  H50  1  0.70795620  0.86384697  0.84556451  1
  H+  H51  1  0.14588915  0.61793891  0.99700869  1
  H+  H52  1  0.63828537  0.11505468  0.65937498  1
  H+  H53  1  0.38953117  0.12036870  0.32524274  1
  H+  H54  1  0.87644059  0.97643601  0.49973296  1
  H+  H55  1  0.61570142  0.47501907  0.81850839  1
  H+  H56  1  0.18783488  0.36192008  0.71297410  1
  H+  H57  1  0.69163044  0.37513779  0.26770111  1
  H+  H58  1  0.14016466  0.09677199  0.66961799  1
  H+  H59  1  0.88554592  0.52944716  0.98474364  1
  H+  H60  1  0.36992105  -0.02277532  0.49393822  1
  H+  H61  1  0.37046262  0.73478351  0.00472721  1
  H+  H62  1  0.35293185  0.46457879  0.49232721  1
  H+  H63  1  0.84075801  0.92041358  0.40375498  1
  H+  H64  1  0.76048253  0.37951167  0.67037174  1
  H+  H65  1  0.53629201  0.65914400  0.38521491  1
  H+  H66  1  1.03000785  0.63908965  0.34957472  1
  H+  H67  1  0.01593240  0.13082597  0.30838682  1
  H+  H68  1  0.65807315  0.33301011  0.11087295  1
  H+  H69  1  0.01416307  0.38652468  0.49551317  1
  H+  H70  1  0.90786321  0.03401905  0.98640938  1
  H+  H71  1  0.48793906  0.85049731  0.98024861  1
  H+  H72  1  0.57483034  0.92565744  0.76404787  1
  H+  H73  1  0.27995888  0.12801735  0.66639683  1
  H+  H74  1  0.27445113  0.38368562  0.33532149  1
  H+  H75  1  0.77604907  0.64269072  0.34959505  1
  H+  H76  1  0.66378540  0.78038665  1.02110159  1
  H+  H77  1  0.61702483  0.39225609  1.00593420  1
  H+  H78  1  0.39635654  0.35443989  0.65230139  1
  H+  H79  1  0.63457121  0.88026444  -0.00285453  1
  H+  H80  1  0.23281143  0.86156150  0.51224966  1
  H+  H81  1  0.13956405  0.36952395  0.33207601  1
  H+  H82  1  0.74235205  0.10873791  0.98934857  1
  H+  H83  1  0.39090343  0.85879110  0.50633071  1
  H+  H84  1  -0.03178012  0.37547184  0.66858518  1
  H+  H85  1  0.89327890  0.35814567  0.18123434  1
  H+  H86  1  0.29034885  0.39717249  -0.00240322  1
  H+  H87  1  0.44580734  0.59763012  0.51012301  1
  H+  H88  1  0.22568402  0.34792781  0.49444635  1
  H+  H89  1  0.89364239  0.36863997  0.50782635  1
  H+  H90  1  0.11629818  0.88778485  1.00218074  1
  H+  H91  1  0.66695044  0.08072372  0.56478596  1
  H+  H92  1  0.85967717  0.72490057  0.81048223  1
  H+  H93  1  0.34680008  0.98696420  -0.01638790  1
  H+  H94  1  0.89600023  0.37732652  0.83483309  1
  H+  H95  1  0.61606717  0.88563945  -0.07074582  1
  H+  H96  1  0.37967545  0.51069167  0.17270025  1
  H+  H97  1  0.65147910  0.75170039  0.51690431  1
  H+  H98  1  0.65038606  0.52128007  0.51004877  1
  H+  H99  1  0.21910220  0.61081510  0.66160176  1
  H+  H100  1  0.61308171  0.38420042  0.82571383  1
  H+  H101  1  0.11559186  0.97333829  0.67341513  1
  H+  H102  1  0.13858630  0.01691497  0.17164559  1
  H+  H103  1  0.04204662  0.63145494  0.82474935  1
  H+  H104  1  0.01802316  0.88222357  0.67458268  1
  H+  H105  1  0.36040819  0.59998325  0.50873908  1
  H+  H106  1  0.64738003  0.78009925  0.34284755  1
  H+  H107  1  0.08437863  0.95474040  0.51037473  1
  H+  H108  1  0.99321820  0.37184316  0.98896870  1
  H+  H109  1  0.55547847  0.13840811  0.02210472  1
  H+  H110  1  1.02800772  0.09778580  0.13760491  1
  H+  H111  1  0.09192592  0.47287167  0.68108958  1
  H+  H112  1  0.08318414  0.91521556  0.06065385  1
  H+  H113  1  0.63629193  0.86638669  0.15387551  1
  H+  H114  1  0.63829297  0.12973074  0.01737480  1
  H+  H115  1  0.86115318  0.38338950  0.66734648  1
  H+  H116  1  0.36679954  0.98052760  0.82137708  1
  H+  H117  1  0.12476832  0.73229503  0.16016174  1
  H+  H118  1  0.15973277  0.53020361  0.84368246  1
  H+  H119  1  0.61462245  0.39208389  0.34006671  1
  H+  H120  1  0.87871877  0.14132856  1.00036368  1
  H+  H121  1  1.01086532  0.09799406  0.51957998  1
  H+  H122  1  0.03815952  0.15920058  -0.00371036  1
  H+  H123  1  0.15125145  0.52998893  0.99690405  1
  H+  H124  1  0.62072875  0.26358307  0.16188656  1
  H+  H125  1  0.39263173  0.38568469  -0.00824235  1
  H+  H126  1  0.26722348  0.38263919  0.16736618  1
  H+  H127  1  0.13225009  0.40329397  -0.00213190  1
  H+  H128  1  0.09160398  0.16865331  0.26202964  1
  H+  H129  1  1.03014624  0.88500034  0.16195783  1
  H+  H130  1  0.47308171  0.60088632  0.30721124  1
  H+  H131  1  -0.01476224  0.62080149  0.51135973  1
  H+  H132  1  0.74645616  0.13243210  0.17904835  1
  H+  H133  1  0.72073949  0.61353594  0.18993848  1
  H+  H134  1  0.63865101  0.86487432  0.66793589  1
  H+  H135  1  0.12374138  0.02577537  0.98215069  1
  H+  H136  1  0.46588179  0.15788313  0.01986358  1
  H+  H137  1  0.33109275  0.11213281  1.00215466  1
  H+  H138  1  0.61573908  0.97203194  0.49707139  1
  H+  H139  1  0.46210211  0.35842284  0.16807039  1
  H+  H140  1  0.42110753  0.42684399  0.85140764  1
  H+  H141  1  0.35463936  0.37817479  0.16951409  1
  H+  H142  1  0.37126260  0.52434885  0.67684587  1
  H+  H143  1  0.60588334  0.63220081  0.67889087  1
  H+  H144  1  0.52800209  0.13706907  0.67152331  1
  H+  H145  1  0.48585320  0.35720809  0.65758096  1
  H+  H146  1  0.36193757  0.64000019  0.82644580  1
  H+  H147  1  0.64591662  0.78302304  0.15662118  1
  H+  H148  1  0.15126644  0.77573234  0.66258026  1
  H+  H149  1  0.39861874  0.61831534  -0.00090685  1
  H+  H150  1  0.86262127  0.23091733  0.66827637  1
  H+  H151  1  0.02720619  0.65858432  0.67966834  1
  H+  H152  1  0.98406043  0.86278500  0.98314350  1
  H+  H153  1  0.48471003  0.11007605  0.50195585  1
  H+  H154  1  0.86822668  0.47876462  0.50276373  1
  H+  H155  1  0.27175185  0.12823588  0.15742222  1
  H+  H156  1  0.72722455  0.11481936  0.65414266  1
  H+  H157  1  0.88387328  0.85571470  0.83090886  1
  H+  H158  1  0.73217669  0.35606776  -0.00167961  1
  H+  H159  1  0.32760306  0.66959081  0.73275388  1
  H+  H160  1  0.61174280  0.63515622  0.16670158  1
  H+  H161  1  0.38655148  0.36582350  0.33481504  1
  H+  H162  1  0.64339724  0.27766230  0.83924589  1
  H+  H163  1  0.66880287  0.07866280  0.28219885  1
  H+  H164  1  0.16357335  0.07288103  0.60295672  1
  H+  H165  1  0.53914938  0.64311023  0.00608222  1
  H+  H166  1  0.86306831  0.48507378  0.81641765  1
  H+  H167  1  0.93372191  0.34898045  0.27096511  1
  H+  H168  1  0.13470626  0.34258990  0.49496087  1
  H+  H169  1  0.11943245  0.47804017  0.15749255  1
  H+  H170  1  0.64290259  0.36357220  0.50833267  1
  H+  H171  1  0.80297991  0.89902591  0.02133823  1
  H+  H172  1  0.48352110  0.36783279  0.33980523  1
  H+  H173  1  0.76821720  0.36921182  0.16656817  1
  H+  H174  1  0.53343082  0.39033652  0.49491427  1
  H+  H175  1  0.37372801  0.22593848  0.49126379  1
  H+  H176  1  0.11266173  0.63442705  0.49876563  1
  H+  H177  1  0.16212917  0.83047070  0.23385234  1
  H+  H178  1  0.11303781  0.94469547  0.41090441  1
  H+  H179  1  0.51858764  0.88333363  0.16334895  1
  H+  H180  1  0.81246895  0.17011183  0.27525284  1
  H+  H181  1  0.63807614  0.27008162  0.66290782  1
  H+  H182  1  0.38714039  0.11171083  0.82990760  1
  H+  H183  1  0.35877477  0.72138272  0.49338010  1
  H+  H184  1  0.98465287  0.86614475  0.34362916  1
  H+  H185  1  0.52526053  0.88717049  0.67042944  1
  H+  H186  1  0.14637995  0.61551787  0.17286763  1
  H+  H187  1  0.85723904  0.66018385  0.71490335  1
  H+  H188  1  0.00074903  0.12722957  0.71368992  1
  H+  H189  1  0.64621149  0.28810428  0.30571777  1
  H+  H190  1  0.33573182  0.91040900  0.26539941  1
  H+  H191  1  0.11225962  0.48084797  0.49733939  1
  H+  H192  1  0.62011883  0.48267209  0.99889284  1
  H+  H193  1  0.25458358  0.12995310  0.00252492  1
  H+  H194  1  0.36405195  0.72413429  0.15714351  1
  H+  H195  1  0.38466366  0.77515182  0.83760061  1
  H+  H196  1  0.91909850  0.57000263  0.09939773  1
  H+  H197  1  0.38386920  0.60338337  0.16558326  1
  H+  H198  1  0.13390498  0.27807956  0.32222560  1
  H+  H199  1  0.37284636  0.97648490  0.66797378  1
  H+  H200  1  0.13695090  0.76980508  -0.00981508  1
  H+  H201  1  0.11702781  0.10980857  0.78091744  1
  H+  H202  1  0.66459791  0.61821449  0.51713743  1
  H+  H203  1  0.36461638  0.63227804  0.33687399  1
  H+  H204  1  0.59150281  0.16900865  0.25475979  1
  H+  H205  1  0.63881007  0.61196849  0.98475136  1
  H+  H206  1  0.12604102  0.21666178  0.48265708  1
  H+  H207  1  0.02914009  0.39833633  0.34501746  1
  H+  H208  1  0.39660329  0.11148493  0.50187165  1
  H+  H209  1  0.89117774  0.11269797  0.65921837  1
  H+  H210  1  0.61242785  0.46739957  0.67546666  1
  H+  H211  1  0.14333283  0.77116120  0.51445315  1
  H+  H212  1  0.38638707  0.77140847  0.66094502  1
  H+  H213  1  0.95745518  0.87552004  0.57329433  1
  H+  H214  1  0.92840018  0.89423394  0.50945302  1
  H+  H215  1  0.11232592  0.38547383  0.15578755  1
  H+  H216  1  0.88848799  0.85687024  0.66357744  1
  H+  H217  1  0.89179794  0.52598623  0.35097291  1
  H+  H218  1  0.13504289  1.01579035  0.83070950  1
  H+  H219  1  0.48685924  0.85833514  0.32936141  1
  H+  H220  1  0.12057788  0.48765637  0.34610675  1
  H+  H221  1  0.87859544  0.22982987  -0.00041614  1
  H+  H222  1  0.22162485  0.60641906  0.50749336  1
  H+  H223  1  0.26918690  0.64046934  0.00640409  1
  H+  H224  1  0.24895814  0.86619940  0.65934642  1
  H+  H225  1  0.78262302  0.89433656  0.49981466  1
  H+  H226  1  -0.07078642  0.57140025  0.13281316  1
  H+  H227  1  0.77603444  0.88160186  0.67476798  1
  H+  H228  1  0.89702541  0.37397126  0.33070900  1
  H+  H229  1  0.38455557  0.85492974  0.17654735  1
  H+  H230  1  0.88574331  0.11386875  0.31744038  1
  H+  H231  1  0.71231806  0.61177625  0.82071222  1
  H+  H232  1  0.72075740  0.11312435  0.34079679  1
  H+  H233  1  0.86820918  0.73266293  0.35118600  1
  H+  H234  1  0.64433578  0.86831466  0.51418982  1
  H+  H235  1  0.32564104  0.39548909  0.72932538  1
  H+  H236  1  0.07945569  0.38013911  0.69750750  1
  H+  H237  1  0.87021795  0.14526175  0.50398669  1
  H+  H238  1  0.01986264  0.87371045  0.82070853  1
  H+  H239  1  0.58361442  0.73077849  0.83071498  1
  H+  H240  1  0.52213905  0.63147199  0.15826336  1
  H+  H241  1  0.61296736  0.48040161  0.34495972  1
  H+  H242  1  0.12317078  0.26386448  0.17285233  1
  H+  H243  1  0.38751598  0.26957053  0.33915428  1
  H+  H244  1  0.97291716  0.10935292  0.81778127  1
  H+  H245  1  0.83487487  0.61338510  0.20136983  1
  H+  H246  1  0.66888066  0.33031718  0.56800142  1
  H+  H247  1  0.89145315  0.61599661  0.34959172  1
  H+  H248  1  0.22472406  0.86448590  0.32115446  1
  H+  H249  1  0.13230100  0.61386347  0.65783283  1
  H+  H250  1  0.97863223  0.00865932  0.55043289  1
  H+  H251  1  0.73335740  0.86770109  0.33506303  1
  H+  H252  1  0.98631753  0.36712616  0.17335333  1
  H+  H253  1  0.61297403  0.97012087  0.34945651  1
  H+  H254  1  0.63945220  0.61541253  0.34348174  1
  H+  H255  1  0.87986785  0.22748235  0.15822231  1
  H+  H256  1  0.75300365  0.10630878  0.81638012  1
  H+  H257  1  0.14433018  0.11245756  0.31933749  1
  H+  H258  1  0.89604846  0.86672785  0.33845269  1
  H+  H259  1  0.37280378  0.88620898  0.66976159  1
  H+  H260  1  0.61351933  0.97823761  0.66988366  1
  H+  H261  1  0.62268298  0.23077518  0.49358647  1
  H+  H262  1  0.47854097  0.12195540  0.31056898  1
  H+  H263  1  0.11802766  0.88507778  0.15671122  1
  H+  H264  1  0.58043166  0.43114169  0.09948962  1
  H+  H265  1  0.83344074  0.07491131  0.17307353  1
  H+  H266  1  0.48110081  0.17889174  0.98909066  1
  H+  H267  1  0.15054461  0.09949724  0.49710016  1
  H+  H268  1  0.83480324  0.41256625  0.40851609  1
  H+  H269  1  0.10587160  0.26999136  0.72033190  1
  H+  H270  1  0.38010366  0.48476858  0.00469214  1
  H+  H271  1  0.83687159  0.62667546  0.81336649  1
  H+  H272  1  0.27659334  0.64447829  0.82794350  1
  H+  H273  1  0.51053289  0.12520362  0.16569061  1
  H+  H274  1  0.77888004  0.38861211  0.50229382  1
  H+  H275  1  0.39935413  0.86096927  0.32138104  1
  H+  H276  1  0.86367847  0.96774177  0.82728453  1
  H+  H277  1  0.58053461  0.40482628  0.73364775  1
  H+  H278  1  0.02710044  0.63483628  0.00393354  1
  H+  H279  1  0.72699537  0.61399864  -0.02702740  1
  H+  H280  1  0.14739103  0.77300690  0.83692321  1
  H+  H281  1  0.14881247  0.40689365  0.85372998  1
  H+  H282  1  0.86812437  -0.02279762  0.34273240  1
  H+  H283  1  0.13830611  0.86651934  0.33402411  1
  H+  H284  1  0.23160614  0.61580435  0.32819316  1
  H+  H285  1  0.36457699  0.87304430  1.00977356  1
  H+  H286  1  0.61976400  0.88341312  0.34675093  1
  H+  H287  1  0.36859320  0.21770714  0.66414710  1
  H+  H288  1  0.67576582  0.33681280  0.89893337  1
  H+  H289  1  0.66015451  0.57947466  0.88296272  1
  H+  H290  1  0.08879336  0.66782587  0.06307003  1
  H+  H291  1  0.88477959  0.05560259  0.26451890  1
  H+  H292  1  0.39464966  0.56670787  0.60971432  1
  H+  H293  1  0.82727017  0.67663989  0.04032097  1
  H+  H294  1  0.32281884  0.46307377  0.77086528  1
  H+  H295  1  0.33363180  0.67300603  0.07238086  1
  H+  H296  1  0.59622123  0.17391067  0.43363125  1
  H+  H297  1  0.60180538  0.39406320  0.15750913  1
  H+  H298  1  0.41841775  0.82192991  0.23306563  1
  H+  H299  1  0.84548712  0.65426729  0.13675288  1
  H+  H300  1  0.58616524  0.90922238  0.43927803  1
  H+  H301  1  0.11188063  0.87529485  0.82282454  1
  H+  H302  1  0.33288920  0.91266490  0.43798835  1
  H+  H303  1  0.94278611  0.08025252  0.61669554  1
  H+  H304  1  0.56097149  0.66924264  0.77212275  1
  H+  H305  1  0.36835331  0.98204294  0.31431444  1
  H+  H306  1  0.33181774  0.90530341  0.10617181  1
  H+  H307  1  0.41574453  0.82530690  0.93036797  1
  H+  H308  1  0.16261322  0.57607516  0.56877278  1
  H+  H309  1  0.31037918  0.45821875  0.87326701  1
  H+  H310  1  0.28237276  -0.00149118  0.94232860  1
  H+  H311  1  0.77903997  0.39129762  0.34682693  1
  H+  H312  1  0.63065902  0.52613959  0.18300988  1
  H+  H313  1  0.82853840  0.90744258  0.76915205  1
  H+  H314  1  0.17411136  0.58493958  0.23297848  1
  H+  H315  1  0.60979815  0.67845345  0.43049364  1
  H+  H316  1  0.18047168  0.59239885  0.90229139  1
  H+  H317  1  0.89483506  0.27860686  0.51153940  1
  H+  H318  1  0.93145217  0.34502282  0.93029452  1
  H+  H319  1  0.79123230  0.30310027  0.05464578  1
  H+  H320  1  0.58749319  0.15092160  0.11713694  1
  H+  H321  1  0.87451292  0.55642826  0.66695779  1
  H+  H322  1  0.32885658  0.66162521  0.43345292  1
  H+  H323  1  0.33600628  0.91648258  0.76427966  1
  H+  H324  1  0.67262866  0.57603739  0.60813311  1
  H+  H325  1  0.93507325  0.84493286  0.24478792  1
  H+  H326  1  0.17763448  0.07972028  0.26555018  1
  H+  H327  1  0.23145948  0.86629006  0.83613326  1
  H+  H328  1  0.40491323  0.07154077  0.88920067  1
  H+  H329  1  0.37889803  0.26618309  0.16432557  1
  H+  H330  1  0.08021913  0.40524565  0.80640679  1
  H+  H331  1  0.08083035  0.42428641  0.42943004  1
  H+  H332  1  0.03942159  0.64172251  0.15554860  1
  H+  H333  1  0.08626157  0.14637527  0.42871445  1
  H+  H334  1  0.61788125  0.14463806  0.31598574  1
  H+  H335  1  0.86741976  0.55071657  0.26715765  1
  H+  H336  1  0.88162967  0.09798653  0.83028724  1
  H+  H337  1  0.27090198  0.86462728  0.00953389  1
  H+  H338  1  0.83673228  0.66500261  0.43459968  1
  H+  H339  1  0.84031238  0.40954311  0.11815238  1
  H+  H340  1  0.09453143  0.16893978  0.09359141  1
  H+  H341  1  0.58319519  0.94323029  0.11284591  1
  H+  H342  1  0.17099464  0.83040019  0.93130586  1
  H+  H343  1  0.08843476  0.66994949  0.43956027  1
  H+  H344  1  0.86617189  0.97015883  0.67682185  1
  H+  H345  1  0.82811967  0.15862766  0.72085187  1
  H+  H346  1  0.78032133  0.14112881  0.50259035  1
  H+  H347  1  0.14149158  0.10732709  0.16954796  1
  H+  H348  1  0.33758257  0.15898738  0.76144673  1
  H+  H349  1  0.09290170  0.67379300  0.73404794  1
  H+  H350  1  0.59204754  0.65812815  0.06719381  1
  H+  H351  1  0.38164645  0.86351811  0.84029339  1
  H+  H352  1  0.67131544  0.08954497  0.89724930  1
  H+  H353  1  0.41876010  0.82791366  0.59975378  1
  H+  H354  1  0.87105747  0.23759615  0.32358586  1
  H+  H355  1  0.15619212  0.08320391  0.88394675  1
  H+  H356  1  0.42660739  0.07981815  0.59682063  1
  H+  H357  1  0.58551235  0.17004794  0.73265617  1
  H+  H358  1  0.15336048  0.32701771  0.23132691  1
  H+  H359  1  0.42638301  0.33164727  0.55887969  1
  H+  H360  1  0.18227553  0.83109566  0.59274061  1
  H+  H361  1  0.14332365  0.61798095  0.32978304  1
  H+  H362  1  0.64374447  1.11139221  0.50327775  1
  H+  H363  1  0.77408481  -0.02570434  0.18811703  1
  H+  H364  1  0.63489276  0.77331335  0.66631200  1
  H+  H365  1  0.91389260  0.34614733  0.60356744  1
  H+  H366  1  0.40434778  0.08273642  0.22532090  1
  H+  H367  1  0.08211797  0.90997133  0.73848725  1
  H+  H368  1  0.89016179  0.94572723  0.06093051  1
  H+  H369  1  0.76915298  0.04484034  0.77539287  1
  H+  H370  1  0.84664684  0.17124622  0.09636181  1
  H+  H371  1  0.42295224  0.58982334  0.93744720  1
  H+  H372  1  0.93162063  0.09122880  0.92594205  1
  H+  H373  1  0.67756107  0.84660775  0.57715488  1
  H+  H374  1  0.39340638  0.10788740  0.65538367  1
  H+  H375  1  0.88989520  0.62022824  0.98380379  1
  H+  H376  1  0.43187996  0.36368479  0.92492920  1
  H+  H377  1  0.62633890  0.02856135  0.83911333  1
  H+  H378  1  0.33954680  0.16911702  0.40062657  1
  H+  H379  1  0.37772534  0.10837016  0.16169892  1
  H+  H380  1  0.77542545  0.39399257  0.82380872  1
  H+  H381  1  0.09650159  0.42338156  0.06031426  1
  H+  H382  1  0.92569048  0.59457702  0.89395026  1
  H+  H383  1  0.82715458  0.41673517  0.73128233  1
  O2-  O384  1  0.08344537  0.15284179  0.13752107  1
  O2-  O385  1  0.10005289  0.15276442  0.47195481  1
  O2-  O386  1  0.09468919  0.11217387  0.73933906  1
  O2-  O387  1  0.08607837  0.41936262  0.13964919  1
  O2-  O388  1  0.07786424  0.42002784  0.47800399  1
  O2-  O389  1  0.13837252  0.44011610  0.82203726  1
  O2-  O390  1  0.09924668  0.67250984  0.14195627  1
  O2-  O391  1  0.08467360  0.66756302  0.48538182  1
  O2-  O392  1  0.10126790  0.66678962  0.80955892  1
  O2-  O393  1  0.08770852  0.91506518  0.14154790  1
  O2-  O394  1  0.14318493  0.98572802  0.49179935  1
  O2-  O395  1  0.08075056  0.90385930  0.80521121  1
  O2-  O396  1  0.33038278  0.15660357  0.13925702  1
  O2-  O397  1  0.34572912  0.16547502  0.47561638  1
  O2-  O398  1  0.33736507  0.15655056  0.80643214  1
  O2-  O399  1  0.32970277  0.41637265  0.16123497  1
  O2-  O400  1  0.33421914  0.40684753  0.47464008  1
  O2-  O401  1  0.36180548  0.48874976  0.84504219  1
  O2-  O402  1  0.33272150  0.66571337  0.13702964  1
  O2-  O403  1  0.32456197  0.66015265  0.47900361  1
  O2-  O404  1  0.33642992  0.67406502  0.81025385  1
  O2-  O405  1  0.33311337  0.91025305  0.15166704  1
  O2-  O406  1  0.33666668  0.91424561  0.48230023  1
  O2-  O407  1  0.33367135  0.91769759  0.80961021  1
  O2-  O408  1  0.57559272  0.15655779  0.16078380  1
  O2-  O409  1  0.59331888  0.16983829  0.47789051  1
  O2-  O410  1  0.58609810  0.17670743  0.81116905  1
  O2-  O411  1  0.57698119  0.42962891  0.14486347  1
  O2-  O412  1  0.59563182  0.42152828  0.48252562  1
  O2-  O413  1  0.58280201  0.41157819  0.80645173  1
  O2-  O414  1  0.58319706  0.66254457  0.14459674  1
  O2-  O415  1  0.62595341  0.68671651  0.50789955  1
  O2-  O416  1  0.54819043  0.67078370  0.81574634  1
  O2-  O417  1  0.58063653  0.91949989  0.15314016  1
  O2-  O418  1  0.58575223  0.90989682  0.48515147  1
  O2-  O419  1  0.57524933  0.92870977  0.80967902  1
  O2-  O420  1  0.84292203  0.16837894  0.14176870  1
  O2-  O421  1  0.84267921  0.17792803  0.49223716  1
  O2-  O422  1  0.79874982  0.10361588  0.79099305  1
  O2-  O423  1  0.83170874  0.40445674  0.16272972  1
  O2-  O424  1  0.83996539  0.41865956  0.48757153  1
  O2-  O425  1  0.83387725  0.42446407  0.80334330  1
  O2-  O426  1  0.83224545  0.66181838  0.17844470  1
  O2-  O427  1  0.83868895  0.65954397  0.48199742  1
  O2-  O428  1  0.82856927  0.66753505  0.78901066  1
  O2-  O429  1  0.93564283  0.98148085  0.13362040  1
  O2-  O430  1  0.84040646  0.91933184  0.48049147  1
  O2-  O431  1  0.82776247  0.90657176  0.81460425  1
  O2-  O432  1  0.16891733  0.07672216  0.18884248  1
  O2-  O433  1  0.18045257  0.07253723  0.51924210  1
  O2-  O434  1  0.16084351  0.07796836  0.83891995  1
  O2-  O435  1  0.15042908  0.32439112  0.18619213  1
  O2-  O436  1  0.16404242  0.31104197  0.50560433  1
  O2-  O437  1  0.20876481  0.38092423  0.90550033  1
  O2-  O438  1  0.17586432  0.58437237  0.18743976  1
  O2-  O439  1  0.16082054  0.57350249  0.52260749  1
  O2-  O440  1  0.18018454  0.59226061  0.85714653  1
  O2-  O441  1  0.16600147  0.82935035  0.18839801  1
  O2-  O442  1  0.17549132  0.83014608  0.53237182  1
  O2-  O443  1  0.17073041  0.83308750  0.85193833  1
  O2-  O444  1  0.40813026  0.07803407  0.18033979  1
  O2-  O445  1  0.42439717  0.07864593  0.51698175  1
  O2-  O446  1  0.42008033  0.08236338  0.84543458  1
  O2-  O447  1  0.40337754  0.32332734  0.18407283  1
  O2-  O448  1  0.42729158  0.33270504  0.51342991  1
  O2-  O449  1  0.43135625  0.37870940  0.85874126  1
  O2-  O450  1  0.41382045  0.57573835  0.18427324  1
  O2-  O451  1  0.38713779  0.56602511  0.52538694  1
  O2-  O452  1  0.40258291  0.58025726  0.86243102  1
  O2-  O453  1  0.41320120  0.82138146  0.18758532  1
  O2-  O454  1  0.41742832  0.82478099  0.52051646  1
  O2-  O455  1  0.41334191  0.83460007  0.85570922  1
  O2-  O456  1  0.69984299  0.11749129  0.20933851  1
  O2-  O457  1  0.67186898  0.07989785  0.51929401  1
  O2-  O458  1  0.66517613  0.08991843  0.85205330  1
  O2-  O459  1  0.65613502  0.32768176  0.15525470  1
  O2-  O460  1  0.67223761  0.33173178  0.52253457  1
  O2-  O461  1  0.67704769  0.33904249  0.85380418  1
  O2-  O462  1  0.65965432  0.58373203  0.20341989  1
  O2-  O463  1  0.68833117  0.58025573  0.52822191  1
  O2-  O464  1  0.65584656  0.57182910  0.83810634  1
  O2-  O465  1  0.67851751  0.84595811  0.14942709  1
  O2-  O466  1  0.68077237  0.84515805  0.53139887  1
  O2-  O467  1  0.64731566  0.84085902  0.85748166  1
  O2-  O468  1  0.83147138  0.02451496  0.19399386  1
  O2-  O469  1  0.96389581  0.05492800  0.54595346  1
  O2-  O470  1  0.92277479  0.08062280  0.84557624  1
  O2-  O471  1  0.92869906  0.33201986  0.19336987  1
  O2-  O472  1  0.92798413  0.34207316  0.52302477  1
  O2-  O473  1  0.93101138  0.35374047  0.85186755  1
  O2-  O474  1  0.82523457  0.52995670  0.23298001  1
  O2-  O475  1  0.92326818  0.59199032  0.52578099  1
  O2-  O476  1  0.92896178  0.59948666  0.84829951  1
  O2-  O477  1  0.93385559  0.84212796  0.19942597  1
  O2-  O478  1  0.97902232  0.91006247  0.53539093  1
  O2-  O479  1  0.91483980  0.82388136  0.84243113  1
  O2-  O480  1  0.17949626  0.08509145  0.31130664  1
  O2-  O481  1  0.16697069  0.06777384  0.64777014  1
  O2-  O482  1  0.15436804  0.08343943  0.96318137  1
  O2-  O483  1  0.16892406  0.34056062  0.31358457  1
  O2-  O484  1  0.12911927  0.32461861  0.69784942  1
  O2-  O485  1  0.19170089  0.36455738  0.96598160  1
  O2-  O486  1  0.17060667  0.58501238  0.31371513  1
  O2-  O487  1  0.15931376  0.58011592  0.64444931  1
  O2-  O488  1  0.18278277  0.59324418  0.98429770  1
  O2-  O489  1  0.16174272  0.83250725  0.31393800  1
  O2-  O490  1  0.18649815  0.83449935  0.64331638  1
  O2-  O491  1  0.17100993  0.83103224  0.97690831  1
  O2-  O492  1  0.41511052  0.08850484  0.30509096  1
  O2-  O493  1  0.42610385  0.07870596  0.64226082  1
  O2-  O494  1  0.34143118  0.02903750  0.95695421  1
  O2-  O495  1  0.42024255  0.33435279  0.32688648  1
  O2-  O496  1  0.42676766  0.32574076  0.63780193  1
  O2-  O497  1  0.42827353  0.35492854  0.97222446  1
  O2-  O498  1  0.41125175  0.57409757  0.30115735  1
  O2-  O499  1  0.40582240  0.57893645  0.65374198  1
  O2-  O500  1  0.43165339  0.59280633  0.98286879  1
  O2-  O501  1  0.42684773  0.82655074  0.31163498  1
  O2-  O502  1  0.42030098  0.83188918  0.64520442  1
  O2-  O503  1  0.42415789  0.82339336  0.97595472  1
  O2-  O504  1  0.66013232  0.07953192  0.32713714  1
  O2-  O505  1  0.66526750  0.08248856  0.64226018  1
  O2-  O506  1  0.68069202  0.08027455  0.97628989  1
  O2-  O507  1  0.67729346  0.35240353  0.30911861  1
  O2-  O508  1  0.67001990  0.33170800  0.64758596  1
  O2-  O509  1  0.67241285  0.33259803  0.98305950  1
  O2-  O510  1  0.66846990  0.58574656  0.32591388  1
  O2-  O511  1  0.66778304  0.57608257  0.65327423  1
  O2-  O512  1  0.66473028  0.57975238  0.96450531  1
  O2-  O513  1  0.67123014  0.83723555  0.32431690  1
  O2-  O514  1  0.66921034  0.83458700  0.65290942  1
  O2-  O515  1  0.69394305  0.84326552  1.03003488  1
  O2-  O516  1  0.90995262  0.07646103  0.30576100  1
  O2-  O517  1  0.92342019  0.08094555  0.65931520  1
  O2-  O518  1  0.93285042  0.09437469  0.97123605  1
  O2-  O519  1  0.93231461  0.34835616  0.31670137  1
  O2-  O520  1  0.90564097  0.34446474  0.64856657  1
  O2-  O521  1  0.93174462  0.33898695  0.97557312  1
  O2-  O522  1  0.92228087  0.58630047  0.33508481  1
  O2-  O523  1  0.91082331  0.61709569  0.65419594  1
  O2-  O524  1  0.92072526  0.58874484  0.97090423  1
  O2-  O525  1  0.92593120  0.83426748  0.32604517  1
  O2-  O526  1  0.92723067  0.83583456  0.64706383  1
  O2-  O527  1  0.92395286  0.83496992  0.96630181  1
  O2-  O528  1  0.09835766  0.18687067  0.01196879  1
  O2-  O529  1  0.08096315  0.16438197  0.30586146  1
  O2-  O530  1  0.04271807  0.15369984  0.74876553  1
  O2-  O531  1  0.09835119  0.42961394  0.01500176  1
  O2-  O532  1  0.08882595  0.42742421  0.36363100  1
  O2-  O533  1  0.05057391  0.41616856  0.69862076  1
  O2-  O534  1  0.08789839  0.66500828  0.01757637  1
  O2-  O535  1  0.09204608  0.66957927  0.36187429  1
  O2-  O536  1  0.08815053  0.67870160  0.68864346  1
  O2-  O537  1  0.08258216  0.91514363  0.01516233  1
  O2-  O538  1  0.09834968  0.92835529  0.36763308  1
  O2-  O539  1  0.08028689  0.91226550  0.69065437  1
  O2-  O540  1  0.31100330  0.14813218  0.02177569  1
  O2-  O541  1  0.34136037  0.17557678  0.35480709  1
  O2-  O542  1  0.34091643  0.15769841  0.67944090  1
  O2-  O543  1  0.35028920  0.42215606  0.01373231  1
  O2-  O544  1  0.33583178  0.41326837  0.34935135  1
  O2-  O545  1  0.30967041  0.43988055  0.72839743  1
  O2-  O546  1  0.33364592  0.67360968  0.02349186  1
  O2-  O547  1  0.33672643  0.66312851  0.35464922  1
  O2-  O548  1  0.32457880  0.66789494  0.68708197  1
  O2-  O549  1  0.33034481  0.89750944  0.02691555  1
  O2-  O550  1  0.33853560  0.91766774  0.30959328  1
  O2-  O551  1  0.34080368  0.91579262  0.68400695  1
  O2-  O552  1  0.61404515  0.16342715  0.03785933  1
  O2-  O553  1  0.59088063  0.17772161  0.29885083  1
  O2-  O554  1  0.58862042  0.17014780  0.68699665  1
  O2-  O555  1  0.58832824  0.42447276  0.01895585  1
  O2-  O556  1  0.58204596  0.41832120  0.35825783  1
  O2-  O557  1  0.58193269  0.40534870  0.68711227  1
  O2-  O558  1  0.59858232  0.66548766  0.02178599  1
  O2-  O559  1  0.59585022  0.67240039  0.38609612  1
  O2-  O560  1  0.57696692  0.66507695  0.68925595  1
  O2-  O561  1  0.60398517  0.90153829  -0.03026948  1
  O2-  O562  1  0.58347322  0.90877079  0.36216173  1
  O2-  O563  1  0.58493388  0.91884620  0.68744433  1
  O2-  O564  1  0.84683913  0.17012166  0.01609495  1
  O2-  O565  1  0.83403480  0.17424464  0.31681049  1
  O2-  O566  1  0.83464582  0.16817168  0.67604613  1
  O2-  O567  1  0.82073084  0.36173214  0.03863851  1
  O2-  O568  1  0.83843586  0.41718660  0.36317203  1
  O2-  O569  1  0.82477390  0.41393015  0.68453739  1
  O2-  O570  1  0.83886398  0.67492450  -0.00281069  1
  O2-  O571  1  0.83555418  0.67151503  0.36703440  1
  O2-  O572  1  0.85744033  0.65715785  0.66885444  1
  O2-  O573  1  0.86745200  0.93190766  0.01832218  1
  O2-  O574  1  0.84141388  0.91715378  0.35818699  1
  O2-  O575  1  0.83706016  0.90818217  0.68877453  1
