# generated using pymatgen
data_H2O
_symmetry_space_group_name_H-M   'P 1'
_cell_length_a   17.95915811
_cell_length_b   17.97118737
_cell_length_c   21.99317698
_cell_angle_alpha   90.00503506
_cell_angle_beta   89.97437500
_cell_angle_gamma   119.96698608
_symmetry_Int_Tables_number   1
_chemical_formula_structural   H2O
_chemical_formula_sum   'H384 O192'
_cell_volume   6149.29996713
_cell_formula_units_Z   192
loop_
 _symmetry_equiv_pos_site_id
 _symmetry_equiv_pos_as_xyz
  1  'x, y, z'
loop_
 _atom_type_symbol
 _atom_type_oxidation_number
  H+  1.0
  O2-  -2.0
loop_
 _atom_site_type_symbol
 _atom_site_label
 _atom_site_symmetry_multiplicity
 _atom_site_fract_x
 _atom_site_fract_y
 _atom_site_fract_z
 _atom_site_occupancy
  H+  H0  1  0.39012789  0.52964971  0.50229408  1
  H+  H1  1  0.69314609  0.34103133  -0.02603112  1
  H+  H2  1  0.52394544  0.87323654  0.66250607  1
  H+  H3  1  0.63330513  0.10806902  0.84995220  1
  H+  H4  1  0.34386968  0.49677428  0.80792018  1
  H+  H5  1  0.89342345  0.37930092  0.31696082  1
  H+  H6  1  0.21991585  0.37617699  0.82607048  1
  H+  H7  1  0.77780170  0.90201756  0.35502197  1
  H+  H8  1  0.11056891  0.12690318  -0.00433557  1
  H+  H9  1  0.90103717  0.26764268  0.83965129  1
  H+  H10  1  0.28884768  0.38257623  0.15561459  1
  H+  H11  1  0.26348195  0.87717145  0.83825204  1
  H+  H12  1  0.38044963  0.10656931  0.83800540  1
  H+  H13  1  0.42158147  0.85552548  0.29347351  1
  H+  H14  1  0.23529526  0.12393686  0.17332304  1
  H+  H15  1  0.85806670  0.97297242  0.84083010  1
  H+  H16  1  0.56070173  0.34331468  0.63706077  1
  H+  H17  1  0.58696776  0.65892607  0.72729137  1
  H+  H18  1  0.64614631  0.03739666  0.32555287  1
  H+  H19  1  0.37441712  0.29075075  0.32194978  1
  H+  H20  1  0.12547913  0.44391002  0.19389238  1
  H+  H21  1  0.23129138  0.26925713  0.21535185  1
  H+  H22  1  0.74237745  0.09263441  0.66583855  1
  H+  H23  1  0.36414311  0.64330046  0.65991874  1
  H+  H24  1  0.73283105  0.60924208  0.16366298  1
  H+  H25  1  0.26756458  0.15835606  0.34040349  1
  H+  H26  1  1.02313518  0.64463055  0.16978650  1
  H+  H27  1  0.62145824  0.26068852  0.83403566  1
  H+  H28  1  0.89189336  0.37895567  0.69647692  1
  H+  H29  1  0.37896902  0.38980212  0.15026062  1
  H+  H30  1  0.23087787  0.38023956  0.32427301  1
  H+  H31  1  0.35075684  -0.03273271  0.83391768  1
  H+  H32  1  0.84706081  0.47603050  0.33463010  1
  H+  H33  1  0.77434836  0.14015582  1.01265243  1
  H+  H34  1  0.09329618  0.72764901  0.83080305  1
  H+  H35  1  0.36223877  0.87583132  0.66716041  1
  H+  H36  1  0.00975928  0.90859861  0.35637323  1
  H+  H37  1  -0.08892086  0.08266355  -0.06554147  1
  H+  H38  1  0.39488360  0.39444266  0.82458392  1
  H+  H39  1  0.36164795  0.48700524  0.65545335  1
  H+  H40  1  0.88408286  0.62070278  0.17366671  1
  H+  H41  1  0.76221587  0.26928558  -0.06505331  1
  H+  H42  1  0.36879463  0.48087977  0.99931511  1
  H+  H43  1  0.12876753  0.12083635  0.82788840  1
  H+  H44  1  0.42691278  0.59289312  0.59165552  1
  H+  H45  1  0.09126397  0.85406576  0.68993529  1
  H+  H46  1  0.27842996  0.88870539  0.16650683  1
  H+  H47  1  0.63355571  0.24149938  0.48640551  1
  H+  H48  1  0.49135587  0.87815303  0.19199990  1
  H+  H49  1  0.66959129  0.09103854  0.94451182  1
  H+  H50  1  0.12625516  0.77615493  0.51059884  1
  H+  H51  1  0.95689025  0.61251215  0.32790747  1
  H+  H52  1  0.94249333  0.46707473  0.72975529  1
  H+  H53  1  0.99036361  0.62328838  1.00101954  1
  H+  H54  1  0.38325552  1.02095316  0.17769389  1
  H+  H55  1  0.84042543  0.71017253  0.14275683  1
  H+  H56  1  0.08713663  0.66713670  0.11237833  1
  H+  H57  1  0.48342171  0.36648006  0.16965377  1
  H+  H58  1  0.35316510  0.68111747  0.04578912  1
  H+  H59  1  0.52748961  0.88507843  -0.00684722  1
  H+  H60  1  0.62823470  0.88366336  0.49372616  1
  H+  H61  1  0.90281874  0.13232030  0.52314647  1
  H+  H62  1  0.11527954  0.38466541  0.67404896  1
  H+  H63  1  0.10457903  0.97446237  0.83287321  1
  H+  H64  1  0.62533351  0.26929089  0.31964590  1
  H+  H65  1  1.01644542  0.37275511  0.82844488  1
  H+  H66  1  0.01516421  0.14955983  0.67710499  1
  H+  H67  1  0.46787336  0.37481650  0.31725768  1
  H+  H68  1  0.34966219  0.72741434  0.85148119  1
  H+  H69  1  0.64784058  0.78035503  0.17038004  1
  H+  H70  1  0.85908111  0.72503790  0.83916178  1
  H+  H71  1  0.21193522  0.60995304  0.51421217  1
  H+  H72  1  0.02448292  0.13206581  -0.00185848  1
  H+  H73  1  0.72502056  0.83363801  0.65568915  1
  H+  H74  1  0.47296924  0.09358864  0.66328005  1
  H+  H75  1  0.88427835  0.56385285  0.63228509  1
  H+  H76  1  0.14394091  0.27229894  0.98508867  1
  H+  H77  1  0.23677616  0.87141678  0.00041384  1
  H+  H78  1  0.35779509  0.39479943  0.66638211  1
  H+  H79  1  0.86278802  0.88386347  0.84984985  1
  H+  H80  1  0.60127402  0.63498740  0.33060984  1
  H+  H81  1  0.34058841  -0.02906359  0.36069595  1
  H+  H82  1  0.13066615  0.03791556  0.64748596  1
  H+  H83  1  0.27220617  0.39020547  0.49203130  1
  H+  H84  1  0.17001447  0.83210367  0.60109417  1
  H+  H85  1  0.35593201  0.13184388  0.00916817  1
  H+  H86  1  0.15125626  0.64034470  0.19139176  1
  H+  H87  1  0.10162113  0.14255060  0.66754509  1
  H+  H88  1  0.14518523  0.87234334  0.18103639  1
  H+  H89  1  0.89687987  0.61710297  0.00159928  1
  H+  H90  1  0.87741059  0.90300584  0.16457352  1
  H+  H91  1  0.97611283  0.85225365  1.00996273  1
  H+  H92  1  0.64796902  0.28195960  0.16884830  1
  H+  H93  1  0.76201637  0.11984071  0.16143196  1
  H+  H94  1  0.89279071  0.53581594  0.18084579  1
  H+  H95  1  0.61888742  0.63926107  1.00471449  1
  H+  H96  1  0.61562722  0.19239060  0.67697591  1
  H+  H97  1  0.34347352  0.10203882  0.47779779  1
  H+  H98  1  0.62374207  0.33077487  0.54556290  1
  H+  H99  1  0.64256986  0.76019176  0.83843339  1
  H+  H100  1  -0.01212379  0.94929848  0.60301870  1
  H+  H101  1  0.60046722  0.93365442  0.40160382  1
  H+  H102  1  0.61543266  0.13908522  0.16347217  1
  H+  H103  1  0.61713735  0.63705760  0.82698052  1
  H+  H104  1  0.11315040  -0.03226051  1.02053839  1
  H+  H105  1  0.86177885  0.47616592  0.48782785  1
  H+  H106  1  0.91473101  0.80208080  0.19072851  1
  H+  H107  1  0.12894714  0.51687070  0.66525316  1
  H+  H108  1  0.86797590  0.22722533  1.01260769  1
  H+  H109  1  0.10803630  0.63271189  0.67290612  1
  H+  H110  1  1.02659684  0.64708994  0.66498319  1
  H+  H111  1  0.76291181  0.49088650  0.67062351  1
  H+  H112  1  0.39570275  0.61439566  0.98256010  1
  H+  H113  1  0.11392505  0.37865840  0.82540772  1
  H+  H114  1  0.38339662  0.78867104  0.34876499  1
  H+  H115  1  0.14087081  0.11527087  0.16673223  1
  H+  H116  1  -0.01118162  0.90159780  0.50010849  1
  H+  H117  1  0.84210863  0.92193484  0.10210425  1
  H+  H118  1  0.71363826  0.60833117  0.32710150  1
  H+  H119  1  0.39356928  0.38549122  0.52664315  1
  H+  H120  1  0.39726943  0.85757648  -0.01743923  1
  H+  H121  1  -0.02465356  0.33405284  0.14785977  1
  H+  H122  1  0.56909158  0.51832854  0.59184065  1
  H+  H123  1  0.53786790  0.88384646  0.49331331  1
  H+  H124  1  0.63901271  1.02688373  0.00048875  1
  H+  H125  1  0.59985389  0.38487986  0.33214402  1
  H+  H126  1  0.10568109  0.22973282  0.82291292  1
  H+  H127  1  0.61521489  0.71457910  0.66587918  1
  H+  H128  1  0.63846926  0.52632436  0.99261930  1
  H+  H129  1  0.52070204  0.40824937  0.49038089  1
  H+  H130  1  0.85453728  0.90412567  0.75210847  1
  H+  H131  1  0.02055059  0.38914336  0.33327073  1
  H+  H132  1  0.36957319  0.31868803  0.71360022  1
  H+  H133  1  0.72955878  0.30893883  0.64790606  1
  H+  H134  1  0.04995807  0.31002482  0.14293237  1
  H+  H135  1  0.25950191  0.87773767  0.44862958  1
  H+  H136  1  0.59639684  0.86244027  0.81909102  1
  H+  H137  1  0.13502348  0.27947274  0.65560270  1
  H+  H138  1  0.53757835  0.63703850  0.49053485  1
  H+  H139  1  0.77910013  0.63248662  0.00664869  1
  H+  H140  1  0.62071144  0.39307991  0.15746321  1
  H+  H141  1  0.39669466  0.51731844  0.17011738  1
  H+  H142  1  0.46573767  0.08022718  0.50378251  1
  H+  H143  1  0.41613356  0.92750871  0.52453338  1
  H+  H144  1  0.62828295  0.31233251  0.92130480  1
  H+  H145  1  0.58809678  0.91916383  0.09756094  1
  H+  H146  1  0.82940369  0.40504927  0.79040118  1
  H+  H147  1  0.65324931  0.88898425  0.32421881  1
  H+  H148  1  0.36422441  0.49545190  0.34034267  1
  H+  H149  1  0.48225218  0.37338110  1.00168121  1
  H+  H150  1  0.26719203  0.64633610  0.36411547  1
  H+  H151  1  0.96828839  0.11364808  0.83673067  1
  H+  H152  1  0.27268068  0.63812396  0.66550023  1
  H+  H153  1  0.62478899  0.89309452  0.15550585  1
  H+  H154  1  0.47132763  0.10996599  0.18066399  1
  H+  H155  1  0.85868846  0.63567772  0.83550264  1
  H+  H156  1  0.86556599  0.12593659  0.16155370  1
  H+  H157  1  0.56955923  0.41493220  0.77206674  1
  H+  H158  1  0.87471823  0.39147454  0.17190830  1
  H+  H159  1  0.90031674  0.10947063  0.62618761  1
  H+  H160  1  0.70519102  0.31304821  0.67446226  1
  H+  H161  1  0.73662952  0.86977508  0.17095994  1
  H+  H162  1  0.62664387  0.52055339  0.31806822  1
  H+  H163  1  0.35996115  -0.02846425  0.66699305  1
  H+  H164  1  0.36826887  0.88963288  0.17590978  1
  H+  H165  1  0.61811327  0.95598272  0.66876368  1
  H+  H166  1  0.42164582  0.83539287  0.91606523  1
  H+  H167  1  0.39793379  0.25052607  0.85479452  1
  H+  H168  1  0.86267746  0.27652925  0.18509992  1
  H+  H169  1  0.60113713  0.38266510  0.00506085  1
  H+  H170  1  0.59688052  0.21600772  0.00579120  1
  H+  H171  1  0.38888954  0.02668156  0.99507578  1
  H+  H172  1  0.38838010  0.37307143  0.99078851  1
  H+  H173  1  0.83721604  0.79096914  0.68268198  1
  H+  H174  1  0.14513119  0.52809429  0.99094381  1
  H+  H175  1  0.88621393  0.76253229  1.00710366  1
  H+  H176  1  0.71501948  0.09492555  0.84939209  1
  H+  H177  1  0.87668086  0.10692440  0.83702935  1
  H+  H178  1  0.46552067  0.85493810  0.82687566  1
  H+  H179  1  0.85968688  0.26200825  0.34270500  1
  H+  H180  1  0.86082715  0.87892963  0.44167207  1
  H+  H181  1  0.64532133  0.77701905  0.49666845  1
  H+  H182  1  0.03968402  0.90572171  0.17858463  1
  H+  H183  1  0.72998065  0.85831608  0.99092153  1
  H+  H184  1  0.62453624  0.64068277  0.15540204  1
  H+  H185  1  0.35955862  0.65296235  0.36507302  1
  H+  H186  1  0.63516142  0.52462124  0.84049649  1
  H+  H187  1  0.76189714  0.38364849  0.33204680  1
  H+  H188  1  0.51405073  0.12139850  0.82911493  1
  H+  H189  1  0.88138634  0.68414073  0.67189001  1
  H+  H190  1  0.23403721  0.61652521  -0.01081001  1
  H+  H191  1  0.89840036  0.26526784  0.51851271  1
  H+  H192  1  0.36384475  0.13591463  0.16469819  1
  H+  H193  1  0.63898001  0.76937207  0.99104773  1
  H+  H194  1  0.11527896  0.38604352  0.48911879  1
  H+  H195  1  0.23017692  0.10101231  0.99516856  1
  H+  H196  1  0.02062441  0.37325336  0.67808298  1
  H+  H197  1  0.84470849  0.62641695  0.35286576  1
  H+  H198  1  0.89354690  0.49488974  0.01244185  1
  H+  H199  1  0.09158001  0.62543367  0.51232148  1
  H+  H200  1  0.12738541  0.72875944  0.01966179  1
  H+  H201  1  0.78163332  0.24881602  0.38032833  1
  H+  H202  1  0.48840005  0.37420112  0.68830366  1
  H+  H203  1  0.36604618  0.22436470  0.67324273  1
  H+  H204  1  0.27858512  0.13522873  0.66803660  1
  H+  H205  1  0.76795795  0.47163691  0.64148189  1
  H+  H206  1  0.37693714  0.76911504  0.65594788  1
  H+  H207  1  0.41284874  0.78892383  0.21325878  1
  H+  H208  1  0.37316631  0.36010501  0.80090507  1
  H+  H209  1  0.52867986  0.90540307  0.35148523  1
  H+  H210  1  0.84147215  0.47025176  0.84278741  1
  H+  H211  1  0.10983140  0.47636614  0.34429927  1
  H+  H212  1  0.53035089  0.64455427  0.82382133  1
  H+  H213  1  0.16130773  0.55835847  0.19191837  1
  H+  H214  1  0.12233225  0.21774150  0.15345058  1
  H+  H215  1  0.14061620  0.76613863  0.65836343  1
  H+  H216  1  0.91393811  0.85407892  0.24728613  1
  H+  H217  1  0.13449619  0.12330220  0.32919477  1
  H+  H218  1  0.98353512  0.35672545  0.51501315  1
  H+  H219  1  0.12158035  0.38733104  1.00036384  1
  H+  H220  1  0.30133866  0.65387724  0.21999064  1
  H+  H221  1  0.38939551  0.10576223  0.65941781  1
  H+  H222  1  0.60895879  0.13720982  0.33100003  1
  H+  H223  1  0.10487497  0.72537377  0.32384690  1
  H+  H224  1  0.35383577  0.72715073  0.51575753  1
  H+  H225  1  -0.01143290  0.35879873  -0.00839635  1
  H+  H226  1  0.73836735  0.37234434  0.17172359  1
  H+  H227  1  0.61734765  0.88890546  -0.00182555  1
  H+  H228  1  0.12365124  0.63840500  1.01426082  1
  H+  H229  1  0.91945770  0.34243765  0.25651805  1
  H+  H230  1  0.47770874  0.63607729  0.32982414  1
  H+  H231  1  0.64759920  0.10779097  0.51486457  1
  H+  H232  1  0.64019148  0.84502207  0.65482223  1
  H+  H233  1  0.74124548  0.86079385  0.84417841  1
  H+  H234  1  0.39257440  0.62324231  0.84490335  1
  H+  H235  1  0.89760138  0.58849915  0.27063524  1
  H+  H236  1  0.37026709  0.22865432  0.15987194  1
  H+  H237  1  0.89842841  0.25445136  0.66675414  1
  H+  H238  1  0.14959629  0.04910402  0.50761651  1
  H+  H239  1  0.23231650  0.36248622  -0.01314691  1
  H+  H240  1  0.38015203  0.64074194  0.20108527  1
  H+  H241  1  0.90431246  0.36511164  -0.00481420  1
  H+  H242  1  0.14229473  0.78139203  0.17779418  1
  H+  H243  1  -0.01862298  -0.02495395  0.62721467  1
  H+  H244  1  0.14395322  0.45953494  0.16236481  1
  H+  H245  1  -0.00976652  0.11606720  0.33382431  1
  H+  H246  1  0.18634502  0.31984591  0.23702773  1
  H+  H247  1  0.96273182  0.61315812  0.84090698  1
  H+  H248  1  0.34413817  0.88625821  0.36752283  1
  H+  H249  1  -0.02938683  0.86189141  0.85623206  1
  H+  H250  1  0.12936435  0.86217301  0.85596306  1
  H+  H251  1  0.13686746  0.37047459  0.31851635  1
  H+  H252  1  0.60767102  0.38616488  0.82699882  1
  H+  H253  1  0.33899947  0.41989376  0.05902821  1
  H+  H254  1  0.37652787  0.73110794  -0.01675920  1
  H+  H255  1  0.60804966  0.13288703  0.01186896  1
  H+  H256  1  0.47843673  0.61502119  0.65522005  1
  H+  H257  1  0.64055955  0.02192419  0.16948455  1
  H+  H258  1  0.12974089  0.61464897  0.34075839  1
  H+  H259  1  0.64332886  1.01613328  0.51006755  1
  H+  H260  1  0.85106410  0.71248571  0.37780223  1
  H+  H261  1  0.86484129  0.88132698  0.01146446  1
  H+  H262  1  0.87279458  0.98277020  0.35789992  1
  H+  H263  1  0.48377910  0.61306234  -0.01027465  1
  H+  H264  1  0.46310769  0.09549904  0.33331010  1
  H+  H265  1  0.86017968  0.86817471  0.33645860  1
  H+  H266  1  0.06262943  0.64628404  0.27872458  1
  H+  H267  1  0.12135052  0.23789061  0.34199743  1
  H+  H268  1  0.12311532  0.90827030  0.49247353  1
  H+  H269  1  0.60745233  0.59020532  0.64293866  1
  H+  H270  1  0.14609434  0.86579302  1.01195705  1
  H+  H271  1  0.89207546  1.03136319  0.17069330  1
  H+  H272  1  0.78653153  0.31610344  0.92717496  1
  H+  H273  1  0.22429114  0.36995619  0.64975013  1
  H+  H274  1  0.13671458  0.26898170  0.49754483  1
  H+  H275  1  0.26461264  0.87603706  0.66666192  1
  H+  H276  1  0.39240189  0.61992615  0.50732386  1
  H+  H277  1  0.70968652  0.35386976  0.84200639  1
  H+  H278  1  0.58055961  0.16606929  0.10615879  1
  H+  H279  1  0.10238521  0.98981019  0.34511195  1
  H+  H280  1  0.77867539  0.12684355  0.49835338  1
  H+  H281  1  0.27015508  0.13662302  0.81827208  1
  H+  H282  1  0.13046900  -0.00891471  0.17105048  1
  H+  H283  1  0.97880046  0.12220565  0.16562785  1
  H+  H284  1  0.47375925  0.11532766  -0.00432846  1
  H+  H285  1  0.99507435  0.16528301  0.55002130  1
  H+  H286  1  0.79257043  0.19346315  0.79145282  1
  H+  H287  1  0.14980532  0.13958353  0.50099771  1
  H+  H288  1  0.40282770  0.64073816  0.28820082  1
  H+  H289  1  0.70076120  0.61432037  0.56074974  1
  H+  H290  1  0.04147837  0.13327791  0.48184774  1
  H+  H291  1  -0.00635989  0.82108935  0.70455521  1
  H+  H292  1  0.83573060  0.17600493  0.44026613  1
  H+  H293  1  0.07980696  0.40615988  0.76157798  1
  H+  H294  1  0.69667556  0.21266535  0.46274264  1
  H+  H295  1  0.67051887  0.82288602  0.90437331  1
  H+  H296  1  0.71054543  0.37315215  0.50099942  1
  H+  H297  1  0.17043569  0.10494174  0.59277698  1
  H+  H298  1  0.06861463  0.89678118  0.78471744  1
  H+  H299  1  0.66975602  0.58578322  0.93312110  1
  H+  H300  1  0.96805324  0.65154299  0.47209155  1
  H+  H301  1  0.33692666  0.42277307  0.43594869  1
  H+  H302  1  0.67354995  0.08458217  0.22966004  1
  H+  H303  1  0.84233417  0.15880535  0.75083973  1
  H+  H304  1  0.61994760  0.10701307  0.67854663  1
  H+  H305  1  0.58227133  0.66784078  0.39222924  1
  H+  H306  1  0.50790680  0.31933775  0.57725424  1
  H+  H307  1  0.08998767  0.91615096  0.08348954  1
  H+  H308  1  0.17751560  0.02956668  0.94400473  1
  H+  H309  1  0.36545850  0.40678226  0.33216279  1
  H+  H310  1  0.92534479  0.32055387  0.60981492  1
  H+  H311  1  0.60023601  0.39647301  0.47829747  1
  H+  H312  1  0.08839717  0.93855516  0.43562516  1
  H+  H313  1  0.25797692  0.59016725  0.10837748  1
  H+  H314  1  0.68021549  0.06870075  0.60781750  1
  H+  H315  1  0.28224336  0.13884243  0.49190332  1
  H+  H316  1  0.72651023  0.61404269  0.83969634  1
  H+  H317  1  0.44707625  0.96346437  0.04136307  1
  H+  H318  1  0.06625463  0.67502906  0.76833165  1
  H+  H319  1  0.09840539  0.17970954  0.40500956  1
  H+  H320  1  0.07371387  0.17108046  0.76325778  1
  H+  H321  1  0.72773443  0.13458672  0.32503909  1
  H+  H322  1  0.53574154  0.64002777  0.15830869  1
  H+  H323  1  0.33651745  0.16317464  0.76292237  1
  H+  H324  1  0.16701407  0.10482829  0.88778944  1
  H+  H325  1  0.16248395  0.33126293  0.55736144  1
  H+  H326  1  0.57625841  0.14200681  0.77137979  1
  H+  H327  1  0.43407021  0.56691152  0.23263938  1
  H+  H328  1  0.07855715  0.41197016  0.43167407  1
  H+  H329  1  0.92847352  0.08128044  0.27662889  1
  H+  H330  1  0.48656243  0.34295485  0.85533046  1
  H+  H331  1  0.81889856  0.42420546  0.42753501  1
  H+  H332  1  0.42493683  0.32177956  0.93722372  1
  H+  H333  1  0.41749747  0.34048855  0.22678902  1
  H+  H334  1  0.21460307  0.85349343  0.33906720  1
  H+  H335  1  0.33371142  0.18695350  0.39564154  1
  H+  H336  1  0.61902069  0.48225670  0.15753557  1
  H+  H337  1  0.85592513  0.69503540  0.74025349  1
  H+  H338  1  0.37713208  0.86393863  0.83494565  1
  H+  H339  1  0.67556367  0.83101059  0.55729820  1
  H+  H340  1  0.15113445  0.57149055  0.60381102  1
  H+  H341  1  0.40978901  0.35533139  0.59087917  1
  H+  H342  1  0.83004717  0.15895398  0.09866102  1
  H+  H343  1  0.68607584  0.85561929  0.26918563  1
  H+  H344  1  0.40388166  0.83978507  0.60039390  1
  H+  H345  1  0.08532507  0.16380390  0.09079065  1
  H+  H346  1  0.66080072  0.33236650  0.26139681  1
  H+  H347  1  0.21044858  0.60813109  0.89279542  1
  H+  H348  1  0.32767472  0.67736224  0.45316164  1
  H+  H349  1  0.67010479  0.58434836  0.22425920  1
  H+  H350  1  0.15925699  0.82547131  0.91121581  1
  H+  H351  1  0.16348071  0.09021999  0.27007322  1
  H+  H352  1  0.41534178  0.05033312  0.56547053  1
  H+  H353  1  0.17714533  0.59650189  0.28943244  1
  H+  H354  1  0.36261368  0.92241185  0.07889194  1
  H+  H355  1  0.30254182  0.62564285  0.11644807  1
  H+  H356  1  0.41091298  0.08227414  0.89980055  1
  H+  H357  1  0.32190173  0.15594014  0.06905135  1
  H+  H358  1  0.80708514  0.40785461  0.02302712  1
  H+  H359  1  0.58873209  0.16840736  0.39308258  1
  H+  H360  1  0.63364385  0.64985838  0.48800561  1
  H+  H361  1  0.94109131  0.62891781  0.58210680  1
  H+  H362  1  0.58462843  0.41991280  0.06809675  1
  H+  H363  1  0.07152552  0.39228637  0.05861140  1
  H+  H364  1  0.17189466  0.83368896  0.27258009  1
  H+  H365  1  0.42758578  0.58288494  0.89132370  1
  H+  H366  1  0.82983439  0.65122495  0.07197117  1
  H+  H367  1  0.88668781  0.11129104  -0.00331515  1
  H+  H368  1  0.40022612  0.06373719  0.27762203  1
  H+  H369  1  0.30658517  0.44160979  0.74664574  1
  H+  H370  1  0.57034937  0.88597480  0.75628688  1
  H+  H371  1  0.85881149  0.43461828  0.11275209  1
  H+  H372  1  0.77019602  0.61655255  0.45187002  1
  H+  H373  1  0.86353532  0.97047684  0.00580834  1
  H+  H374  1  0.93040562  0.32584674  0.90100366  1
  H+  H375  1  0.33233073  0.84352442  0.51524859  1
  H+  H376  1  0.82042419  0.77234485  0.31080345  1
  H+  H377  1  0.91529775  0.58544772  0.90544284  1
  H+  H378  1  0.58375588  0.45920105  0.67508520  1
  H+  H379  1  0.91311187  0.82825983  0.91676793  1
  H+  H380  1  0.56960042  0.41955490  0.38958649  1
  H+  H381  1  0.58936946  0.67062236  0.06397214  1
  H+  H382  1  0.12690936  0.51774467  0.50481318  1
  H+  H383  1  0.17131378  0.33722511  0.89179324  1
  O2-  O384  1  0.08108814  0.16034883  0.13622487  1
  O2-  O385  1  0.10066247  0.17651316  0.47264289  1
  O2-  O386  1  0.07238304  0.16836471  0.80898962  1
  O2-  O387  1  0.01604746  0.32640814  0.11779990  1
  O2-  O388  1  0.08369388  0.41684943  0.47690097  1
  O2-  O389  1  0.07958959  0.40650655  0.80911604  1
  O2-  O390  1  0.08568962  0.67245301  0.15769135  1
  O2-  O391  1  0.07107191  0.66858098  0.50928158  1
  O2-  O392  1  0.05553693  0.67031302  0.81249672  1
  O2-  O393  1  0.09710904  0.92824297  0.15929834  1
  O2-  O394  1  0.09447067  0.94103457  0.48199140  1
  O2-  O395  1  0.07397325  0.91098391  0.82960019  1
  O2-  O396  1  0.33517868  0.16709504  0.14739509  1
  O2-  O397  1  0.33756346  0.15265326  0.47188024  1
  O2-  O398  1  0.33216183  0.16144759  0.80841100  1
  O2-  O399  1  0.34615891  0.41937842  0.13653887  1
  O2-  O400  1  0.33489674  0.42371366  0.48104375  1
  O2-  O401  1  0.29230183  0.44862080  0.78924453  1
  O2-  O402  1  0.36394521  0.67735629  0.22528023  1
  O2-  O403  1  0.32658513  0.66919209  0.49876125  1
  O2-  O404  1  0.32716926  0.66543417  0.86383460  1
  O2-  O405  1  0.34027708  0.91658651  0.15276482  1
  O2-  O406  1  0.24182657  0.83622779  0.48387828  1
  O2-  O407  1  0.32247065  0.90637723  0.82090212  1
  O2-  O408  1  0.58406561  0.16924278  0.15144806  1
  O2-  O409  1  0.63547337  0.18828475  0.47104205  1
  O2-  O410  1  0.57593257  0.15131354  0.81589312  1
  O2-  O411  1  0.58737827  0.42045519  0.14245945  1
  O2-  O412  1  0.57141749  0.42807644  0.46412298  1
  O2-  O413  1  0.57719987  0.41865859  0.81780361  1
  O2-  O414  1  0.59484547  0.67295123  0.14139864  1
  O2-  O415  1  0.59554668  0.67039397  0.47194845  1
  O2-  O416  1  0.59294303  0.67366859  0.81135929  1
  O2-  O417  1  0.59270745  0.92314440  0.14265545  1
  O2-  O418  1  0.59761092  0.91780524  0.48018318  1
  O2-  O419  1  0.56308995  0.88627141  0.80116701  1
  O2-  O420  1  0.82599057  0.15071273  0.14531379  1
  O2-  O421  1  0.83885340  0.16108202  0.48307008  1
  O2-  O422  1  0.83015191  0.16925970  0.79734725  1
  O2-  O423  1  0.84777409  0.42897749  0.15701883  1
  O2-  O424  1  0.81356187  0.42299357  0.47270700  1
  O2-  O425  1  0.80838149  0.40835170  0.83152161  1
  O2-  O426  1  0.82356403  0.64988086  0.13934903  1
  O2-  O427  1  0.75222160  0.59006052  0.49297380  1
  O2-  O428  1  0.83082090  0.66826873  0.81840843  1
  O2-  O429  1  0.84424397  0.92902406  0.14732881  1
  O2-  O430  1  0.87760243  0.83919838  0.46062702  1
  O2-  O431  1  0.82920073  0.90993902  0.83077932  1
  O2-  O432  1  0.17412528  0.09283163  0.18861608  1
  O2-  O433  1  0.18058428  0.10942982  0.52261705  1
  O2-  O434  1  0.16199149  0.09313240  0.84392343  1
  O2-  O435  1  0.20305517  0.29935647  0.19886399  1
  O2-  O436  1  0.16544603  0.33224749  0.51217181  1
  O2-  O437  1  0.16274963  0.33374406  0.84677538  1
  O2-  O438  1  0.18461837  0.61515976  0.21065711  1
  O2-  O439  1  0.14959115  0.57604200  0.52409767  1
  O2-  O440  1  0.23484922  0.62096246  0.85095524  1
  O2-  O441  1  0.17746328  0.84198959  0.19193534  1
  O2-  O442  1  0.17108815  0.83838818  0.51591482  1
  O2-  O443  1  0.15771641  0.82806684  0.86634935  1
  O2-  O444  1  0.41011294  0.08113346  0.19326723  1
  O2-  O445  1  0.41592570  0.03225654  0.52288292  1
  O2-  O446  1  0.41109157  0.07742412  0.85463046  1
  O2-  O447  1  0.42099040  0.33628610  0.18093217  1
  O2-  O448  1  0.43676000  0.37976064  0.55135476  1
  O2-  O449  1  0.44127390  0.29672487  0.88141761  1
  O2-  O450  1  0.42906660  0.57610531  0.18921080  1
  O2-  O451  1  0.42638374  0.59107649  0.51562150  1
  O2-  O452  1  0.42736221  0.59385806  0.84686086  1
  O2-  O453  1  0.43477489  0.85204212  0.21267410  1
  O2-  O454  1  0.39342952  0.86459018  0.52696386  1
  O2-  O455  1  0.40868060  0.83216536  0.84838505  1
  O2-  O456  1  0.67385052  0.08374347  0.18367869  1
  O2-  O457  1  0.67505928  0.07498937  0.52919701  1
  O2-  O458  1  0.66379826  0.08300664  0.87255176  1
  O2-  O459  1  0.67562122  0.34262329  0.18298785  1
  O2-  O460  1  0.64727749  0.33270088  0.50367074  1
  O2-  O461  1  0.64480659  0.31976564  0.85104472  1
  O2-  O462  1  0.66909898  0.58271109  0.17886761  1
  O2-  O463  1  0.72915163  0.64854784  0.52337066  1
  O2-  O464  1  0.66539413  0.58586324  0.85495526  1
  O2-  O465  1  0.67527499  0.84146137  0.18385002  1
  O2-  O466  1  0.67339807  0.83688090  0.51260162  1
  O2-  O467  1  0.67430455  0.82302073  0.85694531  1
  O2-  O468  1  0.91917558  0.09352174  0.18299779  1
  O2-  O469  1  0.93603014  0.11778193  0.55242104  1
  O2-  O470  1  0.90878609  0.08083166  0.85453042  1
  O2-  O471  1  0.90944868  0.33523426  0.19119387  1
  O2-  O472  1  0.92827158  0.32307732  0.53717619  1
  O2-  O473  1  0.93516278  0.32679791  0.85561460  1
  O2-  O474  1  0.91917523  0.59712705  0.19458993  1
  O2-  O475  1  0.97689800  0.61927075  0.50454266  1
  O2-  O476  1  0.90375488  0.58099013  0.86099545  1
  O2-  O477  1  0.93340665  0.86102062  0.20274569  1
  O2-  O478  1  0.92924934  0.88796300  0.51230953  1
  O2-  O479  1  0.90966893  0.83188497  0.87137256  1
  O2-  O480  1  0.16157479  0.08847270  0.31504033  1
  O2-  O481  1  0.16473603  0.09949953  0.63972788  1
  O2-  O482  1  0.16996294  0.06566124  0.97371570  1
  O2-  O483  1  0.17269684  0.34476210  0.30538913  1
  O2-  O484  1  0.16165460  0.33834524  0.63795296  1
  O2-  O485  1  0.17245111  0.33270720  0.97048154  1
  O2-  O486  1  0.16800052  0.58945249  0.33420795  1
  O2-  O487  1  0.15607042  0.57663846  0.64903585  1
  O2-  O488  1  0.17262957  0.58874157  0.97675747  1
  O2-  O489  1  0.15976391  0.81899410  0.31624967  1
  O2-  O490  1  0.17172595  0.82929831  0.64600575  1
  O2-  O491  1  0.17524172  0.83577509  0.99326878  1
  O2-  O492  1  0.40209651  0.05846390  0.32216081  1
  O2-  O493  1  0.41383312  0.06839331  0.64666592  1
  O2-  O494  1  0.41355060  0.08574646  0.97903946  1
  O2-  O495  1  0.40798830  0.34960928  0.30087667  1
  O2-  O496  1  0.39747517  0.32742233  0.67419710  1
  O2-  O497  1  0.42151482  0.34112847  0.98331043  1
  O2-  O498  1  0.41284892  0.60894632  0.32099361  1
  O2-  O499  1  0.41979077  0.59018977  0.63708175  1
  O2-  O500  1  0.42453431  0.58058263  0.97211857  1
  O2-  O501  1  0.41588527  0.85100222  0.33846532  1
  O2-  O502  1  0.40825753  0.83427503  0.64546137  1
  O2-  O503  1  0.42716795  0.83067716  0.96280931  1
  O2-  O504  1  0.67208433  0.09474585  0.30456627  1
  O2-  O505  1  0.67976593  0.06441238  0.65314066  1
  O2-  O506  1  0.66917649  0.08962738  0.99084441  1
  O2-  O507  1  0.65659665  0.33087690  0.30679214  1
  O2-  O508  1  0.55039812  0.30983436  0.59859435  1
  O2-  O509  1  0.63132841  0.31430384  0.96816676  1
  O2-  O510  1  0.65935823  0.58191743  0.30361997  1
  O2-  O511  1  0.61982891  0.55110108  0.61745884  1
  O2-  O512  1  0.67055032  0.58711372  0.97873737  1
  O2-  O513  1  0.69259629  0.86772204  0.31316681  1
  O2-  O514  1  0.66665954  0.81173585  0.63832605  1
  O2-  O515  1  0.67072482  0.82917481  0.97273353  1
  O2-  O516  1  0.92916320  0.07747897  0.32098876  1
  O2-  O517  1  0.89779346  0.10766091  0.67178171  1
  O2-  O518  1  0.91512371  0.08029935  0.97967882  1
  O2-  O519  1  0.92305043  0.34719231  0.30517525  1
  O2-  O520  1  0.92473883  0.31740833  0.65614569  1
  O2-  O521  1  0.92598646  0.32746282  0.97962188  1
  O2-  O522  1  0.89463128  0.58354619  0.31636227  1
  O2-  O523  1  0.92825252  0.62388092  0.62628480  1
  O2-  O524  1  0.93009098  0.58942936  0.98574916  1
  O2-  O525  1  0.87457619  0.82656834  0.31270031  1
  O2-  O526  1  0.81668134  0.83362995  0.67988128  1
  O2-  O527  1  0.91651557  0.82514539  0.99386809  1
  O2-  O528  1  0.08611039  0.16144542  0.01139423  1
  O2-  O529  1  0.09339845  0.17812563  0.35718515  1
  O2-  O530  1  0.07720597  0.17623478  0.68688483  1
  O2-  O531  1  0.09073340  0.41633060  0.01651248  1
  O2-  O532  1  0.08001144  0.41328520  0.35133796  1
  O2-  O533  1  0.08210851  0.41019274  0.69374175  1
  O2-  O534  1  0.09449450  0.66794740  0.03331188  1
  O2-  O535  1  0.06621738  0.65809976  0.32225999  1
  O2-  O536  1  0.08370834  0.67043928  0.68464072  1
  O2-  O537  1  0.08699823  0.90901392  0.03788547  1
  O2-  O538  1  0.07042622  0.93245055  0.36565145  1
  O2-  O539  1  0.05250274  0.86921339  0.71136121  1
  O2-  O540  1  0.31634526  0.15157928  0.02390778  1
  O2-  O541  1  0.32589913  0.20262642  0.35375336  1
  O2-  O542  1  0.33849762  0.16019186  0.68298671  1
  O2-  O543  1  0.33796741  0.41903654  0.01336763  1
  O2-  O544  1  0.33440389  0.43402722  0.35206629  1
  O2-  O545  1  0.32521445  0.42675088  0.67121108  1
  O2-  O546  1  0.34649365  0.67145496  0.00202641  1
  O2-  O547  1  0.32798251  0.68221613  0.37917950  1
  O2-  O548  1  0.33490590  0.67492391  0.67384969  1
  O2-  O549  1  0.38484983  0.93379765  0.03556804  1
  O2-  O550  1  0.30784574  0.91142189  0.37910045  1
  O2-  O551  1  0.32864166  0.90834326  0.68014683  1
  O2-  O552  1  0.57267870  0.15893747  0.02607160  1
  O2-  O553  1  0.57770402  0.16509401  0.34874822  1
  O2-  O554  1  0.58348087  0.13287593  0.69102481  1
  O2-  O555  1  0.57827242  0.41874528  0.02207519  1
  O2-  O556  1  0.57118793  0.41806144  0.34359531  1
  O2-  O557  1  0.55586792  0.40411447  0.69725587  1
  O2-  O558  1  0.58800033  0.67016344  0.01814993  1
  O2-  O559  1  0.57184770  0.66452186  0.34769845  1
  O2-  O560  1  0.58140472  0.65404838  0.68250958  1
  O2-  O561  1  0.58502583  0.91638628  0.01380826  1
  O2-  O562  1  0.59235932  0.93745569  0.35703930  1
  O2-  O563  1  0.58280786  0.89318478  0.67809571  1
  O2-  O564  1  0.83496692  0.16656268  0.02852653  1
  O2-  O565  1  0.80989978  0.21670686  0.36836411  1
  O2-  O566  1  0.84754374  0.15089167  0.68570089  1
  O2-  O567  1  0.86858414  0.43407781  0.02947301  1
  O2-  O568  1  0.82230774  0.41494261  0.34792253  1
  O2-  O569  1  0.88425836  0.42266234  0.71954377  1
  O2-  O570  1  0.83788080  0.66000697  0.02429732  1
  O2-  O571  1  0.81127113  0.65088211  0.37355843  1
  O2-  O572  1  0.87485725  0.72345684  0.69972455  1
  O2-  O573  1  0.83202471  0.91109143  0.02282728  1
  O2-  O574  1  0.83633206  0.92274612  0.37381968  1
  O2-  O575  1  0.88256584  0.90840338  0.71240028  1
