# generated using pymatgen
data_H2O
_symmetry_space_group_name_H-M   'P 1'
_cell_length_a   17.97814943
_cell_length_b   17.95940771
_cell_length_c   21.98276035
_cell_angle_alpha   89.99524837
_cell_angle_beta   90.00377454
_cell_angle_gamma   119.99656675
_symmetry_Int_Tables_number   1
_chemical_formula_structural   H2O
_chemical_formula_sum   'H384 O192'
_cell_volume   6147.02352193
_cell_formula_units_Z   192
loop_
 _symmetry_equiv_pos_site_id
 _symmetry_equiv_pos_as_xyz
  1  'x, y, z'
loop_
 _atom_type_symbol
 _atom_type_oxidation_number
  H+  1.0
  O2-  -2.0
loop_
 _atom_site_type_symbol
 _atom_site_label
 _atom_site_symmetry_multiplicity
 _atom_site_fract_x
 _atom_site_fract_y
 _atom_site_fract_z
 _atom_site_occupancy
  H+  H0  1  0.78047834  0.64065468  0.82183113  1
  H+  H1  1  0.63239661  0.32595798  0.19372590  1
  H+  H2  1  0.61451545  0.67115907  0.15758616  1
  H+  H3  1  0.48766981  0.37589056  0.33114192  1
  H+  H4  1  0.16700029  0.59589835  0.92762999  1
  H+  H5  1  0.13597813  0.78877626  0.16786000  1
  H+  H6  1  0.12619007  0.35876437  0.17068231  1
  H+  H7  1  0.98903149  0.87098422  0.99670323  1
  H+  H8  1  0.10975699  0.87344938  0.33927643  1
  H+  H9  1  0.77390179  0.12664846  0.82394896  1
  H+  H10  1  0.56303266  0.43113080  0.74450164  1
  H+  H11  1  0.64039826  0.53220122  0.82533602  1
  H+  H12  1  0.64870548  0.13792478  0.32475806  1
  H+  H13  1  0.70153119  0.31910962  0.34328462  1
  H+  H14  1  0.75121101  0.76996207  0.48683757  1
  H+  H15  1  0.86146188  0.14275575  0.34542399  1
  H+  H16  1  0.77372946  0.63738046  0.35208247  1
  H+  H17  1  0.39351219  0.77759831  1.00319525  1
  H+  H18  1  0.36153044  0.51757307  0.18344454  1
  H+  H19  1  0.38167218  0.37661942  0.17689540  1
  H+  H20  1  0.13092946  0.10746705  0.99446932  1
  H+  H21  1  0.83783308  0.45910283  0.34657822  1
  H+  H22  1  0.88897368  0.35272605  0.83953729  1
  H+  H23  1  0.14250516  0.35585363  0.85648306  1
  H+  H24  1  0.64506841  0.63308266  0.66489867  1
  H+  H25  1  0.53143552  0.88890400  0.01227987  1
  H+  H26  1  0.37218816  0.39198184  0.34654621  1
  H+  H27  1  0.89367515  0.78765856  0.18199032  1
  H+  H28  1  0.88754128  0.36093227  0.17406348  1
  H+  H29  1  0.22652514  0.10725712  0.67560986  1
  H+  H30  1  0.87154375  0.73010102  0.49872758  1
  H+  H31  1  0.64430929  0.62180916  0.83393545  1
  H+  H32  1  0.15177277  0.26733563  0.99483307  1
  H+  H33  1  0.22357994  0.86893734  0.66796928  1
  H+  H34  1  0.09428468  0.22541676  0.15288807  1
  H+  H35  1  0.91161534  0.88217675  0.50437240  1
  H+  H36  1  0.88145363  0.46204075  0.50016225  1
  H+  H37  1  0.88910212  0.60024387  0.50542593  1
  H+  H38  1  0.16474394  0.82293251  0.89448457  1
  H+  H39  1  0.78039926  0.65338816  0.00955697  1
  H+  H40  1  0.42301121  0.34032391  0.89620769  1
  H+  H41  1  0.98383561  0.11692938  0.66175461  1
  H+  H42  1  0.87760348  0.02637859  0.34929602  1
  H+  H43  1  0.14961268  0.01739661  0.82242262  1
  H+  H44  1  0.64362763  0.04472626  0.33285107  1
  H+  H45  1  -0.00998219  0.36130676  0.31432685  1
  H+  H46  1  0.88831488  0.60796135  0.83629290  1
  H+  H47  1  0.42083646  0.65323624  0.16718453  1
  H+  H48  1  0.23170502  0.36159816  0.83637161  1
  H+  H49  1  0.33125923  0.93077992  0.40382312  1
  H+  H50  1  0.40932677  0.02276983  0.17583018  1
  H+  H51  1  0.92316870  0.04415594  0.50237799  1
  H+  H52  1  0.80632118  0.11838026  0.16885381  1
  H+  H53  1  0.06407680  0.68723504  0.08728134  1
  H+  H54  1  0.90279737  0.87668338  0.99811004  1
  H+  H55  1  0.88690490  0.51630390  -0.00678837  1
  H+  H56  1  0.69660766  0.09165476  0.23861751  1
  H+  H57  1  0.60892542  0.44877881  0.16600971  1
  H+  H58  1  0.65718239  0.35087962  0.85191772  1
  H+  H59  1  0.64040390  0.86149532  0.83742416  1
  H+  H60  1  0.11178193  0.87155649  0.82578376  1
  H+  H61  1  0.15495505  0.78127556  0.32552784  1
  H+  H62  1  0.12743604  0.39980521  0.33665494  1
  H+  H63  1  0.13948559  0.95046224  0.08695405  1
  H+  H64  1  0.60246463  0.71913191  0.50378843  1
  H+  H65  1  0.95875282  0.11865521  0.35939625  1
  H+  H66  1  0.65910350  0.10611766  -0.00449700  1
  H+  H67  1  0.45825632  0.75616996  0.16134381  1
  H+  H68  1  0.50943676  0.09535747  0.18195411  1
  H+  H69  1  0.69312274  0.16699839  0.45129445  1
  H+  H70  1  -0.02025151  0.86628190  0.66256329  1
  H+  H71  1  0.63128607  0.35255497  0.51160742  1
  H+  H72  1  0.88018594  -0.01669099  1.01000276  1
  H+  H73  1  0.84044653  0.67028155  0.40673480  1
  H+  H74  1  0.88547386  0.60801809  0.33438427  1
  H+  H75  1  0.36078584  0.24204401  0.15624510  1
  H+  H76  1  0.63162083  0.60765169  0.51442025  1
  H+  H77  1  0.89623288  0.27228570  0.31704156  1
  H+  H78  1  0.02836884  0.63881935  0.66958193  1
  H+  H79  1  0.77418281  0.88009768  0.82370441  1
  H+  H80  1  0.07903581  0.13020734  0.37819478  1
  H+  H81  1  0.52750271  0.64004647  0.82532566  1
  H+  H82  1  0.36954083  0.25474958  0.49319920  1
  H+  H83  1  0.27933933  0.90865435  0.33523426  1
  H+  H84  1  0.60926751  0.36798059  0.35327698  1
  H+  H85  1  0.78563494  0.12824747  0.00663120  1
  H+  H86  1  1.03194844  0.88554233  0.49603494  1
  H+  H87  1  0.11473134  0.13360174  0.67638825  1
  H+  H88  1  0.11814967  0.63437062  0.49463650  1
  H+  H89  1  0.52908413  0.13497753  0.67212740  1
  H+  H90  1  0.11873358  0.48385162  0.33619893  1
  H+  H91  1  0.84156710  0.68965240  0.10439567  1
  H+  H92  1  0.88872073  0.51792281  0.83852283  1
  H+  H93  1  0.39584294  0.57415755  0.24567659  1
  H+  H94  1  0.27371095  0.63720247  0.67028266  1
  H+  H95  1  0.71368584  0.34298806  0.49723526  1
  H+  H96  1  0.07631165  0.41498180  0.09309579  1
  H+  H97  1  0.75282356  0.76610736  0.45303487  1
  H+  H98  1  0.66180354  0.29579600  0.25163154  1
  H+  H99  1  0.64580547  0.12873686  0.16463373  1
  H+  H100  1  0.39216500  0.30834364  0.55816109  1
  H+  H101  1  0.04115332  0.16121465  0.47498392  1
  H+  H102  1  0.57192622  -0.04772660  0.50737646  1
  H+  H103  1  0.66699098  0.82716856  0.89616596  1
  H+  H104  1  0.59681195  0.27011675  0.97799131  1
  H+  H105  1  0.35571120  0.01774700  0.50393685  1
  H+  H106  1  0.54853020  0.91774376  0.16503539  1
  H+  H107  1  0.15140930  0.10738344  0.82151783  1
  H+  H108  1  0.09716300  0.48697658  1.00179425  1
  H+  H109  1  0.65359000  0.52476112  0.98203210  1
  H+  H110  1  0.22999318  1.01048657  0.11913214  1
  H+  H111  1  0.64789174  0.21923697  1.01327458  1
  H+  H112  1  0.26321493  0.38363765  0.15706333  1
  H+  H113  1  0.60350529  0.87590265  0.67746598  1
  H+  H114  1  0.36466322  0.74592511  0.49039877  1
  H+  H115  1  0.28036312  0.89104228  0.14952600  1
  H+  H116  1  0.34493919  0.35970116  0.49520375  1
  H+  H117  1  0.65171187  0.11290390  0.83878610  1
  H+  H118  1  0.39732270  0.12539062  0.86545147  1
  H+  H119  1  0.52391167  0.88296320  0.83599868  1
  H+  H120  1  0.28857794  0.13290741  0.82417001  1
  H+  H121  1  0.80542184  0.16650754  0.49031345  1
  H+  H122  1  0.48515150  0.12104956  0.51013487  1
  H+  H123  1  0.79370838  0.66042350  0.16884559  1
  H+  H124  1  0.13950011  0.26131616  0.33396257  1
  H+  H125  1  0.35510583  0.10828617  0.49612130  1
  H+  H126  1  0.38813409  0.76774058  0.84561683  1
  H+  H127  1  0.36489657  0.72352577  0.67190436  1
  H+  H128  1  0.60016659  0.54375502  0.11497251  1
  H+  H129  1  0.02683521  0.63039633  0.49459063  1
  H+  H130  1  0.89500872  0.10589121  0.83063091  1
  H+  H131  1  0.88948615  1.01411101  0.83324665  1
  H+  H132  1  0.77456179  0.89127984  0.66873963  1
  H+  H133  1  0.48356159  0.93928347  0.59684836  1
  H+  H134  1  0.97895563  0.85505313  0.33118262  1
  H+  H135  1  0.08346752  0.03578018  0.37319435  1
  H+  H136  1  0.22229997  0.11246084  0.99125661  1
  H+  H137  1  0.14197745  0.37517962  0.51066151  1
  H+  H138  1  0.92713683  0.37349105  0.59436216  1
  H+  H139  1  0.22648913  0.62553199  -0.01399713  1
  H+  H140  1  0.27046834  0.86809656  0.83097607  1
  H+  H141  1  0.58384676  0.19670655  0.51030738  1
  H+  H142  1  0.50758712  0.40579853  0.15637105  1
  H+  H143  1  0.38517747  0.52585714  0.34097484  1
  H+  H144  1  0.63288039  0.20952832  0.16814160  1
  H+  H145  1  0.55963768  0.06674319  0.54139731  1
  H+  H146  1  0.11766057  1.05271128  0.39789931  1
  H+  H147  1  0.63767477  1.01271552  0.67894152  1
  H+  H148  1  0.62321800  0.75638570  -0.01881562  1
  H+  H149  1  0.37100421  0.26239217  0.66028960  1
  H+  H150  1  0.88180736  0.30727363  0.49373898  1
  H+  H151  1  0.36277027  0.47280142  0.67384549  1
  H+  H152  1  0.14521134  0.01304189  0.51911902  1
  H+  H153  1  0.02276817  0.37447724  0.86607127  1
  H+  H154  1  0.38321758  0.61445914  0.33623195  1
  H+  H155  1  0.11302274  0.97132379  0.68023697  1
  H+  H156  1  0.22379989  0.36158014  0.66249524  1
  H+  H157  1  0.38791620  0.61311500  0.83397281  1
  H+  H158  1  0.89182086  0.53160113  0.66348024  1
  H+  H159  1  0.49255054  0.38122337  0.65802315  1
  H+  H160  1  0.03204267  0.13127145  0.82723596  1
  H+  H161  1  0.11774060  0.47922984  0.67011690  1
  H+  H162  1  0.13708234  0.76457502  0.50900785  1
  H+  H163  1  0.96124900  0.12536109  0.16256244  1
  H+  H164  1  0.12059776  0.22211910  0.82731237  1
  H+  H165  1  0.71439204  0.21304943  0.46149998  1
  H+  H166  1  0.89145406  0.86104654  0.84127124  1
  H+  H167  1  0.14525836  0.61783348  0.65760121  1
  H+  H168  1  0.78946165  0.39517700  0.67570913  1
  H+  H169  1  0.31746943  0.39818633  0.43602319  1
  H+  H170  1  0.86515218  0.97996861  0.66808135  1
  H+  H171  1  0.15068007  0.04660754  0.16334893  1
  H+  H172  1  0.11896333  0.88142254  0.49550720  1
  H+  H173  1  0.23567640  0.09616952  0.53016379  1
  H+  H174  1  0.13044553  0.60226009  0.83586405  1
  H+  H175  1  0.87112139  0.72773725  0.82721097  1
  H+  H176  1  0.61759900  0.73113811  0.82583405  1
  H+  H177  1  0.27043213  0.16371170  0.31173033  1
  H+  H178  1  0.88232847  0.40876473  0.67429555  1
  H+  H179  1  0.40834274  0.89471803  0.16898070  1
  H+  H180  1  0.62388965  0.46464667  0.35497222  1
  H+  H181  1  0.38785964  0.85629287  0.84621848  1
  H+  H182  1  0.83125091  0.92645082  0.50954162  1
  H+  H183  1  0.63213863  0.51846331  0.51906920  1
  H+  H184  1  0.47117251  0.59744073  -0.01872954  1
  H+  H185  1  0.26340649  0.87553642  0.48678815  1
  H+  H186  1  0.27082747  0.63238113  0.82795312  1
  H+  H187  1  1.02737343  0.64082500  0.34228147  1
  H+  H188  1  0.60366700  0.39756435  0.79166640  1
  H+  H189  1  0.85062372  0.15337880  0.06357540  1
  H+  H190  1  0.01474167  0.72720203  0.11976876  1
  H+  H191  1  0.13777252  0.52699275  0.50705084  1
  H+  H192  1  0.13575254  0.27117079  0.65987532  1
  H+  H193  1  0.38507988  0.15660564  0.33320322  1
  H+  H194  1  0.32888952  0.17632449  0.05964930  1
  H+  H195  1  0.49880544  0.13641506  0.33202788  1
  H+  H196  1  0.11928273  0.60231356  0.17655465  1
  H+  H197  1  0.87086920  0.98689314  0.16686407  1
  H+  H198  1  1.00824697  0.39550933  1.00219431  1
  H+  H199  1  0.36492634  0.89062736  -0.00023903  1
  H+  H200  1  0.39981362  0.36939668  0.99230546  1
  H+  H201  1  0.78176126  0.64119505  0.50089729  1
  H+  H202  1  0.51327547  0.37390453  0.50263017  1
  H+  H203  1  0.07947842  0.89874612  0.40074027  1
  H+  H204  1  0.88405275  0.76997936  0.33083238  1
  H+  H205  1  0.52188416  0.64103046  0.35039632  1
  H+  H206  1  0.91963393  0.57638643  0.56616816  1
  H+  H207  1  0.38590963  1.03613826  0.66502771  1
  H+  H208  1  0.40553411  0.08338896  0.59975955  1
  H+  H209  1  0.40129470  0.28745360  0.32649408  1
  H+  H210  1  0.02512298  0.87769633  0.82931972  1
  H+  H211  1  0.68244604  0.62418308  0.08602834  1
  H+  H212  1  0.38797708  0.60545343  -0.00763314  1
  H+  H213  1  0.22727838  0.86270217  0.98343228  1
  H+  H214  1  0.36036176  0.22526083  0.99716975  1
  H+  H215  1  0.48883650  0.36912358  -0.01433678  1
  H+  H216  1  0.98535783  0.38459635  0.65338466  1
  H+  H217  1  0.63110369  0.84860191  -0.01079107  1
  H+  H218  1  0.67010820  1.02903321  0.17955702  1
  H+  H219  1  0.23022990  0.61457331  0.50027198  1
  H+  H220  1  0.74941453  0.28063409  0.62081056  1
  H+  H221  1  0.63713846  0.77300137  0.66332062  1
  H+  H222  1  0.60833613  0.85564214  0.50885862  1
  H+  H223  1  0.26698661  0.16297320  0.15031086  1
  H+  H224  1  0.35303561  0.95509167  0.85074091  1
  H+  H225  1  0.52828480  0.63430948  0.67758838  1
  H+  H226  1  0.66203042  0.88884221  0.19000344  1
  H+  H227  1  0.89508457  0.11371650  0.98522880  1
  H+  H228  1  0.63118840  0.61262194  0.34857444  1
  H+  H229  1  0.62455153  0.38548342  -0.00094952  1
  H+  H230  1  0.63712702  0.22339700  0.83479380  1
  H+  H231  1  0.27781310  0.37501428  0.34014880  1
  H+  H232  1  0.36298687  0.72689285  0.33555696  1
  H+  H233  1  0.48668121  0.86509408  0.32942397  1
  H+  H234  1  0.96602919  0.60944732  0.17325846  1
  H+  H235  1  0.88206110  0.26893335  0.99815627  1
  H+  H236  1  0.86808502  0.12758216  0.67577164  1
  H+  H237  1  0.85809344  0.46722057  0.16774846  1
  H+  H238  1  0.24803774  0.37162213  0.50298313  1
  H+  H239  1  0.02447362  0.13626470  -0.00294843  1
  H+  H240  1  0.13449916  0.77584832  0.98696886  1
  H+  H241  1  0.13463801  0.75799955  0.83660584  1
  H+  H242  1  0.87949145  0.60669731  0.17849652  1
  H+  H243  1  0.39246443  0.63435952  0.52750877  1
  H+  H244  1  0.86798206  0.35132169  -0.00360071  1
  H+  H245  1  0.26246520  0.62133186  0.17968640  1
  H+  H246  1  0.62597185  0.90476953  0.34927696  1
  H+  H247  1  0.37338332  0.22681283  0.83108866  1
  H+  H248  1  0.10819014  0.38696864  0.67106956  1
  H+  H249  1  0.37125165  0.14270548  0.67620690  1
  H+  H250  1  0.86427906  0.21968403  0.82391457  1
  H+  H251  1  0.88898544  0.87976687  0.18732831  1
  H+  H252  1  0.75704691  0.37333785  1.01167297  1
  H+  H253  1  0.47479179  0.36876386  0.83253367  1
  H+  H254  1  0.35074623  0.87305571  0.47861606  1
  H+  H255  1  0.08428007  0.40639144  0.92324560  1
  H+  H256  1  0.61347427  0.73000449  0.35282932  1
  H+  H257  1  0.52109519  0.88904179  0.67096815  1
  H+  H258  1  0.02145590  0.39987396  0.48584148  1
  H+  H259  1  0.11188125  0.64633518  1.00583362  1
  H+  H260  1  0.36494926  0.38772034  0.82521478  1
  H+  H261  1  0.78537207  0.38058811  0.83477622  1
  H+  H262  1  0.47338921  0.62089734  0.52050278  1
  H+  H263  1  0.76963384  0.11891095  0.68028101  1
  H+  H264  1  0.13504627  0.61427102  0.33064702  1
  H+  H265  1  0.74723252  0.63934043  0.66319259  1
  H+  H266  1  0.91535618  0.13154197  0.50165599  1
  H+  H267  1  0.11773792  0.72719069  0.67307995  1
  H+  H268  1  0.49731140  0.86340299  0.48398131  1
  H+  H269  1  0.86818509  0.89537157  0.35405489  1
  H+  H270  1  0.65859754  0.79922856  0.19916903  1
  H+  H271  1  0.39957725  0.89732996  0.63845438  1
  H+  H272  1  0.01975339  0.62531572  0.82335851  1
  H+  H273  1  0.59119718  0.40816594  0.65312412  1
  H+  H274  1  0.09034401  0.46586545  0.15699715  1
  H+  H275  1  0.65986414  0.58083811  0.29114482  1
  H+  H276  1  0.39347139  0.61110200  0.67522342  1
  H+  H277  1  0.97739468  0.35765825  0.16499854  1
  H+  H278  1  0.60984825  0.62201595  0.97953225  1
  H+  H279  1  0.16901738  0.88916242  0.16927465  1
  H+  H280  1  0.24723325  0.58477796  0.15752619  1
  H+  H281  1  0.13389598  0.51613661  0.85595320  1
  H+  H282  1  0.09024404  0.13512543  0.15433447  1
  H+  H283  1  0.36540584  0.46980399  1.00717974  1
  H+  H284  1  0.77494870  0.37351048  0.17416873  1
  H+  H285  1  0.36510823  0.34912839  0.65432183  1
  H+  H286  1  0.37683926  0.00711901  0.34330569  1
  H+  H287  1  0.47055882  0.96340882  0.21163015  1
  H+  H288  1  0.17114811  0.34420379  0.57284177  1
  H+  H289  1  0.77843600  0.15554934  0.34140175  1
  H+  H290  1  0.68374472  0.58567636  0.92270177  1
  H+  H291  1  0.61584709  0.15770031  0.07114837  1
  H+  H292  1  0.07917539  0.90351403  0.73540272  1
  H+  H293  1  0.85563879  0.93143301  0.41966144  1
  H+  H294  1  0.12324783  -0.01186065  1.00415122  1
  H+  H295  1  0.92030158  0.07727543  0.92612624  1
  H+  H296  1  0.16926895  0.07367543  0.61502798  1
  H+  H297  1  0.61273667  0.04417258  0.59132558  1
  H+  H298  1  0.33099945  0.41153604  0.73172091  1
  H+  H299  1  0.32139353  0.66760349  0.39566516  1
  H+  H300  1  0.67636661  0.32237930  0.91851622  1
  H+  H301  1  0.42263912  0.35237559  0.23441920  1
  H+  H302  1  0.91783565  0.57417512  0.93322799  1
  H+  H303  1  0.33050444  0.66679662  0.76871594  1
  H+  H304  1  0.68949676  0.31066954  0.59067370  1
  H+  H305  1  0.85472465  0.92755297  0.07109289  1
  H+  H306  1  0.62609939  0.21359235  0.66954197  1
  H+  H307  1  0.40221229  0.68860788  0.07671963  1
  H+  H308  1  0.60283009  0.92566757  0.10447237  1
  H+  H309  1  0.32508796  0.60365331  0.46432445  1
  H+  H310  1  0.28282723  0.37562990  0.00890363  1
  H+  H311  1  0.85326158  0.19767049  0.42753494  1
  H+  H312  1  0.17176008  0.82851122  0.56727075  1
  H+  H313  1  0.78568539  0.89798470  0.17719036  1
  H+  H314  1  0.13234812  0.85937598  0.66103428  1
  H+  H315  1  0.68525817  0.07645102  0.93348731  1
  H+  H316  1  0.43063581  0.84682130  0.27056721  1
  H+  H317  1  0.65662861  0.83174387  0.60399346  1
  H+  H318  1  0.93083029  0.09659172  0.59961019  1
  H+  H319  1  0.12421154  0.89691781  0.00130296  1
  H+  H320  1  0.17644039  0.58979239  0.59753899  1
  H+  H321  1  0.34678035  0.17933152  0.39454364  1
  H+  H322  1  0.08785617  0.67092089  0.40077210  1
  H+  H323  1  0.15729218  0.31931925  0.22582224  1
  H+  H324  1  0.57974099  0.40732424  0.44837403  1
  H+  H325  1  0.90014826  0.31440671  0.90202708  1
  H+  H326  1  0.39718597  0.81727743  0.54541196  1
  H+  H327  1  0.18069462  0.83988916  0.26484727  1
  H+  H328  1  0.41404094  0.57950510  0.89278228  1
  H+  H329  1  0.89084040  0.86850530  0.65925784  1
  H+  H330  1  0.42236968  0.58889941  0.61319743  1
  H+  H331  1  0.59107282  0.66897976  0.73623679  1
  H+  H332  1  0.60022975  0.16696289  0.77412274  1
  H+  H333  1  0.83448693  0.91073597  0.76434825  1
  H+  H334  1  0.07251296  0.16373785  0.06098624  1
  H+  H335  1  0.20006467  0.24571323  0.29329942  1
  H+  H336  1  0.83491843  0.15575674  0.74534375  1
  H+  H337  1  0.12454351  0.56189351  0.23875569  1
  H+  H338  1  0.69298772  0.59189222  0.21104553  1
  H+  H339  1  0.68200631  0.84990634  0.28852236  1
  H+  H340  1  0.84056293  0.41517665  0.77181846  1
  H+  H341  1  0.62565311  0.97110272  0.00733741  1
  H+  H342  1  0.89302290  0.62118079  0.65787233  1
  H+  H343  1  0.92326648  0.83599038  0.90248362  1
  H+  H344  1  0.59197913  0.42089070  0.05553120  1
  H+  H345  1  0.01713306  0.63471172  0.00072512  1
  H+  H346  1  0.28309997  0.98487981  0.72743309  1
  H+  H347  1  0.26588586  0.14593372  0.45713004  1
  H+  H348  1  0.41941956  0.82951768  0.94019170  1
  H+  H349  1  0.82626948  0.39984582  0.40291854  1
  H+  H350  1  0.69668943  0.85746065  0.50306406  1
  H+  H351  1  0.36647510  0.47822146  0.82235913  1
  H+  H352  1  0.92710157  0.33000318  0.23901289  1
  H+  H353  1  0.22473397  0.61528319  0.32358046  1
  H+  H354  1  0.86539311  0.74748860  0.01499373  1
  H+  H355  1  0.19043537  0.32362205  0.93539463  1
  H+  H356  1  0.70265890  0.55525665  0.21308675  1
  H+  H357  1  0.87031766  0.73802046  0.67218223  1
  H+  H358  1  0.44114819  0.08787899  0.27390141  1
  H+  H359  1  0.32692040  0.93567280  0.75400391  1
  H+  H360  1  0.08140386  0.65658814  0.76392007  1
  H+  H361  1  0.63932617  0.10378282  0.67735408  1
  H+  H362  1  0.16987676  0.10354687  0.31710441  1
  H+  H363  1  0.08546326  0.41914243  0.43087283  1
  H+  H364  1  0.58511274  0.92980834  0.40348840  1
  H+  H365  1  0.83934479  0.67532275  0.73179770  1
  H+  H366  1  0.08482192  0.16553843  0.73383542  1
  H+  H367  1  0.91189876  0.57530600  0.27559453  1
  H+  H368  1  0.17556206  0.11248715  0.22016581  1
  H+  H369  1  0.30525504  0.63730939  0.06204555  1
  H+  H370  1  0.57534203  0.90812745  0.77322854  1
  H+  H371  1  0.58045221  0.63354690  0.04224765  1
  H+  H372  1  0.34735818  0.16860207  0.74046914  1
  H+  H373  1  0.91568439  0.83683153  0.25340137  1
  H+  H374  1  0.33181996  0.41822868  0.10191685  1
  H+  H375  1  0.92734986  0.83963649  0.56427012  1
  H+  H376  1  0.33620526  0.92784896  0.08773834  1
  H+  H377  1  0.81849868  0.40424182  0.07008567  1
  H+  H378  1  0.67619679  0.59771521  0.60135354  1
  H+  H379  1  0.64641450  1.01984614  0.83913139  1
  H+  H380  1  0.35551186  0.97026901  -0.02085357  1
  H+  H381  1  0.57590501  0.66076775  0.44475025  1
  H+  H382  1  0.54739019  0.70262046  0.16474511  1
  H+  H383  1  0.73314703  0.86946931  0.35092867  1
  O2-  O384  1  0.05863284  0.16439700  0.13911783  1
  O2-  O385  1  0.09696915  0.19338554  0.45151186  1
  O2-  O386  1  0.09079246  0.16282558  0.80938862  1
  O2-  O387  1  0.07360240  0.40845439  0.13845752  1
  O2-  O388  1  0.08212419  0.41935309  0.47607179  1
  O2-  O389  1  0.08471194  0.40857282  0.87826682  1
  O2-  O390  1  0.04925490  0.70061761  0.12940242  1
  O2-  O391  1  0.08696602  0.66486842  0.47943225  1
  O2-  O392  1  0.08129200  0.65353324  0.80945407  1
  O2-  O393  1  0.16996468  0.96988007  0.12889433  1
  O2-  O394  1  0.09271842  0.91537653  0.48029212  1
  O2-  O395  1  0.08324191  0.90332667  0.81005835  1
  O2-  O396  1  0.32754338  0.18346972  0.13914506  1
  O2-  O397  1  0.32734552  0.16683049  0.46086150  1
  O2-  O398  1  0.35353901  0.16662672  0.81774710  1
  O2-  O399  1  0.32576646  0.41864560  0.14761742  1
  O2-  O400  1  0.31477788  0.39300448  0.48186689  1
  O2-  O401  1  0.33457527  0.41715849  0.80797497  1
  O2-  O402  1  0.45579539  0.70759631  0.13974775  1
  O2-  O403  1  0.31497290  0.65162032  0.47031136  1
  O2-  O404  1  0.33195081  0.66466067  0.81400502  1
  O2-  O405  1  0.33950158  0.92603856  0.13299132  1
  O2-  O406  1  0.32326734  0.90852372  0.46896699  1
  O2-  O407  1  0.33336413  0.90513691  0.82079633  1
  O2-  O408  1  0.60781928  0.15131619  0.14987986  1
  O2-  O409  1  0.54589497  0.13417817  0.50690893  1
  O2-  O410  1  0.60733500  0.16366683  0.81830922  1
  O2-  O411  1  0.56645991  0.44074908  0.13537206  1
  O2-  O412  1  0.57643723  0.40713472  0.49369332  1
  O2-  O413  1  0.57471539  0.43106497  0.79003980  1
  O2-  O414  1  0.59575635  0.70166042  0.18564923  1
  O2-  O415  1  0.57617438  0.65816059  0.49039285  1
  O2-  O416  1  0.58820075  0.66967691  0.81014640  1
  O2-  O417  1  0.60645374  0.93121190  0.15005178  1
  O2-  O418  1  0.56161077  0.90273363  0.48073247  1
  O2-  O419  1  0.58313963  0.91268580  0.81816508  1
  O2-  O420  1  0.86051917  0.13566050  0.14513223  1
  O2-  O421  1  0.86206339  0.20514683  0.47350391  1
  O2-  O422  1  0.83554140  0.15946768  0.80618531  1
  O2-  O423  1  0.83176525  0.40630251  0.15371536  1
  O2-  O424  1  0.85270608  0.40053350  0.48541620  1
  O2-  O425  1  0.84520594  0.41320975  0.81706155  1
  O2-  O426  1  0.85143772  0.68993724  0.15128354  1
  O2-  O427  1  0.84105479  0.66835120  0.48494174  1
  O2-  O428  1  0.84160979  0.66935491  0.80762312  1
  O2-  O429  1  0.84620637  0.92374719  0.16000899  1
  O2-  O430  1  0.88267005  0.94863235  0.48468671  1
  O2-  O431  1  0.83565426  0.90994006  0.80960951  1
  O2-  O432  1  0.15718642  0.10250617  0.17688171  1
  O2-  O433  1  0.17495332  0.06943723  0.54107578  1
  O2-  O434  1  0.18776521  0.08047975  0.82292478  1
  O2-  O435  1  0.15603095  0.32612363  0.18124371  1
  O2-  O436  1  0.17588146  0.34974738  0.52688660  1
  O2-  O437  1  0.17419766  0.32372713  0.85513761  1
  O2-  O438  1  0.09500854  0.54796288  0.19832260  1
  O2-  O439  1  0.16925467  0.58747494  0.52141661  1
  O2-  O440  1  0.16645345  0.58048319  0.85582918  1
  O2-  O441  1  0.17961831  0.84365848  0.18704511  1
  O2-  O442  1  0.17000924  0.82670845  0.52189723  1
  O2-  O443  1  0.16630597  0.81998108  0.84868714  1
  O2-  O444  1  0.45559565  0.05731630  0.20541020  1
  O2-  O445  1  0.37784717  0.07550449  0.52160343  1
  O2-  O446  1  0.42727100  0.10443056  0.89418787  1
  O2-  O447  1  0.41931683  0.35215173  0.18899934  1
  O2-  O448  1  0.39858216  0.31568695  0.51311753  1
  O2-  O449  1  0.41654928  0.33611015  0.85037988  1
  O2-  O450  1  0.37549934  0.57280633  0.20342421  1
  O2-  O451  1  0.41757777  0.59988241  0.54188034  1
  O2-  O452  1  0.42007284  0.58381356  0.84738228  1
  O2-  O453  1  0.45594474  0.90493836  0.19730698  1
  O2-  O454  1  0.39420048  0.81069616  0.50081621  1
  O2-  O455  1  0.41918306  0.82730012  0.86260552  1
  O2-  O456  1  0.70622992  0.09010246  0.19387351  1
  O2-  O457  1  0.56538104  0.01794778  0.56116135  1
  O2-  O458  1  0.68322402  0.08091889  0.85227752  1
  O2-  O459  1  0.67239781  0.30723689  0.20621478  1
  O2-  O460  1  0.66027884  0.31843999  0.52080309  1
  O2-  O461  1  0.68966128  0.32520478  0.86753808  1
  O2-  O462  1  0.62672528  0.60638530  0.10465750  1
  O2-  O463  1  0.66444979  0.58045513  0.53116548  1
  O2-  O464  1  0.67508339  0.58974092  0.84445442  1
  O2-  O465  1  0.69368991  0.86294136  0.20980688  1
  O2-  O466  1  0.64240307  0.82802271  0.52506421  1
  O2-  O467  1  0.67116606  0.83038997  0.84961241  1
  O2-  O468  1  0.89965924  0.09296562  0.17812067  1
  O2-  O469  1  0.95009892  0.10764179  0.51774285  1
  O2-  O470  1  0.92319885  0.07526780  0.84776324  1
  O2-  O471  1  0.91922897  0.32976555  0.18630768  1
  O2-  O472  1  0.90891105  0.36867358  0.50871865  1
  O2-  O473  1  0.91088157  0.31555062  0.85709682  1
  O2-  O474  1  0.90827233  0.57471717  0.19179937  1
  O2-  O475  1  0.91851484  0.56964077  0.52079478  1
  O2-  O476  1  0.91964150  0.57945931  0.85236966  1
  O2-  O477  1  0.91774090  0.84475895  0.20371627  1
  O2-  O478  1  0.92924564  0.83831608  0.51907372  1
  O2-  O479  1  0.92159856  0.83094769  0.85688273  1
  O2-  O480  1  0.21293207  0.15125686  0.29285779  1
  O2-  O481  1  0.16591953  0.07576740  0.66086009  1
  O2-  O482  1  0.15995408  0.07571672  0.98028211  1
  O2-  O483  1  0.18404801  0.29038246  0.30213986  1
  O2-  O484  1  0.16402324  0.33214523  0.64556561  1
  O2-  O485  1  0.19181085  0.32712800  0.98041916  1
  O2-  O486  1  0.16160423  0.58160658  0.31280735  1
  O2-  O487  1  0.17900758  0.59072248  0.64342798  1
  O2-  O488  1  0.16644692  0.59885164  0.97399506  1
  O2-  O489  1  0.18423043  0.84189103  0.31047820  1
  O2-  O490  1  0.16773294  0.83297093  0.64740369  1
  O2-  O491  1  0.16636263  0.83482004  0.96896176  1
  O2-  O492  1  0.43625255  0.09802013  0.31832250  1
  O2-  O493  1  0.42266305  0.09147470  0.64358709  1
  O2-  O494  1  0.36906982  0.01994019  0.90607708  1
  O2-  O495  1  0.42868684  0.35011520  0.31400581  1
  O2-  O496  1  0.39399769  0.31802205  0.63750753  1
  O2-  O497  1  0.42844403  0.34107361  0.97091150  1
  O2-  O498  1  0.41738936  0.58576350  0.32533774  1
  O2-  O499  1  0.42517262  0.58316069  0.65912497  1
  O2-  O500  1  0.40844753  0.57089677  0.97050859  1
  O2-  O501  1  0.42755291  0.82915868  0.31339199  1
  O2-  O502  1  0.44101374  0.88482202  0.61925453  1
  O2-  O503  1  0.42071683  0.83598000  0.98568060  1
  O2-  O504  1  0.67705367  0.10306549  0.31415219  1
  O2-  O505  1  0.67049800  0.07327093  0.66303359  1
  O2-  O506  1  0.68689733  0.07293621  0.97870807  1
  O2-  O507  1  0.64234053  0.28862058  0.32444075  1
  O2-  O508  1  0.70899041  0.30001832  0.63117097  1
  O2-  O509  1  0.65499246  0.31952025  0.97634477  1
  O2-  O510  1  0.66216250  0.58115438  0.33558298  1
  O2-  O511  1  0.68341033  0.60943756  0.64743117  1
  O2-  O512  1  0.68167893  0.58610843  0.96810593  1
  O2-  O513  1  0.67341666  0.84082097  0.33348735  1
  O2-  O514  1  0.66323409  0.83394203  0.64912086  1
  O2-  O515  1  0.65408501  0.81658291  0.96683631  1
  O2-  O516  1  0.90527842  0.08783095  0.33591989  1
  O2-  O517  1  0.92326509  0.08940589  0.64476664  1
  O2-  O518  1  0.92384121  0.08136676  0.97141135  1
  O2-  O519  1  0.93156795  0.33013508  0.29592483  1
  O2-  O520  1  0.92477637  0.36435160  0.63851848  1
  O2-  O521  1  0.90341226  0.32713458  0.97976246  1
  O2-  O522  1  0.91449396  0.57601328  0.32068253  1
  O2-  O523  1  0.92262596  0.59016415  0.64373023  1
  O2-  O524  1  0.92231680  0.57584462  0.97832832  1
  O2-  O525  1  0.91674170  0.83070526  0.31526566  1
  O2-  O526  1  0.91964919  0.83605485  0.64559499  1
  O2-  O527  1  0.92890389  0.84192366  0.98100179  1
  O2-  O528  1  0.08284313  0.16531690  0.01640545  1
  O2-  O529  1  0.06868700  0.17794110  0.38760712  1
  O2-  O530  1  0.08375949  0.16500084  0.68787187  1
  O2-  O531  1  0.07098084  0.42535853  0.01211576  1
  O2-  O532  1  0.08975715  0.42113341  0.34992527  1
  O2-  O533  1  0.07942106  0.41931867  0.68368993  1
  O2-  O534  1  0.07775509  0.67381021  0.01765039  1
  O2-  O535  1  0.08882209  0.67299638  0.35513621  1
  O2-  O536  1  0.08811324  0.66564633  0.68616506  1
  O2-  O537  1  0.09784759  0.92628292  0.02344637  1
  O2-  O538  1  0.06982332  0.89116828  0.35591430  1
  O2-  O539  1  0.08047426  0.90783307  0.68945367  1
  O2-  O540  1  0.32438804  0.16762584  0.01482370  1
  O2-  O541  1  0.35484446  0.18749165  0.34678791  1
  O2-  O542  1  0.33707294  0.16641053  0.69524080  1
  O2-  O543  1  0.34363050  0.41254147  0.02660040  1
  O2-  O544  1  0.33274425  0.41267136  0.36175049  1
  O2-  O545  1  0.32826767  0.41102240  0.68597653  1
  O2-  O546  1  0.36019416  0.67108972  0.04130909  1
  O2-  O547  1  0.32605042  0.66570303  0.34962054  1
  O2-  O548  1  0.33375260  0.66610178  0.68946745  1
  O2-  O549  1  0.33291448  0.92157024  0.00874354  1
  O2-  O550  1  0.33712747  0.94361061  0.35684953  1
  O2-  O551  1  0.31251433  0.95459248  0.71366283  1
  O2-  O552  1  0.61905528  0.15850654  0.02591205  1
  O2-  O553  1  0.60310066  0.19809946  0.34619444  1
  O2-  O554  1  0.58739354  0.15783548  0.69009358  1
  O2-  O555  1  0.59814016  0.42253730  0.01092099  1
  O2-  O556  1  0.58638367  0.40461253  0.36853128  1
  O2-  O557  1  0.55261375  0.42431320  0.67239069  1
  O2-  O558  1  0.57335327  0.64335612  -0.00122255  1
  O2-  O559  1  0.58209052  0.66859201  0.36684096  1
  O2-  O560  1  0.59111209  0.66765239  0.68991813  1
  O2-  O561  1  0.59154872  0.91292475  0.02672831  1
  O2-  O562  1  0.59446453  0.93613151  0.35868903  1
  O2-  O563  1  0.57465388  0.90692598  0.69442445  1
  O2-  O564  1  0.84757439  0.16438490  0.01985812  1
  O2-  O565  1  0.84016091  0.18486921  0.35486275  1
  O2-  O566  1  0.83208442  0.15115199  0.69495082  1
  O2-  O567  1  0.81817898  0.40418323  0.02498773  1
  O2-  O568  1  0.80082478  0.40104352  0.36358921  1
  O2-  O569  1  0.84669445  0.43298041  0.69368899  1
  O2-  O570  1  0.82625103  0.69286767  0.03780009  1
  O2-  O571  1  0.83642498  0.66861081  0.36111662  1
  O2-  O572  1  0.83651848  0.67570436  0.68579586  1
  O2-  O573  1  0.85671737  0.92422332  0.02661658  1
  O2-  O574  1  0.83811759  0.92249624  0.37324482  1
  O2-  O575  1  0.83515887  0.91943563  0.68326359  1
