# generated using pymatgen
data_H2O
_symmetry_space_group_name_H-M   'P 1'
_cell_length_a   17.99958659
_cell_length_b   18.00041161
_cell_length_c   22.00688171
_cell_angle_alpha   90.01588987
_cell_angle_beta   90.00522075
_cell_angle_gamma   120.02843716
_symmetry_Int_Tables_number   1
_chemical_formula_structural   H2O
_chemical_formula_sum   'H384 O192'
_cell_volume   6173.18874779
_cell_formula_units_Z   192
loop_
 _symmetry_equiv_pos_site_id
 _symmetry_equiv_pos_as_xyz
  1  'x, y, z'
loop_
 _atom_type_symbol
 _atom_type_oxidation_number
  H+  1.0
  O2-  -2.0
loop_
 _atom_site_type_symbol
 _atom_site_label
 _atom_site_symmetry_multiplicity
 _atom_site_fract_x
 _atom_site_fract_y
 _atom_site_fract_z
 _atom_site_occupancy
  H+  H0  1  0.37874715  0.36773975  0.32217143  1
  H+  H1  1  0.73054326  0.85849770  1.00467576  1
  H+  H2  1  0.76009844  0.35665173  0.66411773  1
  H+  H3  1  0.37344661  0.27542668  0.32478564  1
  H+  H4  1  0.46940060  0.69461483  0.95506404  1
  H+  H5  1  0.75631314  0.64366045  0.16688426  1
  H+  H6  1  0.63374445  1.01975044  -0.00847664  1
  H+  H7  1  0.02975217  0.88101469  0.82887027  1
  H+  H8  1  0.13807013  0.10681910  0.34919022  1
  H+  H9  1  0.96222594  0.36133425  0.32955005  1
  H+  H10  1  1.10660437  0.20853658  0.82958781  1
  H+  H11  1  0.71830993  0.36406749  0.30802973  1
  H+  H12  1  0.98956404  0.87793789  0.64955369  1
  H+  H13  1  0.23448490  0.61173308  0.84467864  1
  H+  H14  1  0.38164550  0.53870251  0.50917415  1
  H+  H15  1  0.23634800  0.96642472  0.61211509  1
  H+  H16  1  0.12311011  0.72985794  0.85789416  1
  H+  H17  1  0.64358930  0.78088140  0.17574773  1
  H+  H18  1  0.89990666  0.85664129  0.86303079  1
  H+  H19  1  0.27065942  0.88117601  0.49106765  1
  H+  H20  1  0.22934116  0.37310990  0.32155923  1
  H+  H21  1  0.10712716  0.63938364  0.49568090  1
  H+  H22  1  0.34665632  0.37124486  0.15800591  1
  H+  H23  1  0.20024203  0.34234148  0.16777183  1
  H+  H24  1  0.14752345  0.28500926  0.64852798  1
  H+  H25  1  0.49324613  0.37514923  0.84384384  1
  H+  H26  1  0.86917073  0.67708571  0.02719850  1
  H+  H27  1  0.56976530  0.26305508  0.61430422  1
  H+  H28  1  0.13364596  0.51628911  0.99905600  1
  H+  H29  1  0.13381391  0.77369417  0.51177397  1
  H+  H30  1  -0.01658067  0.11901789  0.32682450  1
  H+  H31  1  0.89063084  0.58116288  0.98847170  1
  H+  H32  1  0.79125667  0.13759286  0.48031794  1
  H+  H33  1  0.77731289  0.13491897  0.32933660  1
  H+  H34  1  0.86840599  0.77621475  0.18040515  1
  H+  H35  1  0.51265128  0.37282778  0.32137236  1
  H+  H36  1  0.78440458  0.87288240  0.87399818  1
  H+  H37  1  0.86395126  0.22170998  0.81866943  1
  H+  H38  1  0.65681112  0.60828909  0.33094139  1
  H+  H39  1  0.15441864  0.88698807  0.99882147  1
  H+  H40  1  0.66255585  0.17456168  0.72387044  1
  H+  H41  1  0.77234902  0.38921859  0.48355471  1
  H+  H42  1  0.32309670  0.65284785  0.07555816  1
  H+  H43  1  0.86164070  0.58507503  0.67390301  1
  H+  H44  1  0.64552800  0.31130078  0.22437741  1
  H+  H45  1  0.34664632  0.45982486  0.15776014  1
  H+  H46  1  0.92216731  0.09183680  0.55893101  1
  H+  H47  1  0.63505035  0.64806870  0.48600184  1
  H+  H48  1  0.11397525  0.39377443  0.49618793  1
  H+  H49  1  0.36464336  0.88643995  0.83288203  1
  H+  H50  1  0.12897152  0.65227720  1.01092748  1
  H+  H51  1  0.36416582  0.38593051  0.82282689  1
  H+  H52  1  0.18228879  0.76250053  0.70168542  1
  H+  H53  1  0.97305639  0.37202651  0.82312381  1
  H+  H54  1  0.62787387  0.89353712  1.01271666  1
  H+  H55  1  0.62246234  0.34821941  0.30883874  1
  H+  H56  1  0.35760037  0.46996260  0.82331059  1
  H+  H57  1  0.10196890  0.47002878  0.15751233  1
  H+  H58  1  0.35733752  0.73408249  0.48902497  1
  H+  H59  1  0.87803367  0.35118776  0.83006020  1
  H+  H60  1  0.07686277  0.44259472  0.75476088  1
  H+  H61  1  0.18864348  0.87180741  0.58818539  1
  H+  H62  1  0.22079467  0.62059878  0.50140600  1
  H+  H63  1  0.60613361  0.10331600  0.17589479  1
  H+  H64  1  0.94144610  0.56693505  0.67348061  1
  H+  H65  1  0.64613377  0.60204194  0.80911462  1
  H+  H66  1  0.35289320  0.70889429  0.16536766  1
  H+  H67  1  0.48277139  0.11480245  0.86420248  1
  H+  H68  1  0.14280510  0.28470409  0.50344063  1
  H+  H69  1  0.60403615  0.63214953  0.17132577  1
  H+  H70  1  0.62093800  0.39843488  0.01649873  1
  H+  H71  1  0.63149244  0.87026422  0.50134670  1
  H+  H72  1  0.37426955  0.59602448  0.17059609  1
  H+  H73  1  0.03083991  0.38777327  0.66345430  1
  H+  H74  1  0.13939334  0.03057696  0.66717661  1
  H+  H75  1  0.54607337  0.62897204  0.33880429  1
  H+  H76  1  0.12510255  0.34308924  -0.00561114  1
  H+  H77  1  0.23609874  0.37679056  0.65612543  1
  H+  H78  1  0.87138898  0.89531698  0.64732593  1
  H+  H79  1  0.92237657  0.33232501  0.91501338  1
  H+  H80  1  1.02301675  0.39205649  0.49582462  1
  H+  H81  1  0.50984851  0.37852972  0.16227168  1
  H+  H82  1  0.72864022  0.36364623  0.84749062  1
  H+  H83  1  0.73423482  0.87696281  0.50020264  1
  H+  H84  1  0.52595803  0.64387751  0.01499972  1
  H+  H85  1  0.87351897  0.27909355  0.32049005  1
  H+  H86  1  0.63550030  0.02196851  0.32769830  1
  H+  H87  1  0.72637429  0.11523289  0.84255701  1
  H+  H88  1  1.01239876  0.11874131  1.00280725  1
  H+  H89  1  0.85592057  0.40950893  0.32875830  1
  H+  H90  1  0.88842156  0.77570042  0.48570828  1
  H+  H91  1  0.73385954  0.60413604  0.82873004  1
  H+  H92  1  0.86412428  0.41346012  0.17671000  1
  H+  H93  1  0.64274335  0.23737028  0.34291612  1
  H+  H94  1  0.51936658  0.87995508  0.49508418  1
  H+  H95  1  0.61831896  0.70511203  0.83249835  1
  H+  H96  1  0.06725106  0.20512643  0.17456870  1
  H+  H97  1  0.64131170  0.76635513  1.01038814  1
  H+  H98  1  0.29179915  0.90556539  0.00841185  1
  H+  H99  1  0.65344058  0.83657543  0.85491441  1
  H+  H100  1  0.11624330  0.10183438  0.17986830  1
  H+  H101  1  0.12035050  0.22885368  0.33629336  1
  H+  H102  1  0.07542174  0.58214379  0.68221485  1
  H+  H103  1  0.67038212  0.84472003  0.56573934  1
  H+  H104  1  0.87364497  0.62309025  0.30249632  1
  H+  H105  1  0.26372954  0.62425368  0.01507678  1
  H+  H106  1  0.53924557  0.40955433  0.48958468  1
  H+  H107  1  0.11506124  0.72670549  0.16774274  1
  H+  H108  1  0.83812965  0.45283389  0.66906618  1
  H+  H109  1  0.57183832  0.81747762  0.78326683  1
  H+  H110  1  0.61695049  0.37728944  0.83306762  1
  H+  H111  1  0.74756016  0.62573734  0.49692645  1
  H+  H112  1  0.87894598  0.72281350  0.85004493  1
  H+  H113  1  0.12130003  0.14857915  0.65888540  1
  H+  H114  1  0.09560992  0.37792511  0.15801588  1
  H+  H115  1  0.28809425  0.90815595  0.67403040  1
  H+  H116  1  0.86101200  0.13183436  0.82248580  1
  H+  H117  1  0.85626558  0.92485039  0.92183944  1
  H+  H118  1  0.35300961  -0.02476388  0.16847093  1
  H+  H119  1  0.11906166  0.14664687  0.49444205  1
  H+  H120  1  0.59861295  1.00382013  0.81587364  1
  H+  H121  1  0.90340450  0.78949885  0.64518129  1
  H+  H122  1  0.60734910  0.34464904  0.16671114  1
  H+  H123  1  0.60969191  0.63218512  0.01546319  1
  H+  H124  1  0.62068706  0.46603028  0.81515812  1
  H+  H125  1  1.04018684  0.64673245  1.00707712  1
  H+  H126  1  0.63456588  0.52907502  0.00181198  1
  H+  H127  1  0.41245868  1.01382902  0.01370685  1
  H+  H128  1  0.76186077  0.63382305  0.67400880  1
  H+  H129  1  0.36502071  0.39065024  0.66798568  1
  H+  H130  1  0.01536480  0.29442747  0.37958967  1
  H+  H131  1  0.62569071  0.52762706  0.64712764  1
  H+  H132  1  0.46811778  0.86500562  0.83884532  1
  H+  H133  1  0.63915856  0.87277129  0.65119195  1
  H+  H134  1  0.62152513  0.72899547  0.48671094  1
  H+  H135  1  0.52568899  0.38621659  1.01430099  1
  H+  H136  1  0.88156700  0.51895143  0.50492326  1
  H+  H137  1  0.85314381  0.88409985  0.48568629  1
  H+  H138  1  0.89242288  0.02829640  0.50120965  1
  H+  H139  1  0.27045025  0.13780509  0.35549293  1
  H+  H140  1  0.35940174  0.89210852  0.33236619  1
  H+  H141  1  0.83856378  0.93152975  0.06981600  1
  H+  H142  1  0.62507860  0.51506140  0.17680665  1
  H+  H143  1  0.78244680  0.90647483  0.16330130  1
  H+  H144  1  0.37261654  0.13865013  0.68677205  1
  H+  H145  1  0.73774525  0.38078562  0.01371228  1
  H+  H146  1  0.13271464  0.85342849  0.19199489  1
  H+  H147  1  0.98737365  0.62955535  0.19754335  1
  H+  H148  1  0.44915381  0.08736411  0.95653643  1
  H+  H149  1  0.77474509  0.13527331  0.66515629  1
  H+  H150  1  0.41722411  0.58610387  0.89447273  1
  H+  H151  1  0.61987157  0.34357513  0.65829261  1
  H+  H152  1  0.38667160  0.85469752  0.17190565  1
  H+  H153  1  0.19878191  0.75844342  0.67115316  1
  H+  H154  1  0.12768191  0.60666961  0.17232106  1
  H+  H155  1  0.34547069  0.63613923  0.33473456  1
  H+  H156  1  0.35935765  0.14005560  0.51310492  1
  H+  H157  1  0.72893319  0.87145935  0.64725080  1
  H+  H158  1  0.38968344  0.63671508  0.99504531  1
  H+  H159  1  0.10199301  0.49855454  0.81687316  1
  H+  H160  1  0.52261721  0.88962259  0.65972497  1
  H+  H161  1  0.35085989  0.20904681  0.01362954  1
  H+  H162  1  0.46725957  0.60181765  0.17059377  1
  H+  H163  1  0.35880371  0.21636630  0.84418584  1
  H+  H164  1  0.85432195  0.22185051  -0.01160527  1
  H+  H165  1  0.48521979  0.11310703  0.66772994  1
  H+  H166  1  0.84111573  0.23286318  0.16880026  1
  H+  H167  1  0.35099370  0.24572030  0.65305898  1
  H+  H168  1  0.60060615  -0.02687049  0.16570565  1
  H+  H169  1  0.59211632  0.16090506  0.51239725  1
  H+  H170  1  0.08214510  0.91552943  0.73154803  1
  H+  H171  1  0.86170069  0.98935528  0.00867909  1
  H+  H172  1  0.89077967  0.12220154  0.65318767  1
  H+  H173  1  0.27425643  0.40192256  0.48639511  1
  H+  H174  1  0.59973698  0.24771185  0.49282781  1
  H+  H175  1  0.36655662  0.64423978  0.67093835  1
  H+  H176  1  0.36926444  0.63673924  0.82119654  1
  H+  H177  1  0.46068171  0.11624025  0.50918539  1
  H+  H178  1  0.73237348  0.58391565  0.32261258  1
  H+  H179  1  0.46407872  0.42313641  0.88810557  1
  H+  H180  1  0.82545875  0.92295906  0.42992551  1
  H+  H181  1  0.34842501  0.18363061  0.40124077  1
  H+  H182  1  0.22454364  0.85862126  0.18353262  1
  H+  H183  1  0.17265192  0.57765081  0.94149030  1
  H+  H184  1  0.11984360  0.88476649  0.82483980  1
  H+  H185  1  0.86218020  0.89657548  0.34141900  1
  H+  H186  1  0.12337100  0.90782334  0.66789653  1
  H+  H187  1  0.88191575  0.78094564  0.32975728  1
  H+  H188  1  0.36993751  0.11102623  0.17681618  1
  H+  H189  1  0.22114251  0.11532392  0.51079431  1
  H+  H190  1  0.13184559  0.35325583  0.32809200  1
  H+  H191  1  0.26006543  0.12299316  0.01384806  1
  H+  H192  1  0.63626248  0.02084738  0.63821089  1
  H+  H193  1  0.36640838  0.40843256  0.48330552  1
  H+  H194  1  0.88794167  0.36456830  -0.03148551  1
  H+  H195  1  0.11077478  0.09065890  -0.00066033  1
  H+  H196  1  0.82837001  0.16152942  0.72863630  1
  H+  H197  1  0.38605202  0.02992881  0.32317546  1
  H+  H198  1  0.14300546  0.02091978  0.34119725  1
  H+  H199  1  0.49230021  0.12639704  0.15941020  1
  H+  H200  1  0.59754867  0.92660453  0.06948377  1
  H+  H201  1  0.37396758  0.26755881  0.17041365  1
  H+  H202  1  0.12914006  0.02079381  0.18490549  1
  H+  H203  1  0.61620645  0.89228342  0.16512641  1
  H+  H204  1  0.38600523  0.77007504  0.83789209  1
  H+  H205  1  0.88236146  0.14457392  0.48203395  1
  H+  H206  1  0.34976141  0.45656613  1.00898606  1
  H+  H207  1  0.33687913  0.66917127  0.76433629  1
  H+  H208  1  0.64580127  0.77402011  0.32685296  1
  H+  H209  1  0.96592527  0.37163405  0.17132182  1
  H+  H210  1  0.23263039  0.11432118  0.67067495  1
  H+  H211  1  0.87397493  0.63773391  0.48496351  1
  H+  H212  1  0.39994446  0.30078690  0.49047057  1
  H+  H213  1  0.89380470  0.59852815  0.85076154  1
  H+  H214  1  0.34040309  0.20459261  0.54932868  1
  H+  H215  1  0.17878682  0.85155607  0.90387152  1
  H+  H216  1  0.90463330  0.50636859  0.00815927  1
  H+  H217  1  0.62422076  0.61551133  0.65102829  1
  H+  H218  1  0.10559323  0.20240911  0.00168272  1
  H+  H219  1  0.46975925  0.85827132  0.32234265  1
  H+  H220  1  0.76383925  0.13569064  0.99340775  1
  H+  H221  1  0.68505429  0.60001189  0.55677132  1
  H+  H222  1  0.14873450  0.79473776  1.00003314  1
  H+  H223  1  0.21738792  0.34551875  0.83774080  1
  H+  H224  1  0.88839643  0.35833645  0.65516400  1
  H+  H225  1  0.86606852  -0.01248212  0.33777443  1
  H+  H226  1  0.47687664  0.60228665  0.83654110  1
  H+  H227  1  0.36840746  0.76315449  1.00079931  1
  H+  H228  1  0.03727016  0.72165737  0.62759897  1
  H+  H229  1  0.90117568  0.89216993  0.00490758  1
  H+  H230  1  0.83814013  0.91692807  0.70649458  1
  H+  H231  1  0.14055129  0.01214727  0.84300432  1
  H+  H232  1  0.15100338  0.61881663  0.86130365  1
  H+  H233  1  1.05817846  0.68562304  0.41131556  1
  H+  H234  1  0.86936004  0.76235450  0.01471431  1
  H+  H235  1  0.86060482  0.38712403  0.48415697  1
  H+  H236  1  0.89467179  0.12006264  0.31789337  1
  H+  H237  1  0.88402144  0.87325751  0.17889661  1
  H+  H238  1  0.61765132  0.85096440  0.77643736  1
  H+  H239  1  0.26044242  0.62127290  0.16771046  1
  H+  H240  1  0.64019027  0.27757152  0.86021616  1
  H+  H241  1  0.66017688  0.10759405  0.47408457  1
  H+  H242  1  0.32783814  0.91805872  0.10896266  1
  H+  H243  1  0.38680338  0.11869941  0.32492565  1
  H+  H244  1  0.39008563  0.86648577  0.66060112  1
  H+  H245  1  0.12126325  0.38991849  0.66648390  1
  H+  H246  1  0.68721051  0.46485221  0.69821951  1
  H+  H247  1  0.10376770  0.11939637  0.83602141  1
  H+  H248  1  0.46723581  0.66524304  0.30058289  1
  H+  H249  1  0.63169408  0.49536234  0.49052977  1
  H+  H250  1  0.08451717  0.91352676  0.23910706  1
  H+  H251  1  1.05151111  0.69919454  0.64941872  1
  H+  H252  1  0.62205057  0.21941781  0.68411461  1
  H+  H253  1  0.39199863  0.10926925  0.86922018  1
  H+  H254  1  0.36731477  0.49152232  0.33376902  1
  H+  H255  1  0.08246757  0.67214056  0.10645014  1
  H+  H256  1  0.61739372  0.14202815  0.84421776  1
  H+  H257  1  0.38718292  0.77570793  0.65838366  1
  H+  H258  1  0.03120887  0.14674257  0.49136292  1
  H+  H259  1  0.89071398  0.27187284  0.65498319  1
  H+  H260  1  0.14648032  0.52329703  0.65442862  1
  H+  H261  1  0.88847211  1.02538082  0.85255912  1
  H+  H262  1  0.59701171  0.24195870  0.16122497  1
  H+  H263  1  0.89291559  1.03455761  0.64791188  1
  H+  H264  1  0.35162686  0.72734840  0.33471372  1
  H+  H265  1  0.02267425  0.88373219  0.32259790  1
  H+  H266  1  0.12933573  0.62944405  0.31842383  1
  H+  H267  1  0.60814145  0.88094198  0.33614382  1
  H+  H268  1  0.87168699  0.50506847  0.18330084  1
  H+  H269  1  0.15222981  0.32667559  0.23054023  1
  H+  H270  1  0.89069634  0.27675730  0.49775653  1
  H+  H271  1  0.61254771  0.96774297  0.48672737  1
  H+  H272  1  0.97866673  0.11160925  0.84132360  1
  H+  H273  1  0.35622973  -0.02831785  0.49326175  1
  H+  H274  1  0.38128406  0.34801147  1.00243459  1
  H+  H275  1  0.26124839  0.13763244  0.16415534  1
  H+  H276  1  0.52011081  0.64327606  0.67094525  1
  H+  H277  1  0.39323543  0.53412760  0.66034666  1
  H+  H278  1  0.02889463  0.88969648  0.48265969  1
  H+  H279  1  0.37589997  0.62329931  0.51185808  1
  H+  H280  1  0.13352362  0.52965536  0.50220485  1
  H+  H281  1  0.63838378  0.10940078  0.63972323  1
  H+  H282  1  0.23500248  0.87133728  0.84357276  1
  H+  H283  1  0.71841545  0.62186633  0.99770867  1
  H+  H284  1  1.03431867  0.15201944  0.65195787  1
  H+  H285  1  0.21034691  0.61837785  0.32467895  1
  H+  H286  1  0.39662631  0.02646178  0.66989566  1
  H+  H287  1  0.38984278  0.86960604  0.50288895  1
  H+  H288  1  0.90439865  0.83638741  0.26861810  1
  H+  H289  1  0.84107131  0.16965597  0.38651050  1
  H+  H290  1  0.41256772  0.82611382  0.26194452  1
  H+  H291  1  0.82229548  0.42551982  0.38987053  1
  H+  H292  1  0.91313161  0.33188052  0.55939608  1
  H+  H293  1  0.15132152  0.57610347  0.23341381  1
  H+  H294  1  0.92099250  0.55328256  0.90142681  1
  H+  H295  1  0.82528510  0.84971782  0.77203226  1
  H+  H296  1  0.99560958  0.90320890  1.00401508  1
  H+  H297  1  0.41749904  0.83770786  0.56293064  1
  H+  H298  1  0.16108496  0.06050963  0.90720878  1
  H+  H299  1  0.16898464  0.58765118  0.59837793  1
  H+  H300  1  0.91356913  0.08761669  0.93410394  1
  H+  H301  1  0.37202549  0.97887318  0.84002814  1
  H+  H302  1  1.02118791  0.38058097  0.99932212  1
  H+  H303  1  0.03804970  0.63639950  0.85497153  1
  H+  H304  1  0.54716613  0.14448885  0.09551211  1
  H+  H305  1  0.57523366  0.41306829  0.10507707  1
  H+  H306  1  0.06524002  0.38638154  0.40851523  1
  H+  H307  1  0.57722220  0.17070797  0.79079056  1
  H+  H308  1  0.60408020  0.67047369  0.39783891  1
  H+  H309  1  0.27603623  0.64197207  0.66976070  1
  H+  H310  1  0.58375590  0.66367181  0.76589812  1
  H+  H311  1  0.85654134  0.67012907  0.78902226  1
  H+  H312  1  0.91177321  0.34842051  0.23326741  1
  H+  H313  1  0.17633135  0.34795066  0.56152357  1
  H+  H314  1  0.51431488  0.97974346  0.77978638  1
  H+  H315  1  0.40278606  0.33008706  0.22868909  1
  H+  H316  1  0.13747109  0.86486320  0.50322221  1
  H+  H317  1  0.66900759  0.80651315  0.91961225  1
  H+  H318  1  0.58242552  0.93540051  0.71627023  1
  H+  H319  1  0.68475331  0.35545089  0.95133343  1
  H+  H320  1  0.60005393  0.18291437  0.40254870  1
  H+  H321  1  0.96575903  0.58324968  0.25937924  1
  H+  H322  1  0.57440673  0.90500297  0.39529524  1
  H+  H323  1  0.32448010  0.67217829  0.43064873  1
  H+  H324  1  0.67206045  0.34709524  0.55374937  1
  H+  H325  1  0.40634030  0.08498982  0.23628103  1
  H+  H326  1  0.65904515  0.57183500  0.23708144  1
  H+  H327  1  0.11828550  0.98788424  0.06024796  1
  H+  H328  1  0.08893786  0.17645573  0.39894167  1
  H+  H329  1  0.28830648  0.26692635  0.61681279  1
  H+  H330  1  0.75626040  0.14397175  0.16763180  1
  H+  H331  1  0.10261035  0.86843783  0.32588712  1
  H+  H332  1  0.60814920  0.09363340  0.98838973  1
  H+  H333  1  0.83048765  0.53980939  0.34068682  1
  H+  H334  1  0.41578524  0.58718559  0.25573734  1
  H+  H335  1  0.81955791  0.40153088  0.76456046  1
  H+  H336  1  0.57963547  0.66446003  0.11126031  1
  H+  H337  1  0.67368253  0.83985917  0.23431568  1
  H+  H338  1  0.84788424  0.65243301  0.41942957  1
  H+  H339  1  0.87765780  0.11482347  0.99129511  1
  H+  H340  1  0.60289378  0.41015495  0.73563406  1
  H+  H341  1  0.41549133  0.59397238  0.60052031  1
  H+  H342  1  0.36893611  0.88339680  1.01026697  1
  H+  H343  1  0.07256165  0.40553645  0.06279884  1
  H+  H344  1  0.67273908  0.08483731  0.54395802  1
  H+  H345  1  0.72795862  0.86907120  0.32837826  1
  H+  H346  1  0.33144555  0.91998008  0.39174995  1
  H+  H347  1  0.61149877  0.73008733  0.67046453  1
  H+  H348  1  0.64503692  0.08045681  0.23467960  1
  H+  H349  1  0.32081471  0.40042026  0.06985920  1
  H+  H350  1  0.60520895  0.45623079  0.32698323  1
  H+  H351  1  0.33962492  0.92410593  0.73795772  1
  H+  H352  1  0.84123264  0.43926785  0.09660413  1
  H+  H353  1  0.01656259  0.88038195  0.18691175  1
  H+  H354  1  0.27384289  0.12542858  0.84202268  1
  H+  H355  1  0.78645246  0.85556906  0.77253307  1
  H+  H356  1  0.41473048  0.34920652  0.55080254  1
  H+  H357  1  0.02516930  0.52986005  0.73928164  1
  H+  H358  1  0.94226536  0.83491358  0.91454574  1
  H+  H359  1  0.85807044  0.37609304  0.05688368  1
  H+  H360  1  0.11476905  0.97707229  0.49528340  1
  H+  H361  1  0.15806868  0.80170092  0.27594933  1
  H+  H362  1  0.21258835  0.34142436  0.99602330  1
  H+  H363  1  0.81236618  0.68852964  0.10811515  1
  H+  H364  1  0.33972341  0.41892512  0.73019807  1
  H+  H365  1  0.33450312  0.43528233  0.39383683  1
  H+  H366  1  0.64033084  0.38380656  0.49748208  1
  H+  H367  1  0.65121551  0.11837584  0.33524071  1
  H+  H368  1  0.95013956  0.10200570  0.23140224  1
  H+  H369  1  0.75180055  0.60544395  0.74045497  1
  H+  H370  1  0.40053854  0.82073788  0.94013424  1
  H+  H371  1  0.89904060  0.57060875  0.56782442  1
  H+  H372  1  0.66195119  0.08206239  0.90282054  1
  H+  H373  1  0.87579678  0.99338863  0.16062110  1
  H+  H374  1  0.41181229  0.07890085  0.57182681  1
  H+  H375  1  1.01738698  0.63721571  0.50312636  1
  H+  H376  1  0.41662837  0.32091990  0.94579697  1
  H+  H377  1  0.16382063  0.08573386  0.56970031  1
  H+  H378  1  0.86066415  0.46453659  0.82302296  1
  H+  H379  1  0.32079730  0.16022778  0.10497416  1
  H+  H380  1  0.47349851  0.85035156  0.16897338  1
  H+  H381  1  0.15936589  0.31434266  0.89679597  1
  H+  H382  1  0.91793729  0.83516576  0.54501694  1
  H+  H383  1  0.34020229  0.16642257  0.74617005  1
  O2-  O384  1  0.04149385  0.14177116  0.16889727  1
  O2-  O385  1  0.09242183  0.17976787  0.47809395  1
  O2-  O386  1  0.07195967  0.14592123  0.81906419  1
  O2-  O387  1  0.06904426  0.41046729  0.14063441  1
  O2-  O388  1  0.08266858  0.42209739  0.47892233  1
  O2-  O389  1  0.05320708  0.45832021  0.79028067  1
  O2-  O390  1  0.08006715  0.66663138  0.15136370  1
  O2-  O391  1  0.07632881  0.67159018  0.48598007  1
  O2-  O392  1  0.09855137  0.66834755  0.86796350  1
  O2-  O393  1  0.07983214  0.90946062  0.19332973  1
  O2-  O394  1  0.09185619  0.91769491  0.48025791  1
  O2-  O395  1  0.08696784  0.91219629  0.80857030  1
  O2-  O396  1  0.32298138  0.16680662  0.15062750  1
  O2-  O397  1  0.33560233  0.18005823  0.50855096  1
  O2-  O398  1  0.33612626  0.15827484  0.82834834  1
  O2-  O399  1  0.31456357  0.39995861  0.14179388  1
  O2-  O400  1  0.33398179  0.43674942  0.46986582  1
  O2-  O401  1  0.33089768  0.41105997  0.80549478  1
  O2-  O402  1  0.32131975  0.64731612  0.15257014  1
  O2-  O403  1  0.32381597  0.67301052  0.47607390  1
  O2-  O404  1  0.34008806  0.66931002  0.80987976  1
  O2-  O405  1  0.32635337  0.91408508  0.15385620  1
  O2-  O406  1  0.33222319  0.91245611  0.47763149  1
  O2-  O407  1  0.34196532  0.92384036  0.81708027  1
  O2-  O408  1  0.55291204  0.15621091  0.14127808  1
  O2-  O409  1  0.56321511  0.18274220  0.48683976  1
  O2-  O410  1  0.58193434  0.17074848  0.83528463  1
  O2-  O411  1  0.57230375  0.40633718  0.15076166  1
  O2-  O412  1  0.60053520  0.43313632  0.47971533  1
  O2-  O413  1  0.58490542  0.40202030  0.81044767  1
  O2-  O414  1  0.57581817  0.66490986  0.15665900  1
  O2-  O415  1  0.60150700  0.67307622  0.46770353  1
  O2-  O416  1  0.58403357  0.65001378  0.81002301  1
  O2-  O417  1  0.57823067  0.91330649  0.14933052  1
  O2-  O418  1  0.58057702  0.90457268  0.47881829  1
  O2-  O419  1  0.55254041  0.95759204  0.78938110  1
  O2-  O420  1  0.81880360  0.17099584  0.16326123  1
  O2-  O421  1  0.85112595  0.17408012  0.46637426  1
  O2-  O422  1  0.82913323  0.16015777  0.80583492  1
  O2-  O423  1  0.83777044  0.44847138  0.16305861  1
  O2-  O424  1  0.83326679  0.42042034  0.46967766  1
  O2-  O425  1  0.82300499  0.40324562  0.80967654  1
  O2-  O426  1  0.81576674  0.68381493  0.15249741  1
  O2-  O427  1  0.84822073  0.66801949  0.46252271  1
  O2-  O428  1  0.84920119  0.66262784  0.83322682  1
  O2-  O429  1  0.84181346  0.93300586  0.14622589  1
  O2-  O430  1  0.82287298  0.91722071  0.47601555  1
  O2-  O431  1  0.84761409  0.91300063  0.87831124  1
  O2-  O432  1  0.15957319  0.08451393  0.18556792  1
  O2-  O433  1  0.16042111  0.08552833  0.52452027  1
  O2-  O434  1  0.17154267  0.06996925  0.86268384  1
  O2-  O435  1  0.14206041  0.31856288  0.18562850  1
  O2-  O436  1  0.17244279  0.34658633  0.51580831  1
  O2-  O437  1  0.15759129  0.31231665  0.85181365  1
  O2-  O438  1  0.15494914  0.57354742  0.18766922  1
  O2-  O439  1  0.16093690  0.58952305  0.51821670  1
  O2-  O440  1  0.17679502  0.58004076  0.86364321  1
  O2-  O441  1  0.16512399  0.82247494  0.20023552  1
  O2-  O442  1  0.16912600  0.83658518  0.52140300  1
  O2-  O443  1  0.17485758  0.84389428  0.85888218  1
  O2-  O444  1  0.40089734  0.08019528  0.18967721  1
  O2-  O445  1  0.40253536  0.07884997  0.52728224  1
  O2-  O446  1  0.42407144  0.08044738  0.88273392  1
  O2-  O447  1  0.40495475  0.33024350  0.18303369  1
  O2-  O448  1  0.42645312  0.35953372  0.50700276  1
  O2-  O449  1  0.44112780  0.36848948  0.86660852  1
  O2-  O450  1  0.40612730  0.56653849  0.18490954  1
  O2-  O451  1  0.40557933  0.59474984  0.53015134  1
  O2-  O452  1  0.41571301  0.57562336  0.85001846  1
  O2-  O453  1  0.41196760  0.81854099  0.18312330  1
  O2-  O454  1  0.42175999  0.84005582  0.51764286  1
  O2-  O455  1  0.41030118  0.82898967  0.85622320  1
  O2-  O456  1  0.63704801  0.07373024  0.18984149  1
  O2-  O457  1  0.67872076  0.07538467  0.49951704  1
  O2-  O458  1  0.66536980  0.08886297  0.85599368  1
  O2-  O459  1  0.63317971  0.30681311  0.17815105  1
  O2-  O460  1  0.66725730  0.34515289  0.50932656  1
  O2-  O461  1  0.67160765  0.34047520  0.86823811  1
  O2-  O462  1  0.65263033  0.57528065  0.19196095  1
  O2-  O463  1  0.68711147  0.59948570  0.51162037  1
  O2-  O464  1  0.68062920  0.57256416  0.80414896  1
  O2-  O465  1  0.67585849  0.84196422  0.18892080  1
  O2-  O466  1  0.67111088  0.84594096  0.51818751  1
  O2-  O467  1  0.67589457  0.80259070  0.87349874  1
  O2-  O468  1  0.95100992  0.10387104  0.18551219  1
  O2-  O469  1  0.92491790  0.08960874  0.51322173  1
  O2-  O470  1  0.91617124  0.08840252  0.85561004  1
  O2-  O471  1  0.90757841  0.35184123  0.18825875  1
  O2-  O472  1  0.91473395  0.33623551  0.51401428  1
  O2-  O473  1  0.91628784  0.32785494  0.84129794  1
  O2-  O474  1  0.93931796  0.59901919  0.22701379  1
  O2-  O475  1  0.90841389  0.57787202  0.52336880  1
  O2-  O476  1  0.91930598  0.56100798  0.85684249  1
  O2-  O477  1  0.90527729  0.83682912  0.19754519  1
  O2-  O478  1  0.91038280  0.83564676  0.50054202  1
  O2-  O479  1  0.93321926  0.82648879  0.86988276  1
  O2-  O480  1  0.17172707  0.07886503  0.35950105  1
  O2-  O481  1  0.17614570  0.08932758  0.64985194  1
  O2-  O482  1  0.14724256  0.05813627  0.98715419  1
  O2-  O483  1  0.16915691  0.33485408  0.30728751  1
  O2-  O484  1  0.17808637  0.34857754  0.63729098  1
  O2-  O485  1  0.15310407  0.31027892  0.98017420  1
  O2-  O486  1  0.15116538  0.59052105  0.30818519  1
  O2-  O487  1  0.17306267  0.58551251  0.64355236  1
  O2-  O488  1  0.16673962  0.57817968  0.98685902  1
  O2-  O489  1  0.14300309  0.79217661  0.32101094  1
  O2-  O490  1  0.20725992  0.90774259  0.62751197  1
  O2-  O491  1  0.18182681  0.85487161  0.98417240  1
  O2-  O492  1  0.41610002  0.09000324  0.30684028  1
  O2-  O493  1  0.42591866  0.08747783  0.65355965  1
  O2-  O494  1  0.44979789  0.08092601  1.00247074  1
  O2-  O495  1  0.40317657  0.33343074  0.30507008  1
  O2-  O496  1  0.34876064  0.28306415  0.61989104  1
  O2-  O497  1  0.41468238  0.31953865  0.99054916  1
  O2-  O498  1  0.42491410  0.60414747  0.30073264  1
  O2-  O499  1  0.42162644  0.59508276  0.64706263  1
  O2-  O500  1  0.43676382  0.63547489  0.96952401  1
  O2-  O501  1  0.40946753  0.82733636  0.30732200  1
  O2-  O502  1  0.41873982  0.83666262  0.64246567  1
  O2-  O503  1  0.39751566  0.82273266  0.98483204  1
  O2-  O504  1  0.66958216  0.08173168  0.31250123  1
  O2-  O505  1  0.66778156  0.08119319  0.62138795  1
  O2-  O506  1  0.65054133  0.07740439  0.97204898  1
  O2-  O507  1  0.65901071  0.32255235  0.29397827  1
  O2-  O508  1  0.62358988  0.29545636  0.63665572  1
  O2-  O509  1  0.68018618  0.35882789  0.99586562  1
  O2-  O510  1  0.67246459  0.56800596  0.31171776  1
  O2-  O511  1  0.65594627  0.58769264  0.63358405  1
  O2-  O512  1  0.65785266  0.58826911  0.98519285  1
  O2-  O513  1  0.66763480  0.83441276  0.31311137  1
  O2-  O514  1  0.66755667  0.84145531  0.63372252  1
  O2-  O515  1  0.67051539  0.82361796  0.98904679  1
  O2-  O516  1  0.92496608  0.08765328  0.30743864  1
  O2-  O517  1  0.92187553  0.09510319  0.63407115  1
  O2-  O518  1  0.90951534  0.08306088  0.97951381  1
  O2-  O519  1  0.90494951  0.34191173  0.31148455  1
  O2-  O520  1  0.92022806  0.33127710  0.63808409  1
  O2-  O521  1  0.92000273  0.33510836  0.96105671  1
  O2-  O522  1  1.02600013  0.68899352  0.37447622  1
  O2-  O523  1  0.88608203  0.55390636  0.65240921  1
  O2-  O524  1  0.93030810  0.55996666  0.98228071  1
  O2-  O525  1  0.90930169  0.83988394  0.31527330  1
  O2-  O526  1  0.93090223  0.84798882  0.62936459  1
  O2-  O527  1  0.93517660  0.86411521  0.99153026  1
  O2-  O528  1  0.07401735  0.14045387  0.01345146  1
  O2-  O529  1  0.08460997  0.17023902  0.35374473  1
  O2-  O530  1  0.09656700  0.18665916  0.66023111  1
  O2-  O531  1  0.07957021  0.40717441  0.01744235  1
  O2-  O532  1  0.04864925  0.35474899  0.36819792  1
  O2-  O533  1  0.08992829  0.42004935  0.68020167  1
  O2-  O534  1  0.09858839  0.68324720  0.02366862  1
  O2-  O535  1  0.08091219  0.70163133  0.32400682  1
  O2-  O536  1  0.02451221  0.56815672  0.70737088  1
  O2-  O537  1  0.10654790  0.97285804  0.01696415  1
  O2-  O538  1  0.08509981  0.91067714  0.31433830  1
  O2-  O539  1  0.08230386  0.92357446  0.68622362  1
  O2-  O540  1  0.31878919  0.15022457  0.03046268  1
  O2-  O541  1  0.33587234  0.17756472  0.35789048  1
  O2-  O542  1  0.33964802  0.16630834  0.70079060  1
  O2-  O543  1  0.32320188  0.39756318  0.02340824  1
  O2-  O544  1  0.33446807  0.43197801  0.34809996  1
  O2-  O545  1  0.34189486  0.42548515  0.68457666  1
  O2-  O546  1  0.32504404  0.65720828  0.03005358  1
  O2-  O547  1  0.31829897  0.66734056  0.35186055  1
  O2-  O548  1  0.33655589  0.67516608  0.68584040  1
  O2-  O549  1  0.34983279  0.92562193  0.02583956  1
  O2-  O550  1  0.33488948  0.92699569  0.34725618  1
  O2-  O551  1  0.34561966  0.92767910  0.69261665  1
  O2-  O552  1  0.53991877  0.11901780  0.02320345  1
  O2-  O553  1  0.64382736  0.19503017  0.37160487  1
  O2-  O554  1  0.60904504  0.16476363  0.70518963  1
  O2-  O555  1  0.58459392  0.42405070  0.03019130  1
  O2-  O556  1  0.57325891  0.39321020  0.33259147  1
  O2-  O557  1  0.62584019  0.42511717  0.69257486  1
  O2-  O558  1  0.58299519  0.66556376  0.03406924  1
  O2-  O559  1  0.60562390  0.66765587  0.35111688  1
  O2-  O560  1  0.58164703  0.67083053  0.68641825  1
  O2-  O561  1  0.60585617  0.93172452  0.02480990  1
  O2-  O562  1  0.57624048  0.90992963  0.35051996  1
  O2-  O563  1  0.58516418  0.92449837  0.67206919  1
  O2-  O564  1  0.82569853  0.16221366  0.00304535  1
  O2-  O565  1  0.83941489  0.17015477  0.34129340  1
  O2-  O566  1  0.83293762  0.16651851  0.68286740  1
  O2-  O567  1  0.84434287  0.42150942  0.05109692  1
  O2-  O568  1  0.82008679  0.43255968  0.34509694  1
  O2-  O569  1  0.81534492  0.39180327  0.68400616  1
  O2-  O570  1  0.83087727  0.70047744  0.02586579  1
  O2-  O571  1  0.83422253  0.59672449  0.33686463  1
  O2-  O572  1  0.79662470  0.63152180  0.70812777  1
  O2-  O573  1  0.83657254  0.92781795  0.02401888  1
  O2-  O574  1  0.83248310  0.92799009  0.35555147  1
  O2-  O575  1  0.83771270  0.92252640  0.66218540  1
