# generated using pymatgen
data_H2O
_symmetry_space_group_name_H-M   'P 1'
_cell_length_a   17.99162027
_cell_length_b   17.98842353
_cell_length_c   22.00299339
_cell_angle_alpha   90.01099016
_cell_angle_beta   90.00892038
_cell_angle_gamma   119.98354772
_symmetry_Int_Tables_number   1
_chemical_formula_structural   H2O
_chemical_formula_sum   'H384 O192'
_cell_volume   6168.04778665
_cell_formula_units_Z   192
loop_
 _symmetry_equiv_pos_site_id
 _symmetry_equiv_pos_as_xyz
  1  'x, y, z'
loop_
 _atom_type_symbol
 _atom_type_oxidation_number
  H+  1.0
  O2-  -2.0
loop_
 _atom_site_type_symbol
 _atom_site_label
 _atom_site_symmetry_multiplicity
 _atom_site_fract_x
 _atom_site_fract_y
 _atom_site_fract_z
 _atom_site_occupancy
  H+  H0  1  0.12881269  0.61688234  0.66714860  1
  H+  H1  1  0.95035086  0.14420159  0.82379685  1
  H+  H2  1  0.46025569  0.69413891  0.41857335  1
  H+  H3  1  0.85952999  0.22476206  0.34003319  1
  H+  H4  1  0.11076899  -0.03252247  0.67849922  1
  H+  H5  1  0.22406494  0.35800627  0.16131135  1
  H+  H6  1  0.46235996  0.97692616  0.71515855  1
  H+  H7  1  0.11503168  0.22023428  0.30991678  1
  H+  H8  1  0.17038336  0.33990412  0.56911331  1
  H+  H9  1  0.94244666  0.82274436  0.26081136  1
  H+  H10  1  0.82487650  0.15369520  0.06779707  1
  H+  H11  1  0.10319535  0.59944581  0.51558914  1
  H+  H12  1  0.11072821  0.38882439  0.67246539  1
  H+  H13  1  0.87523688  1.00886282  0.66658817  1
  H+  H14  1  0.18710527  0.59256727  0.51543967  1
  H+  H15  1  0.13854137  0.36254189  0.32086809  1
  H+  H16  1  0.60620122  0.86940288  0.66334500  1
  H+  H17  1  0.10237881  0.72409581  0.50571264  1
  H+  H18  1  0.66063970  0.57226634  0.93661070  1
  H+  H19  1  0.56553925  0.67971817  0.42749655  1
  H+  H20  1  0.10535949  0.87444026  0.49539784  1
  H+  H21  1  0.26273361  0.62155157  0.32868201  1
  H+  H22  1  0.53029369  0.63811411  0.83699949  1
  H+  H23  1  0.65007449  0.54812116  0.20944165  1
  H+  H24  1  0.10564246  -0.02541727  0.82740097  1
  H+  H25  1  0.39267293  0.61590744  -0.00093713  1
  H+  H26  1  0.75342830  0.88952946  0.16826942  1
  H+  H27  1  0.59988910  0.39826040  0.73906260  1
  H+  H28  1  0.95712729  0.73447760  0.93753014  1
  H+  H29  1  0.37215326  0.87161130  0.83688644  1
  H+  H30  1  0.21346412  0.09001026  0.51861576  1
  H+  H31  1  0.17425026  0.34364989  0.25956489  1
  H+  H32  1  0.39227793  0.77139599  0.84710564  1
  H+  H33  1  0.88520059  0.94076580  0.78313024  1
  H+  H34  1  0.02404301  0.38131616  0.04835516  1
  H+  H35  1  0.60818507  0.73382283  0.68266756  1
  H+  H36  1  0.92061630  0.57745768  0.10664103  1
  H+  H37  1  0.61106638  0.63089070  0.00867150  1
  H+  H38  1  0.66841680  0.31331635  1.05066827  1
  H+  H39  1  0.23646306  0.37497616  0.83477477  1
  H+  H40  1  0.10617842  0.99613459  0.00622954  1
  H+  H41  1  0.85379427  0.98072465  0.16540763  1
  H+  H42  1  0.01331775  0.64043382  0.01888837  1
  H+  H43  1  0.78140496  0.38217612  1.00516538  1
  H+  H44  1  0.87915065  0.09973012  0.66889747  1
  H+  H45  1  0.96560629  0.34905649  0.16633362  1
  H+  H46  1  0.97627940  0.35276641  0.83693183  1
  H+  H47  1  0.41819270  0.74078712  0.45755462  1
  H+  H48  1  0.16006665  0.14316975  0.98340959  1
  H+  H49  1  0.51986050  0.12431625  0.16413479  1
  H+  H50  1  0.72064319  0.10097935  -0.00610609  1
  H+  H51  1  0.32888748  0.91987091  0.40342150  1
  H+  H52  1  0.91367220  0.32709058  0.26794666  1
  H+  H53  1  0.37095103  0.47750136  0.00394040  1
  H+  H54  1  0.61462322  0.72232091  0.00681229  1
  H+  H55  1  0.30069760  0.67210308  0.55399626  1
  H+  H56  1  -0.02952638  0.85802161  0.67277479  1
  H+  H57  1  0.62851990  0.09322809  0.99518386  1
  H+  H58  1  0.15388914  0.03162739  0.33085843  1
  H+  H59  1  0.13441467  0.27107749  0.17019628  1
  H+  H60  1  0.40196692  0.03387666  0.66140655  1
  H+  H61  1  0.63482525  0.52887761  0.51164836  1
  H+  H62  1  0.04142223  0.96607842  0.10770725  1
  H+  H63  1  0.62322008  0.34955583  0.15611326  1
  H+  H64  1  0.48694921  0.87575365  0.48796475  1
  H+  H65  1  0.11287496  0.21577286  0.52280584  1
  H+  H66  1  -0.01811545  0.60794376  0.16204744  1
  H+  H67  1  0.36268176  -0.02996677  0.17502801  1
  H+  H68  1  0.63173908  0.35398831  1.00523763  1
  H+  H69  1  0.66120390  0.06979388  0.23920013  1
  H+  H70  1  0.96444479  0.60441726  0.50958812  1
  H+  H71  1  0.16168981  0.57828038  0.93547276  1
  H+  H72  1  0.35605161  0.11439672  0.50235962  1
  H+  H73  1  0.83661106  0.91545615  0.43213026  1
  H+  H74  1  0.61209607  0.88892286  0.82377564  1
  H+  H75  1  0.15199946  0.28471835  0.82927434  1
  H+  H76  1  0.07861724  0.16281179  0.10868319  1
  H+  H77  1  0.89322535  0.77527940  0.18113736  1
  H+  H78  1  0.38181422  0.26944932  0.69106964  1
  H+  H79  1  0.97187555  0.12409188  0.98543112  1
  H+  H80  1  0.88487812  0.86576831  1.02070696  1
  H+  H81  1  0.22584619  0.36659668  0.66574847  1
  H+  H82  1  0.90094452  0.36193317  0.00472358  1
  H+  H83  1  0.62153668  0.22099368  0.66227437  1
  H+  H84  1  0.36138744  0.88303962  0.48898633  1
  H+  H85  1  0.23127130  0.36834938  1.00794892  1
  H+  H86  1  0.77566555  0.88411934  0.34726088  1
  H+  H87  1  0.25134273  0.85343177  0.83337855  1
  H+  H88  1  0.36394423  0.48400494  0.67619648  1
  H+  H89  1  0.39785380  0.85389427  0.99098028  1
  H+  H90  1  0.62335216  0.64196394  0.50944065  1
  H+  H91  1  0.87842851  0.85288175  0.66687870  1
  H+  H92  1  0.38957402  0.85264870  0.18584380  1
  H+  H93  1  0.63272078  0.10195509  0.17997136  1
  H+  H94  1  0.47787972  0.85203446  0.65006844  1
  H+  H95  1  0.42988609  0.83476543  0.54798738  1
  H+  H96  1  0.48221383  0.35153083  0.15639358  1
  H+  H97  1  0.86340569  0.72724472  0.68539166  1
  H+  H98  1  0.36523631  0.46999573  0.49279966  1
  H+  H99  1  0.08900304  0.46063576  0.49853027  1
  H+  H100  1  0.37617457  1.02366354  0.33427588  1
  H+  H101  1  0.05796590  0.13319925  0.82542839  1
  H+  H102  1  0.70484292  0.33043516  0.32497554  1
  H+  H103  1  0.10807056  0.37685096  0.14458845  1
  H+  H104  1  0.63415072  0.65831530  0.16672928  1
  H+  H105  1  0.85678207  0.87353377  0.48912494  1
  H+  H106  1  0.92550556  0.90523968  0.03030701  1
  H+  H107  1  0.12799065  0.09775485  0.52852300  1
  H+  H108  1  0.36914401  0.38662497  -0.00071159  1
  H+  H109  1  0.66671657  0.39329028  0.31801973  1
  H+  H110  1  0.46820371  0.09430435  0.99607125  1
  H+  H111  1  0.77000868  0.37998333  0.49276621  1
  H+  H112  1  0.08277950  0.66754147  0.44508147  1
  H+  H113  1  0.08097827  0.01534279  1.01972411  1
  H+  H114  1  0.10419595  0.25089493  0.02180511  1
  H+  H115  1  0.85755124  0.70217229  0.00570331  1
  H+  H116  1  0.88838745  0.62410720  0.84319400  1
  H+  H117  1  0.25389046  0.15659741  0.98357730  1
  H+  H118  1  0.14342523  0.02796741  0.17406340  1
  H+  H119  1  0.20580847  0.85206189  0.65460228  1
  H+  H120  1  0.87468148  0.35496798  0.50865380  1
  H+  H121  1  0.35936493  0.59736298  0.31038573  1
  H+  H122  1  0.30216962  0.66943510  0.51989515  1
  H+  H123  1  0.85715007  0.24254791  0.49623204  1
  H+  H124  1  0.11840194  0.38539907  0.82115596  1
  H+  H125  1  0.27258480  0.38558107  0.49155499  1
  H+  H126  1  0.89537646  0.27127193  0.00743234  1
  H+  H127  1  0.40940756  0.37816705  0.31781142  1
  H+  H128  1  0.10372245  0.47471777  0.67522105  1
  H+  H129  1  0.41873270  0.33569803  0.74412523  1
  H+  H130  1  0.85816964  0.72641604  0.83053016  1
  H+  H131  1  0.60456556  0.44613780  0.14151865  1
  H+  H132  1  0.27759456  0.38254008  0.33353309  1
  H+  H133  1  0.02070694  0.38003972  0.34001982  1
  H+  H134  1  0.89380648  0.36554944  0.32846887  1
  H+  H135  1  0.73780860  0.62436326  0.35736330  1
  H+  H136  1  0.27500027  0.63418299  0.82853116  1
  H+  H137  1  0.87306164  0.59755306  0.00255639  1
  H+  H138  1  0.24172315  0.87202478  0.32830513  1
  H+  H139  1  0.85880314  0.63502850  0.68307774  1
  H+  H140  1  0.38566009  0.11893262  0.33215643  1
  H+  H141  1  0.11290357  0.13257132  0.67191668  1
  H+  H142  1  0.00694184  0.85656725  0.32790262  1
  H+  H143  1  0.15711746  0.77979642  0.33266699  1
  H+  H144  1  0.83143031  0.66497146  0.77118459  1
  H+  H145  1  0.63092473  0.10118920  0.33421907  1
  H+  H146  1  0.63942597  0.87168891  0.34740265  1
  H+  H147  1  0.85951402  0.46802886  0.49837200  1
  H+  H148  1  0.09997954  0.49415860  0.84035020  1
  H+  H149  1  0.37627489  0.48374341  0.83304431  1
  H+  H150  1  0.22465355  0.10694604  0.66777124  1
  H+  H151  1  0.40101506  0.89672222  0.67563793  1
  H+  H152  1  0.76210937  0.11944225  0.66611607  1
  H+  H153  1  -0.02694900  0.10561551  0.17814681  1
  H+  H154  1  0.38959530  0.27150234  -0.01017927  1
  H+  H155  1  0.85493964  0.21288737  0.16194679  1
  H+  H156  1  0.62816500  0.00450829  0.64940544  1
  H+  H157  1  0.66861155  0.32869254  0.56432553  1
  H+  H158  1  0.61855991  0.37112294  0.83922024  1
  H+  H159  1  0.35911623  -0.03007220  0.49695986  1
  H+  H160  1  0.76084527  0.37088229  0.15522209  1
  H+  H161  1  0.77013313  0.13379299  0.34327863  1
  H+  H162  1  0.74834418  0.90460652  0.01326851  1
  H+  H163  1  0.85611426  0.13240818  1.00472308  1
  H+  H164  1  0.36031818  0.71780866  0.16601688  1
  H+  H165  1  0.37163528  0.25191185  0.47777134  1
  H+  H166  1  0.59431230  0.20816400  0.33192976  1
  H+  H167  1  0.78278501  0.64618744  0.17417972  1
  H+  H168  1  0.35001965  0.98917416  0.01712799  1
  H+  H169  1  0.72854912  0.86434611  0.83990634  1
  H+  H170  1  0.38261514  0.77058484  0.65177710  1
  H+  H171  1  0.53374719  0.37764407  0.83373532  1
  H+  H172  1  0.83937859  0.99497059  0.01140669  1
  H+  H173  1  0.36185198  0.37520794  0.15251433  1
  H+  H174  1  0.88672706  0.51577575  0.99702246  1
  H+  H175  1  0.88240605  0.49283914  0.81643294  1
  H+  H176  1  0.24149838  0.85568675  0.18295253  1
  H+  H177  1  0.61673734  0.63282252  0.83435265  1
  H+  H178  1  0.30719204  0.11836458  0.44397437  1
  H+  H179  1  0.97115142  0.60992966  0.66157876  1
  H+  H180  1  0.65460079  0.63530222  0.35559192  1
  H+  H181  1  0.14478577  0.11472673  0.31535719  1
  H+  H182  1  0.88529986  0.11034521  0.33144277  1
  H+  H183  1  0.61117924  0.22831380  0.49435337  1
  H+  H184  1  0.63278155  0.49474418  0.34254661  1
  H+  H185  1  0.26497501  0.63625730  0.67599433  1
  H+  H186  1  0.11666537  0.85132403  1.01389243  1
  H+  H187  1  1.01848930  0.82070250  1.01118434  1
  H+  H188  1  0.63810254  0.01715664  0.34607088  1
  H+  H189  1  0.09986175  0.62939416  0.82583856  1
  H+  H190  1  0.35317594  0.90762845  0.77339648  1
  H+  H191  1  0.61941110  0.17726724  0.85327257  1
  H+  H192  1  0.34675718  0.66578319  0.37346727  1
  H+  H193  1  0.51351611  0.86959575  1.00535890  1
  H+  H194  1  0.95511564  0.75315042  0.30753920  1
  H+  H195  1  0.87655353  0.34770626  0.17011472  1
  H+  H196  1  0.04571231  0.51947072  0.88226429  1
  H+  H197  1  0.72895052  0.62433313  0.66452836  1
  H+  H198  1  0.62968611  0.78970751  0.60671647  1
  H+  H199  1  0.57656514  0.90430093  0.72315985  1
  H+  H200  1  0.64207914  0.62733261  0.66181198  1
  H+  H201  1  0.15165188  0.38042947  1.02552764  1
  H+  H202  1  0.10358749  -0.03739219  0.49783981  1
  H+  H203  1  1.00753318  0.36836476  0.49312234  1
  H+  H204  1  0.33420060  0.40683340  0.09299252  1
  H+  H205  1  0.38715948  0.09837150  0.84603105  1
  H+  H206  1  0.36803680  0.50428490  0.16422075  1
  H+  H207  1  0.53212734  0.37035025  0.68686312  1
  H+  H208  1  0.13270147  0.35825185  0.50895623  1
  H+  H209  1  0.14582202  0.76155797  0.83413095  1
  H+  H210  1  0.62499948  0.89903205  0.46197790  1
  H+  H211  1  0.01584473  0.21037319  0.05572538  1
  H+  H212  1  0.85579304  0.12404900  0.83239263  1
  H+  H213  1  0.58563798  0.73745237  0.36772828  1
  H+  H214  1  0.14680763  0.75911832  0.18438971  1
  H+  H215  1  0.63616967  0.02761554  0.48287826  1
  H+  H216  1  0.42024596  0.32829906  0.89539717  1
  H+  H217  1  0.61085639  0.12766716  0.66082883  1
  H+  H218  1  0.92339797  0.33079100  0.89855055  1
  H+  H219  1  0.74725402  0.13910195  0.82681063  1
  H+  H220  1  0.34041661  0.16526132  0.06636539  1
  H+  H221  1  0.13839687  0.57528112  0.00450401  1
  H+  H222  1  0.86489262  -0.00236145  0.82653439  1
  H+  H223  1  0.14074496  0.64596050  0.34739002  1
  H+  H224  1  0.82299255  0.43789465  0.33729759  1
  H+  H225  1  0.23748917  0.85968486  0.99445756  1
  H+  H226  1  0.71473295  0.59822376  0.99845671  1
  H+  H227  1  0.07210193  0.89989652  0.09955200  1
  H+  H228  1  0.36772690  0.13764405  0.67258462  1
  H+  H229  1  0.40278615  0.61296809  0.50067739  1
  H+  H230  1  0.28469759  0.12921916  0.82756365  1
  H+  H231  1  0.88996092  0.01392106  0.51243827  1
  H+  H232  1  0.59943271  0.19997233  0.00802591  1
  H+  H233  1  -0.03585899  0.84559790  0.49107761  1
  H+  H234  1  0.37220504  0.33999165  0.46412206  1
  H+  H235  1  0.97577245  0.86994946  0.84102177  1
  H+  H236  1  0.47542118  0.11016052  0.50716202  1
  H+  H237  1  0.60591240  0.95860086  0.00920406  1
  H+  H238  1  0.60711244  -0.03290586  0.16216905  1
  H+  H239  1  0.47541364  0.62147142  0.66819412  1
  H+  H240  1  0.62383918  0.73449206  0.50837629  1
  H+  H241  1  0.36900944  0.50651286  0.31695246  1
  H+  H242  1  0.37360034  0.90208707  0.34514194  1
  H+  H243  1  0.49113221  0.88694152  0.34740837  1
  H+  H244  1  0.13802687  0.27592623  0.66235931  1
  H+  H245  1  0.51837849  0.37463983  0.47358927  1
  H+  H246  1  0.64496211  0.78091209  0.17878270  1
  H+  H247  1  0.12399515  0.51370133  0.32649570  1
  H+  H248  1  0.36775729  0.59528568  0.16628185  1
  H+  H249  1  0.62282456  0.02633404  0.83747986  1
  H+  H250  1  -0.02328021  0.86946943  0.17747113  1
  H+  H251  1  0.88403516  0.25257134  0.65318796  1
  H+  H252  1  0.28542527  0.15917815  0.34084943  1
  H+  H253  1  0.35550703  0.63718276  0.67575070  1
  H+  H254  1  0.28950299  0.64567373  1.00650970  1
  H+  H255  1  0.74649098  0.86850595  0.65920448  1
  H+  H256  1  0.87678399  0.76032330  0.47808436  1
  H+  H257  1  0.11605417  0.13498960  0.16638807  1
  H+  H258  1  0.02262236  0.12486533  0.52648241  1
  H+  H259  1  0.11989050  0.62859742  0.16732831  1
  H+  H260  1  0.87272889  0.59428109  0.50270321  1
  H+  H261  1  0.47913939  0.35787018  0.98737526  1
  H+  H262  1  0.39519298  0.36554224  0.83854190  1
  H+  H263  1  0.12965586  0.89363196  0.34476721  1
  H+  H264  1  0.72701321  0.60750568  0.84371249  1
  H+  H265  1  0.86376546  -0.02827963  0.34341304  1
  H+  H266  1  0.36258070  0.39369820  0.68664463  1
  H+  H267  1  0.41407130  0.29340971  0.31442649  1
  H+  H268  1  0.52142678  0.88300261  0.82740105  1
  H+  H269  1  0.28087342  0.13462692  0.16061174  1
  H+  H270  1  0.87717148  0.40278776  0.81482799  1
  H+  H271  1  0.63503112  0.35881301  0.50542203  1
  H+  H272  1  0.48064406  0.61360688  0.99868887  1
  H+  H273  1  0.74013991  0.36424514  0.64674756  1
  H+  H274  1  0.37138333  0.22246574  0.15841067  1
  H+  H275  1  0.02620919  0.13108006  0.31475560  1
  H+  H276  1  0.20167972  0.71841141  0.39228723  1
  H+  H277  1  0.21210184  0.84998117  0.51399680  1
  H+  H278  1  0.62251413  0.85050328  0.99498375  1
  H+  H279  1  0.91353089  0.63827643  0.34315204  1
  H+  H280  1  0.73853905  0.87728551  0.49554704  1
  H+  H281  1  0.62966900  0.11229208  0.49785194  1
  H+  H282  1  0.36713304  0.13407867  0.00574118  1
  H+  H283  1  0.13550443  0.51577446  0.16557092  1
  H+  H284  1  0.38003784  0.73420160  1.00557252  1
  H+  H285  1  0.54829505  0.40427228  0.33070634  1
  H+  H286  1  0.48875049  0.12268761  0.65506639  1
  H+  H287  1  0.39323307  0.61594524  0.84433020  1
  H+  H288  1  0.15345616  0.57099507  0.26509406  1
  H+  H289  1  0.60079494  0.67924934  0.10512530  1
  H+  H290  1  0.46039154  0.37269383  0.58745075  1
  H+  H291  1  0.67029576  0.30588263  0.91136913  1
  H+  H292  1  0.16250578  0.11820435  0.82730055  1
  H+  H293  1  0.41974013  0.08044054  0.56898615  1
  H+  H294  1  0.80628063  0.93439806  0.09905445  1
  H+  H295  1  0.35715818  0.22815605  0.38843309  1
  H+  H296  1  0.57291377  0.14372696  0.06849836  1
  H+  H297  1  0.33707922  0.15495620  0.73665559  1
  H+  H298  1  0.41788533  0.58979892  0.60700125  1
  H+  H299  1  0.83485010  0.40876072  0.06608888  1
  H+  H300  1  0.15077264  0.82267170  0.57699252  1
  H+  H301  1  0.40646055  0.06516949  0.93562992  1
  H+  H302  1  0.60852719  0.46142000  0.00358875  1
  H+  H303  1  0.69148001  0.61977605  0.25806602  1
  H+  H304  1  0.14847138  0.57628086  0.61002638  1
  H+  H305  1  0.76719046  0.12246967  0.16526432  1
  H+  H306  1  0.33524824  0.66944676  0.10079620  1
  H+  H307  1  0.32925497  0.66517859  0.76732667  1
  H+  H308  1  0.82722104  0.17377835  0.42995906  1
  H+  H309  1  0.60784399  0.21417925  0.15898529  1
  H+  H310  1  0.64172895  0.51507873  0.84464686  1
  H+  H311  1  0.47643614  0.85122297  0.18185554  1
  H+  H312  1  0.90668637  0.07644122  0.27057410  1
  H+  H313  1  0.66230342  0.83079849  0.93504113  1
  H+  H314  1  0.22589332  0.60472488  0.16973209  1
  H+  H315  1  0.18836931  0.10260173  0.89204657  1
  H+  H316  1  0.47481443  0.41672473  0.57503949  1
  H+  H317  1  0.63435495  0.86472139  0.17991700  1
  H+  H318  1  0.82343830  0.66161591  0.07242162  1
  H+  H319  1  0.10525801  0.87486414  0.67319623  1
  H+  H320  1  0.65928787  0.06569263  0.59036781  1
  H+  H321  1  0.07913971  0.41169770  0.76318144  1
  H+  H322  1  0.05753048  0.73380427  0.04697085  1
  H+  H323  1  0.59719732  0.42100061  0.43077384  1
  H+  H324  1  0.90314628  0.57394212  0.60768154  1
  H+  H325  1  0.17883513  0.82622341  0.24855333  1
  H+  H326  1  0.91795794  0.58952891  0.90153471  1
  H+  H327  1  0.65894316  0.83649472  0.28547520  1
  H+  H328  1  0.85269674  0.44314877  0.70650993  1
  H+  H329  1  0.79218379  0.89382478  0.72289660  1
  H+  H330  1  0.48414023  0.61037924  0.51963272  1
  H+  H331  1  0.38594954  0.10541224  0.17537738  1
  H+  H332  1  0.41273930  0.07890279  0.23787611  1
  H+  H333  1  0.16229759  0.06979294  0.60973172  1
  H+  H334  1  0.50756497  0.12271808  0.34082616  1
  H+  H335  1  0.88615814  0.86698284  0.85907513  1
  H+  H336  1  0.42446591  0.82817325  0.91159008  1
  H+  H337  1  0.38035544  0.00581745  0.84804571  1
  H+  H338  1  0.93040978  0.80342407  0.92362894  1
  H+  H339  1  0.67908855  0.87393469  0.55069760  1
  H+  H340  1  0.57699837  0.16733878  0.43476862  1
  H+  H341  1  0.91277801  0.09647840  0.92449292  1
  H+  H342  1  0.75907367  0.14014955  0.48881277  1
  H+  H343  1  0.57595346  0.90471451  0.10305548  1
  H+  H344  1  0.37331465  0.21882354  0.82740455  1
  H+  H345  1  0.34288376  0.42877233  0.77161249  1
  H+  H346  1  0.09625331  0.16702146  0.75815059  1
  H+  H347  1  0.26761062  0.95929478  0.05764974  1
  H+  H348  1  0.88412254  0.10826919  0.17453967  1
  H+  H349  1  0.64590501  0.35138184  0.65768209  1
  H+  H350  1  0.09061863  0.91618462  0.40381715  1
  H+  H351  1  0.07302085  0.19698927  0.41800865  1
  H+  H352  1  0.43431176  0.84952958  0.28588596  1
  H+  H353  1  0.02552968  0.16667025  0.41948385  1
  H+  H354  1  0.64233873  0.77318706  0.84125537  1
  H+  H355  1  0.57459134  0.39482764  0.06245491  1
  H+  H356  1  0.15735131  0.76275462  0.98892569  1
  H+  H357  1  0.38856390  0.55857628  0.24490790  1
  H+  H358  1  0.42138462  0.58802282  0.90596358  1
  H+  H359  1  0.93057289  0.62866460  0.27507958  1
  H+  H360  1  0.85167661  0.42447775  0.40288993  1
  H+  H361  1  0.65504742  0.07567372  0.90056154  1
  H+  H362  1  0.66580278  0.33353568  0.21818607  1
  H+  H363  1  0.67108142  0.59070010  0.56979376  1
  H+  H364  1  0.85289676  0.45864251  0.15739811  1
  H+  H365  1  0.90633557  0.31545144  0.56728258  1
  H+  H366  1  0.18744545  0.82239299  0.89686568  1
  H+  H367  1  0.81198886  0.15581477  0.72896533  1
  H+  H368  1  0.07045202  0.91193632  0.76929254  1
  H+  H369  1  0.97061731  0.34591013  0.65343985  1
  H+  H370  1  0.02212587  0.13024772  0.67547990  1
  H+  H371  1  0.07834045  0.41044169  0.40007278  1
  H+  H372  1  0.02438437  0.65018179  0.82834023  1
  H+  H373  1  0.58228165  0.67044710  0.74100073  1
  H+  H374  1  0.86696535  0.63957688  0.15874852  1
  H+  H375  1  0.08102187  0.67501177  0.72676585  1
  H+  H376  1  0.91025082  0.06674986  0.57416561  1
  H+  H377  1  0.09038232  0.66938755  0.11259889  1
  H+  H378  1  0.17947897  0.08460882  0.23510188  1
  H+  H379  1  0.84071450  0.22766453  0.82418624  1
  H+  H380  1  0.43118361  0.33834814  0.21949004  1
  H+  H381  1  0.33587618  0.41577156  0.39352703  1
  H+  H382  1  0.10825640  0.73348216  0.66471754  1
  H+  H383  1  0.32983015  0.91383424  0.11490499  1
  O2-  O384  1  0.07999211  0.16030167  0.15380879  1
  O2-  O385  1  0.08720092  0.15387267  0.53069670  1
  O2-  O386  1  0.11013010  0.17277716  0.80388708  1
  O2-  O387  1  0.07269063  0.40476550  0.13297378  1
  O2-  O388  1  0.06873702  0.40306559  0.47992610  1
  O2-  O389  1  0.07974387  0.40960735  0.80904053  1
  O2-  O390  1  0.09260592  0.66521668  0.15802277  1
  O2-  O391  1  0.07063486  0.66219474  0.48910540  1
  O2-  O392  1  0.08460908  0.67303907  0.81226973  1
  O2-  O393  1  0.06353809  0.93516776  0.13112765  1
  O2-  O394  1  0.07900248  0.90625231  0.47571762  1
  O2-  O395  1  0.06321674  0.91551998  0.81434212  1
  O2-  O396  1  0.34098722  0.16030251  0.14513376  1
  O2-  O397  1  0.31762324  0.13658773  0.48643417  1
  O2-  O398  1  0.34607760  0.15837828  0.81292405  1
  O2-  O399  1  0.32781618  0.40216964  0.13853515  1
  O2-  O400  1  0.33140767  0.41277348  0.47311024  1
  O2-  O401  1  0.34706543  0.42377917  0.81663497  1
  O2-  O402  1  0.32629502  0.66040128  0.14609858  1
  O2-  O403  1  0.40590279  0.68627978  0.43836006  1
  O2-  O404  1  0.33359185  0.66447740  0.81315995  1
  O2-  O405  1  0.33233489  0.90848092  0.15988125  1
  O2-  O406  1  0.32669949  0.91093662  0.47928423  1
  O2-  O407  1  0.33765961  0.89795042  0.81753480  1
  O2-  O408  1  0.57915087  0.15193646  0.14700159  1
  O2-  O409  1  0.57859995  0.16626500  0.47981783  1
  O2-  O410  1  0.59115888  0.21153542  0.86156617  1
  O2-  O411  1  0.57430183  0.38600730  0.12976715  1
  O2-  O412  1  0.58175254  0.41042580  0.47446706  1
  O2-  O413  1  0.59596020  0.40730449  0.82323385  1
  O2-  O414  1  0.60766781  0.68999551  0.14970027  1
  O2-  O415  1  0.58862190  0.67224894  0.50045569  1
  O2-  O416  1  0.59053205  0.66787397  0.82126604  1
  O2-  O417  1  0.57724664  0.90593824  0.14888102  1
  O2-  O418  1  0.59196139  0.92768952  0.44822965  1
  O2-  O419  1  0.57935873  0.91569542  0.80772881  1
  O2-  O420  1  0.82653325  0.15190515  0.14765103  1
  O2-  O421  1  0.82194647  0.17596969  0.47608842  1
  O2-  O422  1  0.80728726  0.16731596  0.80899222  1
  O2-  O423  1  0.82359432  0.39874967  0.14266375  1
  O2-  O424  1  0.83192913  0.40852108  0.48042343  1
  O2-  O425  1  0.86019904  0.43944593  0.79288047  1
  O2-  O426  1  0.83816182  0.67367995  0.15112879  1
  O2-  O427  1  0.83235780  0.64507920  0.44667427  1
  O2-  O428  1  0.83115983  0.66530569  0.81823287  1
  O2-  O429  1  0.81425283  0.92275179  0.14544644  1
  O2-  O430  1  0.83236660  0.91170797  0.47828452  1
  O2-  O431  1  0.84743794  0.93666839  0.81643517  1
  O2-  O432  1  0.17721524  0.08739680  0.18942264  1
  O2-  O433  1  0.15397930  0.05855342  0.53444714  1
  O2-  O434  1  0.18323647  0.08313326  0.84855371  1
  O2-  O435  1  0.16384998  0.33443763  0.17701116  1
  O2-  O436  1  0.17016652  0.33602968  0.52381044  1
  O2-  O437  1  0.17362953  0.34436071  0.84260666  1
  O2-  O438  1  0.16438829  0.57319687  0.18488349  1
  O2-  O439  1  0.12791450  0.56242436  0.52993019  1
  O2-  O440  1  0.10291857  0.54511469  0.86436405  1
  O2-  O441  1  0.17907023  0.82147443  0.19974985  1
  O2-  O442  1  0.15156535  0.82029900  0.52720676  1
  O2-  O443  1  0.18645066  0.82334097  0.85068658  1
  O2-  O444  1  0.41361159  0.07318912  0.19271342  1
  O2-  O445  1  0.41534129  0.07592641  0.52309187  1
  O2-  O446  1  0.40814528  0.06322977  0.86694304  1
  O2-  O447  1  0.42173381  0.32711880  0.17515149  1
  O2-  O448  1  0.39907802  0.30503980  0.45287008  1
  O2-  O449  1  0.42239643  0.33041325  0.84960716  1
  O2-  O450  1  0.39380012  0.56222666  0.18360753  1
  O2-  O451  1  0.42040267  0.57952070  0.52699874  1
  O2-  O452  1  0.42440537  0.58754575  0.86019324  1
  O2-  O453  1  0.41782266  0.82100488  0.20059327  1
  O2-  O454  1  0.42764351  0.83840503  0.50304501  1
  O2-  O455  1  0.42195219  0.83121789  0.86230979  1
  O2-  O456  1  0.66317315  0.07135819  0.19390630  1
  O2-  O457  1  0.66229312  0.08168934  0.50741079  1
  O2-  O458  1  0.65144491  0.08474158  0.85594294  1
  O2-  O459  1  0.65954258  0.32189781  0.17391452  1
  O2-  O460  1  0.66525482  0.32738881  0.51778985  1
  O2-  O461  1  0.66350663  0.30002008  0.86703191  1
  O2-  O462  1  0.68857688  0.60974142  0.21297713  1
  O2-  O463  1  0.66679167  0.58944478  0.52394557  1
  O2-  O464  1  0.66658356  0.57554058  0.85936421  1
  O2-  O465  1  0.67108135  0.84168870  0.19644527  1
  O2-  O466  1  0.67541832  0.85627601  0.50810625  1
  O2-  O467  1  0.66898969  0.83485390  0.85452641  1
  O2-  O468  1  0.91126352  0.07506267  0.19063056  1
  O2-  O469  1  0.91852295  0.07297014  0.52966430  1
  O2-  O470  1  0.89786562  0.10258801  0.84439378  1
  O2-  O471  1  0.90806717  0.31878807  0.18546662  1
  O2-  O472  1  0.90184283  0.31890215  0.51943712  1
  O2-  O473  1  0.91694644  0.32825909  0.85410582  1
  O2-  O474  1  0.91927564  0.57872102  0.15108519  1
  O2-  O475  1  0.90371963  0.56925024  0.52352324  1
  O2-  O476  1  0.92663713  0.60101710  0.85747110  1
  O2-  O477  1  0.92452150  0.83231842  0.20190909  1
  O2-  O478  1  0.90188147  0.81507757  0.49993650  1
  O2-  O479  1  0.91608733  0.83403549  0.86223906  1
  O2-  O480  1  0.18492007  0.08994562  0.31265270  1
  O2-  O481  1  0.16313222  0.07683101  0.65529331  1
  O2-  O482  1  0.20848666  0.15629414  0.95721811  1
  O2-  O483  1  0.17407775  0.33875528  0.30462930  1
  O2-  O484  1  0.16624652  0.33680845  0.64881145  1
  O2-  O485  1  0.16783031  0.34270274  1.00391217  1
  O2-  O486  1  0.15323740  0.57405553  0.31026711  1
  O2-  O487  1  0.15753448  0.58265446  0.65468252  1
  O2-  O488  1  0.18554892  0.60316264  0.97581884  1
  O2-  O489  1  0.17987311  0.83703379  0.31195106  1
  O2-  O490  1  0.14666411  0.82239027  0.64046036  1
  O2-  O491  1  0.18635153  0.81980190  0.96919868  1
  O2-  O492  1  0.40998807  0.08357462  0.31671989  1
  O2-  O493  1  0.42456184  0.09121357  0.64288661  1
  O2-  O494  1  0.40716654  0.06939118  0.98271230  1
  O2-  O495  1  0.44437334  0.35411164  0.30076700  1
  O2-  O496  1  0.41231582  0.33292254  0.69997674  1
  O2-  O497  1  0.41830934  0.33045124  0.97208203  1
  O2-  O498  1  0.38878468  0.56244076  0.29455563  1
  O2-  O499  1  0.41452414  0.59015029  0.65234159  1
  O2-  O500  1  0.42059496  0.58371816  0.98215490  1
  O2-  O501  1  0.43420905  0.86878092  0.32785271  1
  O2-  O502  1  0.41740017  0.82905909  0.63392030  1
  O2-  O503  1  0.42719364  0.82454240  0.97585154  1
  O2-  O504  1  0.66442331  0.07348479  0.32222116  1
  O2-  O505  1  0.65986184  0.06588400  0.63538669  1
  O2-  O506  1  0.66088957  0.06642708  0.97805929  1
  O2-  O507  1  0.70144347  0.37067023  0.29714378  1
  O2-  O508  1  0.67745979  0.32593506  0.63604937  1
  O2-  O509  1  0.66531532  0.32100688  1.00696017  1
  O2-  O510  1  0.68345617  0.60900549  0.33442268  1
  O2-  O511  1  0.67253929  0.59984937  0.64375095  1
  O2-  O512  1  0.65519059  0.56886214  0.98216530  1
  O2-  O513  1  0.66293815  0.83565979  0.33018026  1
  O2-  O514  1  0.65215411  0.82507205  0.64296133  1
  O2-  O515  1  0.65985917  0.82665962  0.98024452  1
  O2-  O516  1  0.91363246  0.07904323  0.31547133  1
  O2-  O517  1  0.91302269  0.07137448  0.65805159  1
  O2-  O518  1  0.91254600  0.08900968  0.96921060  1
  O2-  O519  1  0.91555009  0.32690660  0.31306518  1
  O2-  O520  1  0.91636015  0.30829536  0.63157602  1
  O2-  O521  1  0.93523739  0.33316993  0.99790128  1
  O2-  O522  1  0.95650499  0.66575237  0.31020037  1
  O2-  O523  1  0.90840373  0.58228587  0.65236166  1
  O2-  O524  1  0.91371767  0.57876256  0.98746128  1
  O2-  O525  1  0.95236871  0.80861264  0.30737272  1
  O2-  O526  1  0.90941566  0.82127817  0.66062975  1
  O2-  O527  1  0.94221504  0.77283962  0.95884416  1
  O2-  O528  1  0.05356268  0.19251034  0.03693693  1
  O2-  O529  1  0.08825265  0.15746838  0.30489375  1
  O2-  O530  1  0.08384226  0.16420601  0.68792559  1
  O2-  O531  1  0.08329208  0.41643795  0.06653044  1
  O2-  O532  1  0.08147403  0.41286114  0.35460790  1
  O2-  O533  1  0.07507104  0.41307244  0.68795304  1
  O2-  O534  1  0.06663077  0.68397945  0.04051724  1
  O2-  O535  1  0.14556739  0.69506882  0.37290912  1
  O2-  O536  1  0.08033312  0.67027573  0.68213209  1
  O2-  O537  1  0.06679810  0.83576604  0.04069996  1
  O2-  O538  1  0.09511058  0.92011746  0.35727907  1
  O2-  O539  1  0.07882074  0.90731589  0.69361459  1
  O2-  O540  1  0.34165657  0.16883948  0.02099407  1
  O2-  O541  1  0.34773805  0.19026756  0.35282747  1
  O2-  O542  1  0.33328684  0.16127371  0.69149283  1
  O2-  O543  1  0.34012206  0.41621524  0.01784469  1
  O2-  O544  1  0.33853395  0.41397258  0.34808031  1
  O2-  O545  1  0.33015932  0.42462447  0.69342996  1
  O2-  O546  1  0.34776776  0.67335931  0.02472236  1
  O2-  O547  1  0.32625696  0.65070292  0.33052540  1
  O2-  O548  1  0.32590696  0.66835336  0.69089091  1
  O2-  O549  1  0.30416312  0.93741134  0.04278171  1
  O2-  O550  1  0.33225844  0.92362903  0.35757496  1
  O2-  O551  1  0.40201714  0.94210276  0.70370664  1
  O2-  O552  1  0.57048308  0.14009376  0.02290676  1
  O2-  O553  1  0.57006254  0.15406175  0.35395409  1
  O2-  O554  1  0.58327450  0.16021295  0.67536688  1
  O2-  O555  1  0.57876461  0.39920667  0.01470348  1
  O2-  O556  1  0.60749981  0.43184970  0.34827206  1
  O2-  O557  1  0.59282533  0.38951822  0.69468403  1
  O2-  O558  1  0.58420032  0.66357504  0.02524943  1
  O2-  O559  1  0.54110845  0.68454580  0.38787901  1
  O2-  O560  1  0.57656057  0.67146212  0.69606743  1
  O2-  O561  1  0.57459797  0.89924910  0.02565817  1
  O2-  O562  1  0.59105132  0.92306510  0.37994538  1
  O2-  O563  1  0.57467036  0.90261943  0.67805555  1
  O2-  O564  1  0.82650507  0.16164431  0.02276908  1
  O2-  O565  1  0.83088494  0.16580969  0.35844635  1
  O2-  O566  1  0.82057834  0.14996090  0.68499117  1
  O2-  O567  1  0.84136567  0.41395732  0.02059156  1
  O2-  O568  1  0.86869889  0.43452580  0.35901474  1
  O2-  O569  1  0.84522090  0.43359658  0.66180789  1
  O2-  O570  1  0.81911806  0.64812819  0.02804359  1
  O2-  O571  1  0.82304721  0.62584925  0.38893826  1
  O2-  O572  1  0.83062032  0.66555755  0.70120935  1
  O2-  O573  1  0.79379297  0.95264148  0.03825489  1
  O2-  O574  1  0.83694151  0.91223683  0.35925978  1
  O2-  O575  1  0.80715642  0.89974480  0.67991197  1
