# generated using pymatgen
data_H2O
_symmetry_space_group_name_H-M   'P 1'
_cell_length_a   17.98077671
_cell_length_b   17.98167439
_cell_length_c   21.99699948
_cell_angle_alpha   89.99996222
_cell_angle_beta   90.02909411
_cell_angle_gamma   120.00249208
_symmetry_Int_Tables_number   1
_chemical_formula_structural   H2O
_chemical_formula_sum   'H384 O192'
_cell_volume   6159.16263918
_cell_formula_units_Z   192
loop_
 _symmetry_equiv_pos_site_id
 _symmetry_equiv_pos_as_xyz
  1  'x, y, z'
loop_
 _atom_type_symbol
 _atom_type_oxidation_number
  H+  1.0
  O2-  -2.0
loop_
 _atom_site_type_symbol
 _atom_site_label
 _atom_site_symmetry_multiplicity
 _atom_site_fract_x
 _atom_site_fract_y
 _atom_site_fract_z
 _atom_site_occupancy
  H+  H0  1  0.98429565  0.10319948  0.65879818  1
  H+  H1  1  0.34673816  0.19588506  0.83421659  1
  H+  H2  1  0.87349768  0.65824058  0.34777929  1
  H+  H3  1  0.02670765  0.38898184  0.34440356  1
  H+  H4  1  0.11440891  0.88711446  0.00625246  1
  H+  H5  1  0.86247252  0.88876732  0.00928938  1
  H+  H6  1  0.44804842  0.34230649  0.52286592  1
  H+  H7  1  0.97162529  0.85549931  0.66070393  1
  H+  H8  1  0.20885719  0.08729983  0.32177104  1
  H+  H9  1  0.63162345  0.02046270  0.99525843  1
  H+  H10  1  0.88357960  0.12234675  0.82979874  1
  H+  H11  1  0.03007751  0.08128181  0.12500867  1
  H+  H12  1  0.65569282  0.03940825  0.65929483  1
  H+  H13  1  0.62368198  0.89092469  0.48583471  1
  H+  H14  1  1.02681255  0.14325770  0.33572196  1
  H+  H15  1  0.39535608  0.31116378  0.32307725  1
  H+  H16  1  0.88474379  0.86124606  0.66141509  1
  H+  H17  1  0.10419516  0.63257019  0.83420780  1
  H+  H18  1  0.10321122  0.36887654  0.67559432  1
  H+  H19  1  0.85112003  0.11886132  0.00368439  1
  H+  H20  1  0.88822001  0.77905420  0.84254295  1
  H+  H21  1  0.27061334  0.14288713  0.16334436  1
  H+  H22  1  0.63289158  0.65130273  1.02285797  1
  H+  H23  1  0.37375828  0.76983208  0.52234687  1
  H+  H24  1  0.39282528  0.87274517  0.17361834  1
  H+  H25  1  0.71571237  0.35576297  0.17576006  1
  H+  H26  1  0.63605557  0.77840429  0.65796845  1
  H+  H27  1  0.27164970  0.68729395  0.13472361  1
  H+  H28  1  0.11592741  -0.02191981  0.15995377  1
  H+  H29  1  0.60871412  0.88561019  0.00370737  1
  H+  H30  1  0.86907506  0.38799199  0.82964280  1
  H+  H31  1  0.36606430  0.74284530  0.15843704  1
  H+  H32  1  0.79541051  0.52627209  0.23572593  1
  H+  H33  1  0.65009373  0.49453089  0.81702091  1
  H+  H34  1  0.38894304  0.08533240  0.32836719  1
  H+  H35  1  0.86911486  0.22662563  0.33974883  1
  H+  H36  1  0.10573056  0.46033006  0.16872242  1
  H+  H37  1  0.46943319  0.10990874  0.98989001  1
  H+  H38  1  0.35969605  0.39071361  0.16120790  1
  H+  H39  1  0.11067743  0.22642832  0.50868036  1
  H+  H40  1  0.10867563  0.12155616  0.66902879  1
  H+  H41  1  0.62537051  0.36199152  -0.01531256  1
  H+  H42  1  0.48816880  0.35972687  0.86930635  1
  H+  H43  1  0.01683786  0.88179217  0.34019718  1
  H+  H44  1  0.86727939  -0.02114612  1.00843878  1
  H+  H45  1  0.64373582  0.62771975  0.50796253  1
  H+  H46  1  0.58315563  0.91434402  0.76491600  1
  H+  H47  1  0.48179623  0.87156078  0.17023088  1
  H+  H48  1  0.38045528  0.10994302  0.99169454  1
  H+  H49  1  0.85771675  0.49871439  1.01264704  1
  H+  H50  1  0.79074672  0.18443885  0.78774752  1
  H+  H51  1  0.35375358  0.63678957  0.49639384  1
  H+  H52  1  0.77329917  0.89280852  0.34112205  1
  H+  H53  1  0.89026758  0.53312085  0.84604734  1
  H+  H54  1  0.64180221  0.52297888  0.16081570  1
  H+  H55  1  0.84884696  0.49796494  0.19460610  1
  H+  H56  1  0.73283290  0.11728609  0.50153243  1
  H+  H57  1  0.47726911  0.12163705  0.66026870  1
  H+  H58  1  0.02123111  0.88334975  0.82387135  1
  H+  H59  1  0.39724206  0.21272800  0.45395826  1
  H+  H60  1  0.62131252  0.13083141  0.33601325  1
  H+  H61  1  0.12149931  0.14496518  1.00895954  1
  H+  H62  1  0.76768767  0.13136757  0.16124252  1
  H+  H63  1  0.13079496  0.11428369  0.51429713  1
  H+  H64  1  0.14905350  0.36444940  -0.00385554  1
  H+  H65  1  0.13412523  0.11442502  0.16690383  1
  H+  H66  1  0.20632858  0.83600159  0.50753025  1
  H+  H67  1  0.62855237  0.98555578  0.48819371  1
  H+  H68  1  0.47385968  0.36474847  0.66611049  1
  H+  H69  1  0.37267848  0.61640059  0.32368975  1
  H+  H70  1  0.36027953  0.11435930  0.81688703  1
  H+  H71  1  0.87973949  0.26821773  0.16697917  1
  H+  H72  1  0.10940826  0.13451135  0.33160238  1
  H+  H73  1  0.51944750  0.88603991  0.00269248  1
  H+  H74  1  0.62885266  -0.00793659  0.34158635  1
  H+  H75  1  0.26901735  0.38590045  0.67643519  1
  H+  H76  1  0.02096078  0.13617372  0.81931322  1
  H+  H77  1  0.46894473  0.86003199  0.83335707  1
  H+  H78  1  0.67828837  0.34286213  0.89900587  1
  H+  H79  1  0.95554369  0.59190410  0.35803806  1
  H+  H80  1  0.47292090  0.38022474  0.84590938  1
  H+  H81  1  0.52073843  0.64110148  0.67196139  1
  H+  H82  1  0.19131847  0.54061529  0.60287512  1
  H+  H83  1  0.59662817  0.20537122  0.82418910  1
  H+  H84  1  0.98257314  0.61864581  1.00083226  1
  H+  H85  1  0.89171819  0.87102494  0.17288356  1
  H+  H86  1  0.16661940  0.73804892  0.15585554  1
  H+  H87  1  0.40261988  0.87002598  0.32888015  1
  H+  H88  1  0.36920761  0.41162604  0.33771680  1
  H+  H89  1  0.62413279  0.25623120  0.32682510  1
  H+  H90  1  0.37031421  0.13497325  0.50135149  1
  H+  H91  1  0.34125493  0.17244922  0.34143898  1
  H+  H92  1  0.97124502  0.35588107  0.16666771  1
  H+  H93  1  0.63002925  0.50723858  0.48928442  1
  H+  H94  1  0.61652749  0.63954012  0.82190224  1
  H+  H95  1  0.64647774  0.11660086  0.17183474  1
  H+  H96  1  0.22917060  0.61532983  0.99147777  1
  H+  H97  1  0.97549236  0.12014057  0.17326282  1
  H+  H98  1  -0.01162972  0.61952813  0.14943315  1
  H+  H99  1  0.13463817  0.26481733  0.65774024  1
  H+  H100  1  0.87887620  0.02219594  0.50984537  1
  H+  H101  1  0.90055105  0.63748011  0.50030844  1
  H+  H102  1  0.13744365  0.85755034  0.83708294  1
  H+  H103  1  0.46629084  0.11063493  0.51532423  1
  H+  H104  1  0.21894529  0.11319051  0.50594225  1
  H+  H105  1  0.53193727  0.90258063  0.33935626  1
  H+  H106  1  0.36017599  0.63937303  0.82839226  1
  H+  H107  1  0.21740797  0.58430739  0.19984711  1
  H+  H108  1  0.23441492  0.86764028  0.17637514  1
  H+  H109  1  0.38647856  0.11850351  0.66436565  1
  H+  H110  1  0.37806996  0.10970654  0.17522622  1
  H+  H111  1  0.10888681  0.72426958  0.83469087  1
  H+  H112  1  0.11792343  1.00627319  0.32163253  1
  H+  H113  1  0.48336448  0.09673600  0.32322948  1
  H+  H114  1  0.63617721  0.27630049  0.65644158  1
  H+  H115  1  0.88566031  0.86677494  0.83973137  1
  H+  H116  1  0.38131758  -0.01807792  0.49080922  1
  H+  H117  1  0.35950029  0.38933311  0.68074673  1
  H+  H118  1  0.73288249  0.61665202  0.16162394  1
  H+  H119  1  0.14249617  0.26937805  0.31341902  1
  H+  H120  1  1.04200043  0.38075305  1.00746419  1
  H+  H121  1  0.57821274  0.40832833  0.09923341  1
  H+  H122  1  0.86680384  0.64475953  0.17099752  1
  H+  H123  1  0.50304537  0.04834195  0.46274008  1
  H+  H124  1  0.27214108  0.13523979  0.00792817  1
  H+  H125  1  0.10901964  0.97805115  0.49366631  1
  H+  H126  1  0.85768383  0.72687925  0.67675711  1
  H+  H127  1  1.00059357  0.65195669  0.17449846  1
  H+  H128  1  0.38332734  0.52932549  0.99311897  1
  H+  H129  1  0.35502361  0.22491367  0.67995517  1
  H+  H130  1  0.29495513  0.88296638  0.74838189  1
  H+  H131  1  1.08034174  0.70622303  0.37006253  1
  H+  H132  1  0.88507093  1.01024313  0.66098813  1
  H+  H133  1  0.63217584  0.28876894  0.49426750  1
  H+  H134  1  0.63828346  0.77912143  0.17417574  1
  H+  H135  1  0.13044505  0.26100630  0.16323611  1
  H+  H136  1  0.86428898  0.98428607  0.16478602  1
  H+  H137  1  0.53785837  0.40260183  0.33182680  1
  H+  H138  1  0.32392994  0.15747931  0.73483484  1
  H+  H139  1  0.41252203  0.07505238  0.22917344  1
  H+  H140  1  0.21998263  0.09815866  0.83591992  1
  H+  H141  1  0.63413921  0.65243887  0.34491950  1
  H+  H142  1  0.98699814  0.37504465  0.83638875  1
  H+  H143  1  0.76812048  0.88593232  0.82657104  1
  H+  H144  1  0.98279147  0.62088293  0.84728752  1
  H+  H145  1  0.66880592  0.58439733  1.07607601  1
  H+  H146  1  0.98135035  0.87008466  0.17256512  1
  H+  H147  1  0.37937289  0.61711443  0.16181919  1
  H+  H148  1  0.26327459  0.38909057  0.82860148  1
  H+  H149  1  0.86338945  0.89288944  0.49538728  1
  H+  H150  1  0.74174420  0.13307411  0.65207704  1
  H+  H151  1  0.63157012  0.73954450  0.34683946  1
  H+  H152  1  0.86666134  0.74007143  0.49609729  1
  H+  H153  1  0.59733204  0.10579695  0.48859532  1
  H+  H154  1  0.61350338  0.38930176  0.66185611  1
  H+  H155  1  0.33149809  0.33188316  0.85145300  1
  H+  H156  1  0.73594225  0.63036117  0.50695204  1
  H+  H157  1  0.87226962  0.64456611  0.83191942  1
  H+  H158  1  0.36163469  0.72665360  0.67864179  1
  H+  H159  1  0.61950037  0.14546184  0.66619934  1
  H+  H160  1  0.86191140  0.22911214  0.49626251  1
  H+  H161  1  0.13532144  0.85756017  0.33147461  1
  H+  H162  1  0.88732999  0.35145195  0.31497433  1
  H+  H163  1  0.63056126  0.35043444  0.32537683  1
  H+  H164  1  0.22030240  0.36962320  0.50613775  1
  H+  H165  1  0.62920362  0.37560085  0.49892472  1
  H+  H166  1  0.72886075  0.86777662  0.17455258  1
  H+  H167  1  0.84494090  0.44439617  0.28607340  1
  H+  H168  1  0.38337805  0.52444270  0.83830771  1
  H+  H169  1  0.38420394  0.52945822  0.50513881  1
  H+  H170  1  0.63512279  0.77148601  0.83995067  1
  H+  H171  1  0.74538054  0.62539210  0.83724331  1
  H+  H172  1  0.88477637  0.11792783  0.17379708  1
  H+  H173  1  0.63163070  0.85863828  0.84021264  1
  H+  H174  1  0.39138067  0.32014349  0.94372243  1
  H+  H175  1  0.27784417  0.38767845  0.00672003  1
  H+  H176  1  0.85814433  0.38085410  0.16266868  1
  H+  H177  1  0.92410474  0.32132085  0.26259936  1
  H+  H178  1  0.85507164  0.97692804  0.82315377  1
  H+  H179  1  0.87954362  0.25186487  0.81622999  1
  H+  H180  1  0.40401054  0.04605145  0.90087387  1
  H+  H181  1  0.11003109  0.97018190  0.82133557  1
  H+  H182  1  0.88992569  0.52932995  0.68994861  1
  H+  H183  1  0.88074180  0.36570407  0.52903850  1
  H+  H184  1  0.77908585  0.40548414  0.52480638  1
  H+  H185  1  0.14353753  0.81045655  0.56415917  1
  H+  H186  1  0.32766094  0.66379679  0.73549854  1
  H+  H187  1  0.86265665  0.89301868  0.34079012  1
  H+  H188  1  0.14306898  0.27247445  0.99613624  1
  H+  H189  1  0.35781622  -0.02525205  1.00617398  1
  H+  H190  1  0.64868853  0.52957497  0.31554305  1
  H+  H191  1  0.62038558  0.22487123  0.15453563  1
  H+  H192  1  0.26418133  0.63489920  0.34259029  1
  H+  H193  1  0.10328148  0.45708395  0.67270678  1
  H+  H194  1  0.66107089  0.37668207  0.83333487  1
  H+  H195  1  0.01115322  0.38146335  0.50577465  1
  H+  H196  1  0.77938148  0.64725294  0.33813291  1
  H+  H197  1  0.39742096  0.86698827  0.68562272  1
  H+  H198  1  0.08041627  0.80072162  0.65055808  1
  H+  H199  1  0.82655833  0.42126006  0.10930271  1
  H+  H200  1  0.35627076  0.72713476  0.82758649  1
  H+  H201  1  0.41373543  0.83972463  0.93036122  1
  H+  H202  1  0.36341852  0.64070018  0.00103669  1
  H+  H203  1  0.10658381  0.37195086  0.15961367  1
  H+  H204  1  0.96661052  0.33790550  0.66995738  1
  H+  H205  1  0.77097941  0.88763638  0.67014403  1
  H+  H206  1  0.74064868  0.12046548  0.32769315  1
  H+  H207  1  0.63971596  1.02375241  0.17439732  1
  H+  H208  1  0.14346574  0.52351057  0.99566424  1
  H+  H209  1  0.76367349  0.36560932  0.31479009  1
  H+  H210  1  0.88487228  1.02613864  0.32919772  1
  H+  H211  1  0.84377256  0.40590991  0.00837476  1
  H+  H212  1  0.33152084  0.16959229  0.10508182  1
  H+  H213  1  0.86511646  0.13565713  0.34279810  1
  H+  H214  1  0.70430860  0.09481668  0.84337167  1
  H+  H215  1  0.53651732  0.43948366  0.46814802  1
  H+  H216  1  0.22724272  0.36313682  0.31328785  1
  H+  H217  1  0.10794796  0.88863657  0.49393607  1
  H+  H218  1  0.21981794  0.10279714  0.66239190  1
  H+  H219  1  0.13519495  0.10765366  0.83487952  1
  H+  H220  1  0.60897193  0.38288347  0.16058767  1
  H+  H221  1  0.26427212  0.63605461  0.49080345  1
  H+  H222  1  0.62101154  0.89854720  0.67056614  1
  H+  H223  1  0.62983808  0.74512839  0.00859038  1
  H+  H224  1  0.72986973  0.86796177  0.99325867  1
  H+  H225  1  0.10596303  0.59494622  0.47655714  1
  H+  H226  1  0.13328312  0.61787835  0.34459257  1
  H+  H227  1  0.60476208  0.63818399  0.15626816  1
  H+  H228  1  0.27211658  0.87420357  0.34598697  1
  H+  H229  1  0.66832832  0.84091119  0.26843942  1
  H+  H230  1  0.86959483  0.49003063  0.52890630  1
  H+  H231  1  0.36241475  0.98018608  0.16058056  1
  H+  H232  1  0.11524006  0.63447838  1.00328195  1
  H+  H233  1  0.47536810  0.36620769  0.16960000  1
  H+  H234  1  0.63555944  0.77767392  0.50501726  1
  H+  H235  1  0.88974881  0.78216388  0.99509199  1
  H+  H236  1  0.91444694  0.34822603  1.00085576  1
  H+  H237  1  1.00181647  0.11773683  0.99093019  1
  H+  H238  1  0.51381340  0.38274193  0.00376583  1
  H+  H239  1  0.52504437  0.64197285  0.49595613  1
  H+  H240  1  0.37879755  0.96860043  0.76382347  1
  H+  H241  1  0.12894996  0.36423914  0.51277169  1
  H+  H242  1  0.71811613  0.37420373  0.99238442  1
  H+  H243  1  0.63506720  0.52820542  0.65550392  1
  H+  H244  1  0.76134999  0.37646641  0.83537953  1
  H+  H245  1  0.38612006  0.77715363  -0.01195098  1
  H+  H246  1  0.35526986  0.49185394  0.33660794  1
  H+  H247  1  0.64091880  0.87218070  0.32822247  1
  H+  H248  1  0.13327736  0.60446741  0.54558355  1
  H+  H249  1  0.36053938  0.22447817  0.01149196  1
  H+  H250  1  0.22203230  0.60950554  0.83910958  1
  H+  H251  1  0.61606140  0.89040757  0.15861227  1
  H+  H252  1  0.11471133  0.47711829  0.82663614  1
  H+  H253  1  0.76625135  0.12674165  0.00017949  1
  H+  H254  1  0.10997296  0.22384766  0.82250711  1
  H+  H255  1  0.10737234  0.95414149  0.66745689  1
  H+  H256  1  0.14762414  0.64121263  0.16170546  1
  H+  H257  1  0.76668842  0.63955514  0.67894305  1
  H+  H258  1  0.60460969  0.47147850  0.01201766  1
  H+  H259  1  0.97671849  0.87055333  0.50751736  1
  H+  H260  1  0.36345938  0.96024682  0.33579584  1
  H+  H261  1  0.87258382  0.73711917  0.16514150  1
  H+  H262  1  0.12924630  0.35846915  0.84158310  1
  H+  H263  1  0.22605019  0.59794826  0.66041704  1
  H+  H264  1  1.00065655  0.61883379  0.45433233  1
  H+  H265  1  0.82869240  0.40874558  0.76767330  1
  H+  H266  1  0.36037260  0.88741506  0.00535247  1
  H+  H267  1  0.09750480  0.47261295  0.50045284  1
  H+  H268  1  0.38443106  0.86452167  0.82597330  1
  H+  H269  1  0.87302108  0.64741306  1.00883405  1
  H+  H270  1  0.16309460  0.07385894  0.60155237  1
  H+  H271  1  0.89327208  0.25438056  0.98781455  1
  H+  H272  1  0.38400405  0.36542582  0.00327506  1
  H+  H273  1  0.32609208  0.41516737  0.77120325  1
  H+  H274  1  0.37254206  0.93112260  0.42845446  1
  H+  H275  1  0.60802271  0.13472984  0.99953457  1
  H+  H276  1  0.35774444  0.26144127  0.51898886  1
  H+  H277  1  0.61032864  0.64185636  0.67075645  1
  H+  H278  1  0.88323186  0.78195936  0.32746914  1
  H+  H279  1  0.82842591  0.91625738  0.73161666  1
  H+  H280  1  0.60757015  0.22328402  -0.00261775  1
  H+  H281  1  0.38368990  0.52626041  0.66314831  1
  H+  H282  1  0.14075418  0.85639617  0.17496304  1
  H+  H283  1  0.67085035  0.59424923  0.60019039  1
  H+  H284  1  0.40303154  0.86868218  0.51634810  1
  H+  H285  1  0.67755622  0.08650459  0.26768265  1
  H+  H286  1  0.60021088  0.96488313  0.82735470  1
  H+  H287  1  0.90730920  0.31798259  0.57607746  1
  H+  H288  1  0.73632962  0.62086915  1.02293574  1
  H+  H289  1  0.57674136  0.14494091  0.39509029  1
  H+  H290  1  0.37905079  0.52800871  0.16436649  1
  H+  H291  1  0.91304817  0.08643972  0.26959901  1
  H+  H292  1  0.58364252  0.66982060  0.76460979  1
  H+  H293  1  0.32720555  0.42584834  0.42919515  1
  H+  H294  1  0.08248630  0.16483719  0.07229948  1
  H+  H295  1  0.86383874  0.40885591  0.42840212  1
  H+  H296  1  0.38453154  0.61551446  0.66286731  1
  H+  H297  1  0.58733320  0.16806449  0.72733159  1
  H+  H298  1  1.02207159  0.13700845  0.50953604  1
  H+  H299  1  0.08130137  0.41231496  0.76799623  1
  H+  H300  1  0.67319566  0.59266079  0.25848136  1
  H+  H301  1  0.83844211  0.17097653  0.43529225  1
  H+  H302  1  0.34936977  0.38949666  0.48969257  1
  H+  H303  1  0.07677075  0.89922035  0.72806159  1
  H+  H304  1  0.15869357  0.08036634  0.22808355  1
  H+  H305  1  0.07725085  0.91383484  0.39947846  1
  H+  H306  1  0.41046779  0.09062951  0.57821494  1
  H+  H307  1  0.10817738  0.67189034  0.06586565  1
  H+  H308  1  0.31211522  0.12067387  0.40202770  1
  H+  H309  1  0.07470775  0.41721915  0.40834885  1
  H+  H310  1  0.32984796  0.66913293  0.39717982  1
  H+  H311  1  0.66705795  0.83800948  0.59827189  1
  H+  H312  1  0.83421632  0.68075926  0.43623260  1
  H+  H313  1  0.91362897  0.07541803  0.59700878  1
  H+  H314  1  0.44057235  0.85454971  0.26703355  1
  H+  H315  1  0.02712010  0.89138176  0.00629964  1
  H+  H316  1  0.07904618  0.15609742  0.72706595  1
  H+  H317  1  0.59207441  0.67467606  0.43889161  1
  H+  H318  1  0.16477069  0.33113165  0.60202953  1
  H+  H319  1  0.89482525  0.45608782  0.42592155  1
  H+  H320  1  0.64995006  0.31995925  0.23166210  1
  H+  H321  1  0.91623787  0.84094793  0.26727620  1
  H+  H322  1  0.42728496  0.35482799  0.25867114  1
  H+  H323  1  0.40178379  0.58603238  0.26401885  1
  H+  H324  1  0.82437000  0.15864148  0.09960884  1
  H+  H325  1  0.58534011  0.91955023  0.09871829  1
  H+  H326  1  0.59801257  0.92973736  0.41577379  1
  H+  H327  1  0.22469900  0.86320335  0.99574336  1
  H+  H328  1  0.85169981  0.37299580  0.68034199  1
  H+  H329  1  0.16635227  0.82533305  0.27510302  1
  H+  H330  1  0.51477502  0.63987412  0.15607286  1
  H+  H331  1  0.33291742  0.91667421  0.10243466  1
  H+  H332  1  0.26665767  0.38239150  0.15723271  1
  H+  H333  1  0.16174996  0.32789536  0.90013585  1
  H+  H334  1  0.38480710  0.27715705  0.17377538  1
  H+  H335  1  0.83877970  0.67332430  0.77195312  1
  H+  H336  1  0.99526566  0.65142813  0.65343864  1
  H+  H337  1  0.16533321  0.32092885  0.22350475  1
  H+  H338  1  0.91581667  0.83798763  0.56716186  1
  H+  H339  1  0.66782454  0.83147036  0.93358072  1
  H+  H340  1  0.13667906  0.77359359  -0.00463824  1
  H+  H341  1  0.59558707  0.16704280  0.09458301  1
  H+  H342  1  0.67580847  0.58588751  0.89115214  1
  H+  H343  1  0.40276918  0.33071208  0.61350819  1
  H+  H344  1  0.09239315  0.41509980  0.07037181  1
  H+  H345  1  0.12358403  0.52295995  0.34271300  1
  H+  H346  1  0.66596065  0.33710376  0.59746654  1
  H+  H347  1  0.26784126  0.25036046  0.88891692  1
  H+  H348  1  0.60115507  0.43469626  0.38951696  1
  H+  H349  1  0.72653939  0.86665335  0.50415427  1
  H+  H350  1  0.41177678  0.83796569  0.61823122  1
  H+  H351  1  0.58838572  0.68328751  0.07544587  1
  H+  H352  1  0.85140808  0.68078168  0.07017046  1
  H+  H353  1  0.61825950  0.10185761  0.83649040  1
  H+  H354  1  0.16581256  0.08083331  0.93325143  1
  H+  H355  1  0.97312530  0.64395899  0.54593047  1
  H+  H356  1  0.67388247  0.08578600  0.56146371  1
  H+  H357  1  0.41028320  0.58607207  0.93311368  1
  H+  H358  1  0.92079751  0.59129480  0.29068600  1
  H+  H359  1  0.16423905  0.57619090  0.89910181  1
  H+  H360  1  0.41428377  0.58629307  0.56589825  1
  H+  H361  1  0.76780515  0.38194554  0.67584688  1
  H+  H362  1  0.33639168  0.67743343  0.05927993  1
  H+  H363  1  0.87955451  0.61192663  0.69597160  1
  H+  H364  1  0.33351830  0.42086666  0.06808921  1
  H+  H365  1  0.83331366  0.92219481  0.43530868  1
  H+  H366  1  0.92346879  0.59246388  0.93981357  1
  H+  H367  1  0.13863174  0.02428957  0.99398859  1
  H+  H368  1  0.88069680  0.11345247  0.51308416  1
  H+  H369  1  0.08565400  0.91696590  0.10189101  1
  H+  H370  1  0.91542632  0.09377640  0.88921409  1
  H+  H371  1  0.92543383  0.33546901  0.89558450  1
  H+  H372  1  0.91672433  0.84103923  0.93514356  1
  H+  H373  1  0.16727186  0.83267470  0.89747503  1
  H+  H374  1  0.53309208  0.90019607  0.67441970  1
  H+  H375  1  0.47348807  0.61272268  0.83666145  1
  H+  H376  1  0.87040512  0.21424877  0.71328204  1
  H+  H377  1  0.96718542  0.03950990  0.94621857  1
  H+  H378  1  0.50402823  0.11221092  0.80918647  1
  H+  H379  1  0.59881849  0.42691170  0.72219288  1
  H+  H380  1  0.56516278  0.40538111  0.81501557  1
  H+  H381  1  0.65583078  0.07630420  0.93456883  1
  H+  H382  1  0.14938671  0.56764344  0.25088278  1
  H+  H383  1  0.83503035  0.92454656  0.10505992  1
  O2-  O384  1  0.06720257  0.14237127  0.13355061  1
  O2-  O385  1  0.08407051  0.16378091  0.50121352  1
  O2-  O386  1  0.08176705  0.16393179  0.80580948  1
  O2-  O387  1  0.07739966  0.40482716  0.14596118  1
  O2-  O388  1  0.07176387  0.41067747  0.49055953  1
  O2-  O389  1  0.08150932  0.41446705  0.81354385  1
  O2-  O390  1  0.16755012  0.69031719  0.13308698  1
  O2-  O391  1  0.03014052  0.60178534  0.42165288  1
  O2-  O392  1  0.07150688  0.66166962  0.82390974  1
  O2-  O393  1  0.08399775  0.91617917  0.14728524  1
  O2-  O394  1  0.07689698  0.91782560  0.47798996  1
  O2-  O395  1  0.07970545  0.91012761  0.80567795  1
  O2-  O396  1  0.33257133  0.17498353  0.15030198  1
  O2-  O397  1  0.34666114  0.16971186  0.47586891  1
  O2-  O398  1  0.32325368  0.14213712  0.81081352  1
  O2-  O399  1  0.32868273  0.41959884  0.14519922  1
  O2-  O400  1  0.32489924  0.42455359  0.47539114  1
  O2-  O401  1  0.32506787  0.41479025  0.81686059  1
  O2-  O402  1  0.32527858  0.68483246  0.13983986  1
  O2-  O403  1  0.32608495  0.66955345  0.48151803  1
  O2-  O404  1  0.32642701  0.66604550  0.81322346  1
  O2-  O405  1  0.33464168  0.91719773  0.14778123  1
  O2-  O406  1  0.40615919  0.95283938  0.46745274  1
  O2-  O407  1  0.41758377  1.06644310  0.81148889  1
  O2-  O408  1  0.61443181  0.17144176  0.13727296  1
  O2-  O409  1  0.54913725  0.10984003  0.46892955  1
  O2-  O410  1  0.57622777  0.14971902  0.80447862  1
  O2-  O411  1  0.58249265  0.41701905  0.14417791  1
  O2-  O412  1  0.59410371  0.44710538  0.46976096  1
  O2-  O413  1  0.62500785  0.43396454  0.80055543  1
  O2-  O414  1  0.57738378  0.67168557  0.14276873  1
  O2-  O415  1  0.58736877  0.67328044  0.48506084  1
  O2-  O416  1  0.58435601  0.66875852  0.81034354  1
  O2-  O417  1  0.58623188  0.92135111  0.14405963  1
  O2-  O418  1  0.59907355  0.92666694  0.46831836  1
  O2-  O419  1  0.57626114  0.90604908  0.81013990  1
  O2-  O420  1  0.82852127  0.16348101  0.14436769  1
  O2-  O421  1  0.83496451  0.16860648  0.48102077  1
  O2-  O422  1  0.84910897  0.19510997  0.79337888  1
  O2-  O423  1  0.82502828  0.41151253  0.15370671  1
  O2-  O424  1  0.83733897  0.42922654  0.54140132  1
  O2-  O425  1  0.83193587  0.41257938  0.81479376  1
  O2-  O426  1  0.84262055  0.67585624  0.14929312  1
  O2-  O427  1  0.83610739  0.67853916  0.48175303  1
  O2-  O428  1  0.84038732  0.67433582  0.81782793  1
  O2-  O429  1  0.83511397  0.92289945  0.15029776  1
  O2-  O430  1  0.83143598  0.92215971  0.48105562  1
  O2-  O431  1  0.82809424  0.91603166  0.80984173  1
  O2-  O432  1  0.16603196  0.08515725  0.18282880  1
  O2-  O433  1  0.16199632  0.08063943  0.52414343  1
  O2-  O434  1  0.16079497  0.07495223  0.85312999  1
  O2-  O435  1  0.16075570  0.32141495  0.17627889  1
  O2-  O436  1  0.16328072  0.33719327  0.52651104  1
  O2-  O437  1  0.15879951  0.32635120  0.85445280  1
  O2-  O438  1  0.15565036  0.56064335  0.20557176  1
  O2-  O439  1  0.14198004  0.58517361  0.50608762  1
  O2-  O440  1  0.16128278  0.57448520  0.85362754  1
  O2-  O441  1  0.17363839  0.82989316  0.19098891  1
  O2-  O442  1  0.15679156  0.83782856  0.52317091  1
  O2-  O443  1  0.16669842  0.82721831  0.85263338  1
  O2-  O444  1  0.40595724  0.07549063  0.18450336  1
  O2-  O445  1  0.40714918  0.08964833  0.53070807  1
  O2-  O446  1  0.40364681  0.01158212  0.86517085  1
  O2-  O447  1  0.41622729  0.33944587  0.18702605  1
  O2-  O448  1  0.38816627  0.32215839  0.53319677  1
  O2-  O449  1  0.32745144  0.28252894  0.87573305  1
  O2-  O450  1  0.41250048  0.59024038  0.17580977  1
  O2-  O451  1  0.41606171  0.58969562  0.52057507  1
  O2-  O452  1  0.41340744  0.58571608  0.85171222  1
  O2-  O453  1  0.42264397  0.84107451  0.18777631  1
  O2-  O454  1  0.40175849  0.82533945  0.54448792  1
  O2-  O455  1  0.40882593  0.83441852  0.84882645  1
  O2-  O456  1  0.67260404  0.08329407  0.19120143  1
  O2-  O457  1  0.67140918  0.08193276  0.51608812  1
  O2-  O458  1  0.64501782  0.06886575  0.85696375  1
  O2-  O459  1  0.65374359  0.32857461  0.18641497  1
  O2-  O460  1  0.65532912  0.34296812  0.51625313  1
  O2-  O461  1  0.68586608  0.34256448  0.85270022  1
  O2-  O462  1  0.66864726  0.58725149  0.16483424  1
  O2-  O463  1  0.67440023  0.59625118  0.52141015  1
  O2-  O464  1  0.68056916  0.58937158  0.84698684  1
  O2-  O465  1  0.66790965  0.83926189  0.18902097  1
  O2-  O466  1  0.66539262  0.83969218  0.51842243  1
  O2-  O467  1  0.66472865  0.83156604  0.85658590  1
  O2-  O468  1  0.91536334  0.08864452  0.19042241  1
  O2-  O469  1  0.90732032  0.08030436  0.53017268  1
  O2-  O470  1  0.91003523  0.08880484  0.84438871  1
  O2-  O471  1  0.91062505  0.32910715  0.18182282  1
  O2-  O472  1  0.90751680  0.32818554  0.53171738  1
  O2-  O473  1  0.92403285  0.34388845  0.85091330  1
  O2-  O474  1  0.85392862  0.54494360  0.22264543  1
  O2-  O475  1  0.93909469  0.61335098  0.50942919  1
  O2-  O476  1  0.91876952  0.59135184  0.86318847  1
  O2-  O477  1  0.92006564  0.83868702  0.18754685  1
  O2-  O478  1  0.91525248  0.84120964  0.52171641  1
  O2-  O479  1  0.91761454  0.83984444  0.85740555  1
  O2-  O480  1  0.15104516  0.06655273  0.30495311  1
  O2-  O481  1  0.15927325  0.07003307  0.64705716  1
  O2-  O482  1  0.16806693  0.08491465  0.97853783  1
  O2-  O483  1  0.17317184  0.32589315  0.29131559  1
  O2-  O484  1  0.16334200  0.32699378  0.64790825  1
  O2-  O485  1  0.17497076  0.33187341  0.97754861  1
  O2-  O486  1  0.15328851  0.58287647  0.32335448  1
  O2-  O487  1  0.17145584  0.55604601  0.63937730  1
  O2-  O488  1  0.16766896  0.58183522  0.97752779  1
  O2-  O489  1  0.16476448  0.82510792  0.32027217  1
  O2-  O490  1  0.10397765  0.76464154  0.63461922  1
  O2-  O491  1  0.16372057  0.83410356  0.98089664  1
  O2-  O492  1  0.42239955  0.06244063  0.30839183  1
  O2-  O493  1  0.41698930  0.09079166  0.64568031  1
  O2-  O494  1  0.40839995  0.07772934  0.97599176  1
  O2-  O495  1  0.43563332  0.36574930  0.30449549  1
  O2-  O496  1  0.41046732  0.33388696  0.65823004  1
  O2-  O497  1  0.41085425  0.33147246  0.98679128  1
  O2-  O498  1  0.39989438  0.58234052  0.30854019  1
  O2-  O499  1  0.41538759  0.58598241  0.64677198  1
  O2-  O500  1  0.40926234  0.58916134  0.97814452  1
  O2-  O501  1  0.45017460  0.86346080  0.31167292  1
  O2-  O502  1  0.42395064  0.83847214  0.66320379  1
  O2-  O503  1  0.41776053  0.83924780  0.97555454  1
  O2-  O504  1  0.67857928  0.08800194  0.31344756  1
  O2-  O505  1  0.68081970  0.09772378  0.64014589  1
  O2-  O506  1  0.66400208  0.08120392  0.97964850  1
  O2-  O507  1  0.65341457  0.31496619  0.30779164  1
  O2-  O508  1  0.66713800  0.33812225  0.64256474  1
  O2-  O509  1  0.66308864  0.33888873  0.97017458  1
  O2-  O510  1  0.67946960  0.59127713  0.30279274  1
  O2-  O511  1  0.66569111  0.59075636  0.64553320  1
  O2-  O512  1  0.67218845  0.59063487  1.03126122  1
  O2-  O513  1  0.67149899  0.84221776  0.31374068  1
  O2-  O514  1  0.66955690  0.83943901  0.64375091  1
  O2-  O515  1  0.66853414  0.83255879  0.97952825  1
  O2-  O516  1  0.91361369  0.08710125  0.31495634  1
  O2-  O517  1  0.92038582  0.07232409  0.64437629  1
  O2-  O518  1  0.94708453  0.07462921  0.96644078  1
  O2-  O519  1  0.92247300  0.32309075  0.30774295  1
  O2-  O520  1  0.90348950  0.31069390  0.65760521  1
  O2-  O521  1  0.93059463  0.31580522  0.97388991  1
  O2-  O522  1  0.94160609  0.62456662  0.32861885  1
  O2-  O523  1  0.92118907  0.59097792  0.69947866  1
  O2-  O524  1  0.92159589  0.59250835  0.98574586  1
  O2-  O525  1  0.91511129  0.84284471  0.31260210  1
  O2-  O526  1  0.91067843  0.82778543  0.64519140  1
  O2-  O527  1  0.91708161  0.84287777  0.98085283  1
  O2-  O528  1  0.08875803  0.17323284  0.02251967  1
  O2-  O529  1  0.08882897  0.17333943  0.34547736  1
  O2-  O530  1  0.07617678  0.15185333  0.68156047  1
  O2-  O531  1  0.09959335  0.41785255  0.02469718  1
  O2-  O532  1  0.08230599  0.42823307  0.36409731  1
  O2-  O533  1  0.07053314  0.39749299  0.69008201  1
  O2-  O534  1  0.08746423  0.66483180  0.02284149  1
  O2-  O535  1  0.10427441  0.68123239  0.39885412  1
  O2-  O536  1  0.02911817  0.68367139  0.61529307  1
  O2-  O537  1  0.08706866  0.92059645  0.02186832  1
  O2-  O538  1  0.07808137  0.91056806  0.35404849  1
  O2-  O539  1  0.07284909  0.89421094  0.68255694  1
  O2-  O540  1  0.33184049  0.16319043  0.02471371  1
  O2-  O541  1  0.31199845  0.11402396  0.35706689  1
  O2-  O542  1  0.32418352  0.16238934  0.68942897  1
  O2-  O543  1  0.33807322  0.42052475  0.02260545  1
  O2-  O544  1  0.33052145  0.43050659  0.35418425  1
  O2-  O545  1  0.32844851  0.41997328  0.69331682  1
  O2-  O546  1  0.33373208  0.67398828  0.01411422  1
  O2-  O547  1  0.32631499  0.66540539  0.35238065  1
  O2-  O548  1  0.32965207  0.66434755  0.68989146  1
  O2-  O549  1  0.32822926  0.91464602  0.02232240  1
  O2-  O550  1  0.33427943  0.90413916  0.35790352  1
  O2-  O551  1  0.35721005  0.90897005  0.74863828  1
  O2-  O552  1  0.57608596  0.16390536  0.01309946  1
  O2-  O553  1  0.58398807  0.15484199  0.35019847  1
  O2-  O554  1  0.58941334  0.17524466  0.68200735  1
  O2-  O555  1  0.57530758  0.40874947  0.01835282  1
  O2-  O556  1  0.59912262  0.42688933  0.34467568  1
  O2-  O557  1  0.58448883  0.42071211  0.67821696  1
  O2-  O558  1  0.60068884  0.68448698  0.02881400  1
  O2-  O559  1  0.61110432  0.68361817  0.36756163  1
  O2-  O560  1  0.58172523  0.67333188  0.68681360  1
  O2-  O561  1  0.58004385  0.91677116  0.01903002  1
  O2-  O562  1  0.59548079  0.93115148  0.35812896  1
  O2-  O563  1  0.59545652  0.93265809  0.68677871  1
  O2-  O564  1  0.82815112  0.15602603  0.01490857  1
  O2-  O565  1  0.83565320  0.16743146  0.35817606  1
  O2-  O566  1  0.86459385  0.21727691  0.66841299  1
  O2-  O567  1  0.81883958  0.43711653  0.02755836  1
  O2-  O568  1  0.82754956  0.39970128  0.31670780  1
  O2-  O569  1  0.82426275  0.40435586  0.69744421  1
  O2-  O570  1  0.84240126  0.67719929  0.02514863  1
  O2-  O571  1  0.83578005  0.68278252  0.35869722  1
  O2-  O572  1  0.82569273  0.66919562  0.69684953  1
  O2-  O573  1  0.83155460  0.91937160  0.02390880  1
  O2-  O574  1  0.83324959  0.92319646  0.35802106  1
  O2-  O575  1  0.83191643  0.91830770  0.68602142  1
