# generated using pymatgen
data_H2O
_symmetry_space_group_name_H-M   'P 1'
_cell_length_a   18.00639563
_cell_length_b   18.00425623
_cell_length_c   22.01069591
_cell_angle_alpha   90.02431718
_cell_angle_beta   89.97684316
_cell_angle_gamma   120.00685689
_symmetry_Int_Tables_number   1
_chemical_formula_structural   H2O
_chemical_formula_sum   'H384 O192'
_cell_volume   6179.25784150
_cell_formula_units_Z   192
loop_
 _symmetry_equiv_pos_site_id
 _symmetry_equiv_pos_as_xyz
  1  'x, y, z'
loop_
 _atom_type_symbol
 _atom_type_oxidation_number
  H+  1.0
  O2-  -2.0
loop_
 _atom_site_type_symbol
 _atom_site_label
 _atom_site_symmetry_multiplicity
 _atom_site_fract_x
 _atom_site_fract_y
 _atom_site_fract_z
 _atom_site_occupancy
  H+  H0  1  0.26382793  0.88113368  0.35673191  1
  H+  H1  1  -0.02192876  0.10013922  -0.00370631  1
  H+  H2  1  0.37814930  0.85715473  0.32933081  1
  H+  H3  1  0.63518847  0.10792382  0.66593141  1
  H+  H4  1  0.50702112  0.39997684  0.34553651  1
  H+  H5  1  0.60373721  -0.02694057  0.51208105  1
  H+  H6  1  0.57908166  0.19666206  0.66741672  1
  H+  H7  1  0.61474769  0.85511001  0.98894108  1
  H+  H8  1  0.75140618  0.87987876  0.81880416  1
  H+  H9  1  0.11550942  0.12942689  0.02119365  1
  H+  H10  1  0.96031296  0.10347755  0.55574496  1
  H+  H11  1  0.87816208  0.21410357  0.48730915  1
  H+  H12  1  0.14547013  0.61900860  0.65893721  1
  H+  H13  1  0.14585194  0.27396402  0.64696775  1
  H+  H14  1  0.12400546  0.26256897  0.32581252  1
  H+  H15  1  0.93132838  0.83587901  1.01005196  1
  H+  H16  1  0.47297132  0.37500801  0.96537368  1
  H+  H17  1  0.10869595  0.92658168  0.80821381  1
  H+  H18  1  0.11801417  0.38098824  0.17357696  1
  H+  H19  1  0.45445522  0.10170492  0.83609864  1
  H+  H20  1  0.46790731  0.86063125  0.34193843  1
  H+  H21  1  0.86318508  0.38717981  0.15309631  1
  H+  H22  1  0.92866375  0.65989628  0.83914261  1
  H+  H23  1  0.16234780  0.32093302  0.23989024  1
  H+  H24  1  0.71029060  0.37572932  0.33433567  1
  H+  H25  1  0.90041256  0.79777209  0.65447718  1
  H+  H26  1  0.62531226  0.60612577  0.66564538  1
  H+  H27  1  1.01318565  0.36981669  0.48337499  1
  H+  H28  1  0.52504549  0.63911602  0.34392749  1
  H+  H29  1  0.63498745  0.26806851  0.17610771  1
  H+  H30  1  0.34958297  0.92027607  0.39697127  1
  H+  H31  1  0.00616785  0.13170833  0.34618472  1
  H+  H32  1  0.86932558  0.62086608  0.66901122  1
  H+  H33  1  0.38971772  0.61607082  0.50183845  1
  H+  H34  1  0.37865827  0.24056725  1.00643646  1
  H+  H35  1  0.90320497  0.70542032  0.74455149  1
  H+  H36  1  0.03413956  0.89413893  0.01051462  1
  H+  H37  1  0.60752193  -0.03135247  1.00278608  1
  H+  H38  1  0.38199629  0.77800799  0.52203297  1
  H+  H39  1  0.86066155  0.35107867  0.33199666  1
  H+  H40  1  0.37068270  0.72457456  0.16394228  1
  H+  H41  1  0.45129003  0.35087515  0.83123934  1
  H+  H42  1  0.37934522  0.24775191  0.49837307  1
  H+  H43  1  0.03839472  0.83225604  0.78928082  1
  H+  H44  1  0.14689929  0.36413231  0.64385958  1
  H+  H45  1  0.12319092  0.27049746  0.83538243  1
  H+  H46  1  0.27650625  0.63566445  0.34578396  1
  H+  H47  1  0.88648230  0.52101632  0.18370744  1
  H+  H48  1  0.38038720  0.15231173  1.00933078  1
  H+  H49  1  0.47279568  0.61458781  0.99460866  1
  H+  H50  1  0.54548385  0.13667167  0.72260599  1
  H+  H51  1  0.10888346  0.98066669  0.16281319  1
  H+  H52  1  0.24826395  0.13562466  1.00498110  1
  H+  H53  1  0.34769841  0.90775334  0.75717774  1
  H+  H54  1  0.55123642  0.79041429  0.27985825  1
  H+  H55  1  0.38845691  0.60848868  0.32804357  1
  H+  H56  1  0.76267705  0.69629017  0.79666605  1
  H+  H57  1  0.75855986  0.37854992  0.49168263  1
  H+  H58  1  0.47386275  0.11457804  0.16158843  1
  H+  H59  1  0.83118418  0.87465004  1.01308813  1
  H+  H60  1  0.05121392  0.38562854  0.02512250  1
  H+  H61  1  0.39076329  0.06119274  0.12399673  1
  H+  H62  1  0.14901298  0.01765364  0.64347696  1
  H+  H63  1  0.90812905  0.57145811  0.57501968  1
  H+  H64  1  0.58485446  0.67944687  0.40380794  1
  H+  H65  1  0.81503376  0.70412982  0.02254945  1
  H+  H66  1  0.26820783  0.38440318  0.47001071  1
  H+  H67  1  0.74756937  0.07544799  0.84656654  1
  H+  H68  1  0.88945852  0.61034222  0.18553626  1
  H+  H69  1  0.10622923  0.46983980  0.33392166  1
  H+  H70  1  0.86548884  0.53913714  0.99631207  1
  H+  H71  1  0.59413211  0.39467879  0.33969851  1
  H+  H72  1  0.83750354  0.66960446  0.62858332  1
  H+  H73  1  0.36832313  0.63477651  0.01236049  1
  H+  H74  1  0.60301260  0.72762198  1.00604062  1
  H+  H75  1  0.83753312  0.62038538  0.00548754  1
  H+  H76  1  0.64674880  0.11173535  0.99212193  1
  H+  H77  1  0.22308810  0.35324628  0.17750850  1
  H+  H78  1  0.27929990  0.39829943  0.81513253  1
  H+  H79  1  0.13970135  0.38777015  0.01663786  1
  H+  H80  1  0.60129260  0.76298254  0.32573294  1
  H+  H81  1  0.61136688  0.60929032  1.00176363  1
  H+  H82  1  0.16041973  0.52254289  0.99867468  1
  H+  H83  1  0.53117230  0.13885041  0.00206446  1
  H+  H84  1  0.87343348  0.34427726  0.50111288  1
  H+  H85  1  0.60930770  0.62719671  0.15777495  1
  H+  H86  1  0.13802086  0.72258260  0.83594843  1
  H+  H87  1  0.86523230  0.09944649  0.32823752  1
  H+  H88  1  0.57009228  0.46594108  0.83253167  1
  H+  H89  1  0.70868831  0.59467312  0.66413041  1
  H+  H90  1  0.89141861  0.27353115  0.15982835  1
  H+  H91  1  0.41760504  0.57805559  0.55671837  1
  H+  H92  1  0.81742863  0.39416001  0.62805759  1
  H+  H93  1  0.11703048  -0.01570317  0.32956330  1
  H+  H94  1  0.10604904  0.23010545  0.16827610  1
  H+  H95  1  0.28320558  -0.03822140  1.04906723  1
  H+  H96  1  0.07114312  0.42917721  0.80234167  1
  H+  H97  1  0.78676473  0.79000848  0.20607804  1
  H+  H98  1  0.10190590  0.36712357  0.48335165  1
  H+  H99  1  0.16111956  0.58255071  0.45051570  1
  H+  H100  1  0.70554846  0.85998040  -0.00674895  1
  H+  H101  1  0.38810504  0.99144620  0.48148536  1
  H+  H102  1  0.70591666  0.11513144  0.51409436  1
  H+  H103  1  0.91774427  0.07230033  0.93578099  1
  H+  H104  1  0.59600866  0.35738563  0.83989618  1
  H+  H105  1  0.88023702  0.11332743  0.17538472  1
  H+  H106  1  0.88977101  0.61748055  0.33533095  1
  H+  H107  1  0.06163758  0.16022932  0.40604573  1
  H+  H108  1  0.98315338  0.12352445  0.17381375  1
  H+  H109  1  0.98403655  0.36294977  0.15812305  1
  H+  H110  1  0.14277788  0.40426121  0.80414233  1
  H+  H111  1  0.12697926  0.04608884  0.86585610  1
  H+  H112  1  0.85029251  0.46129353  0.50251982  1
  H+  H113  1  0.49647190  0.12124835  0.35291142  1
  H+  H114  1  0.85596075  0.47794081  0.34800221  1
  H+  H115  1  0.26013574  0.13048801  0.81769988  1
  H+  H116  1  0.88826680  0.77325536  0.32537371  1
  H+  H117  1  0.88866386  0.98253540  0.48611560  1
  H+  H118  1  0.73719066  0.86563840  0.50853609  1
  H+  H119  1  0.13129453  0.87550091  0.19392182  1
  H+  H120  1  0.84175897  0.71493069  0.17210547  1
  H+  H121  1  0.87527504  0.73202471  0.49497329  1
  H+  H122  1  0.59997108  0.60008078  0.84645846  1
  H+  H123  1  0.36535768  0.72439016  0.34308839  1
  H+  H124  1  0.36344554  0.24760650  0.83004681  1
  H+  H125  1  0.12648386  0.48249861  0.64863881  1
  H+  H126  1  0.51428199  0.88848671  -0.01260642  1
  H+  H127  1  0.18341360  0.54667162  0.83610461  1
  H+  H128  1  0.90768380  0.35019434  0.64874433  1
  H+  H129  1  0.08808225  0.61295302  0.50121172  1
  H+  H130  1  0.62401236  0.84525782  0.83654900  1
  H+  H131  1  0.90394518  0.07332869  0.27271589  1
  H+  H132  1  0.50974005  0.86121104  0.86573050  1
  H+  H133  1  0.62597160  0.36253009  0.99731591  1
  H+  H134  1  0.39174325  0.90450741  0.48999562  1
  H+  H135  1  0.01624539  0.67402716  0.02734637  1
  H+  H136  1  0.59350323  0.47341956  0.02087840  1
  H+  H137  1  0.90316920  0.87225319  0.50306369  1
  H+  H138  1  1.02738174  0.93233166  1.01427581  1
  H+  H139  1  0.95915062  0.59494260  0.51351975  1
  H+  H140  1  0.13197521  0.83803559  0.51391658  1
  H+  H141  1  0.47335366  0.86180357  0.52804871  1
  H+  H142  1  0.61882959  0.22724249  0.00339100  1
  H+  H143  1  0.63292918  0.02287648  0.16785123  1
  H+  H144  1  0.14822012  0.11046557  0.64117675  1
  H+  H145  1  0.57504368  0.92028497  0.09603655  1
  H+  H146  1  0.61378036  0.37936457  0.17999006  1
  H+  H147  1  1.04467074  0.64090908  0.84307342  1
  H+  H148  1  -0.00618479  0.61425611  0.67398124  1
  H+  H149  1  0.63061411  0.51748929  0.18720940  1
  H+  H150  1  0.87471316  0.21616667  0.66393376  1
  H+  H151  1  0.57608318  0.22549238  0.81848299  1
  H+  H152  1  0.11546961  0.62469969  0.16402332  1
  H+  H153  1  0.90113583  0.56341066  0.85235173  1
  H+  H154  1  0.58426831  0.37874660  0.68590633  1
  H+  H155  1  1.03719374  0.89468902  0.65251912  1
  H+  H156  1  0.47012740  0.33745160  0.50312333  1
  H+  H157  1  0.13005673  0.12896249  0.84115277  1
  H+  H158  1  0.87271849  0.20739093  0.02637177  1
  H+  H159  1  0.59131779  0.09134008  0.33299750  1
  H+  H160  1  0.39020585  0.85174405  0.18070849  1
  H+  H161  1  0.59496391  0.14836100  0.50826959  1
  H+  H162  1  0.61899526  0.73223039  0.49666018  1
  H+  H163  1  0.20541269  0.85479746  0.19543460  1
  H+  H164  1  0.28273250  0.63533875  0.67308582  1
  H+  H165  1  0.13842718  0.61547944  0.33718132  1
  H+  H166  1  0.09463535  0.70582268  0.50584955  1
  H+  H167  1  0.59611247  0.96843773  0.35787207  1
  H+  H168  1  0.36286935  0.47736154  0.16119946  1
  H+  H169  1  0.85183785  0.96327006  0.34460545  1
  H+  H170  1  0.38683630  0.37238069  0.98771197  1
  H+  H171  1  0.84993574  0.97087722  0.00625148  1
  H+  H172  1  0.67778159  0.32892181  0.70151098  1
  H+  H173  1  0.72015511  0.60476353  0.18155037  1
  H+  H174  1  0.26982411  0.62734489  1.00990959  1
  H+  H175  1  0.61083825  0.13440255  0.15860083  1
  H+  H176  1  0.34428936  0.41103747  0.38242899  1
  H+  H177  1  0.39881036  0.52429947  0.32106447  1
  H+  H178  1  0.16253684  0.84602076  0.83254722  1
  H+  H179  1  0.40865210  0.78053802  0.87117888  1
  H+  H180  1  0.97533428  0.94200316  0.79972526  1
  H+  H181  1  0.74983967  0.65500870  0.77966525  1
  H+  H182  1  0.39404789  0.03661160  1.00042225  1
  H+  H183  1  0.59760229  0.23828365  0.49766634  1
  H+  H184  1  0.73143352  0.10511187  0.00292038  1
  H+  H185  1  0.12899481  0.86282496  0.34637140  1
  H+  H186  1  0.75328242  0.12104340  0.34170621  1
  H+  H187  1  0.35535957  0.47396994  0.47478973  1
  H+  H188  1  0.87105827  1.00957602  0.83844469  1
  H+  H189  1  0.02167348  0.63400604  0.34878248  1
  H+  H190  1  0.38564743  0.28499426  0.18768474  1
  H+  H191  1  0.98911637  0.86343753  0.50361254  1
  H+  H192  1  0.45668716  0.34450805  0.65585527  1
  H+  H193  1  0.47948319  0.61159811  0.17178359  1
  H+  H194  1  0.17344177  0.58889494  0.27826640  1
  H+  H195  1  0.51634374  0.38645123  0.04951759  1
  H+  H196  1  0.62701351  0.95885637  0.83966333  1
  H+  H197  1  0.76895427  0.12740804  0.16927700  1
  H+  H198  1  0.38155970  0.62133023  0.84163762  1
  H+  H199  1  0.76014876  0.40241276  0.00044692  1
  H+  H200  1  0.12418136  0.72441968  0.68420257  1
  H+  H201  1  0.51930564  0.62995801  0.66811450  1
  H+  H202  1  0.12722501  0.35222739  0.31856996  1
  H+  H203  1  0.82201036  0.41404966  0.40472435  1
  H+  H204  1  0.36939408  -0.03312999  0.65391263  1
  H+  H205  1  0.23126645  0.11069778  0.33884899  1
  H+  H206  1  0.63734180  0.02241538  0.67054473  1
  H+  H207  1  0.88832130  1.02202206  0.16870489  1
  H+  H208  1  0.36904370  0.47979800  0.01124023  1
  H+  H209  1  0.84047864  0.88407711  0.80858017  1
  H+  H210  1  0.80128008  0.35342763  0.79629138  1
  H+  H211  1  0.94679723  0.34827628  0.32632579  1
  H+  H212  1  0.86226856  0.63780546  0.49653143  1
  H+  H213  1  0.13334569  0.12103343  0.18346814  1
  H+  H214  1  0.18359135  1.00004396  0.01648271  1
  H+  H215  1  0.69950046  0.86481822  0.65601130  1
  H+  H216  1  0.78195075  0.12976563  0.66695109  1
  H+  H217  1  0.79753123  0.43788860  0.78146991  1
  H+  H218  1  0.72655576  0.86091958  0.18120681  1
  H+  H219  1  0.37015501  0.63495566  0.16132303  1
  H+  H220  1  0.52543362  0.64520724  0.49156099  1
  H+  H221  1  0.91097359  0.51987827  0.66623658  1
  H+  H222  1  0.35551110  0.95391272  0.18098969  1
  H+  H223  1  0.61995885  0.60424417  0.50578704  1
  H+  H224  1  0.36217794  0.10754881  0.49275648  1
  H+  H225  1  0.36172983  0.15014296  0.16611426  1
  H+  H226  1  0.67958447  0.35001174  0.82988681  1
  H+  H227  1  0.30093675  0.89657646  1.01857496  1
  H+  H228  1  0.52742496  0.89081236  0.15981558  1
  H+  H229  1  0.87632128  0.81782277  0.23810046  1
  H+  H230  1  0.84904459  0.15097944  0.43004757  1
  H+  H231  1  0.91879983  0.58224032  0.27868129  1
  H+  H232  1  0.17422560  0.90553481  0.01343237  1
  H+  H233  1  0.37588447  0.52970675  0.83352734  1
  H+  H234  1  0.39210517  0.51658909  0.65078000  1
  H+  H235  1  0.92456910  0.13139757  0.49153438  1
  H+  H236  1  0.24601504  0.35870015  1.01094639  1
  H+  H237  1  0.36153519  0.08650340  0.83988214  1
  H+  H238  1  0.88127569  0.10175697  0.84081408  1
  H+  H239  1  0.85605425  0.42109524  -0.00289017  1
  H+  H240  1  0.35446297  0.12125713  0.66286072  1
  H+  H241  1  0.37190549  -0.04446580  0.82106966  1
  H+  H242  1  0.18805472  0.10944847  0.94671293  1
  H+  H243  1  0.90004827  0.02884763  0.64301170  1
  H+  H244  1  0.27834077  0.63578785  0.49396603  1
  H+  H245  1  0.32192118  0.15355668  0.75853663  1
  H+  H246  1  0.11671854  0.25494648  0.50004830  1
  H+  H247  1  0.14584726  0.76785618  -0.00147200  1
  H+  H248  1  0.65307371  0.64189945  0.33197579  1
  H+  H249  1  0.65500388  0.33998144  0.27518092  1
  H+  H250  1  0.64996893  0.33768642  0.93317525  1
  H+  H251  1  0.36113978  0.01134627  0.33801942  1
  H+  H252  1  0.93005725  0.32598956  1.07684056  1
  H+  H253  1  0.85036975  0.20858529  0.81266536  1
  H+  H254  1  0.11146289  0.08731152  0.48939743  1
  H+  H255  1  0.36668982  0.39104376  0.16500569  1
  H+  H256  1  0.11909685  0.96221315  0.48136532  1
  H+  H257  1  0.36106873  0.37610182  0.66384791  1
  H+  H258  1  0.39098546  0.60458319  0.65507563  1
  H+  H259  1  0.60201348  0.71544790  0.82813610  1
  H+  H260  1  0.99667825  0.35296313  0.64448704  1
  H+  H261  1  0.61552337  0.10409190  0.87829734  1
  H+  H262  1  0.50738167  0.63211366  0.82825955  1
  H+  H263  1  0.91881934  0.35407690  0.83708451  1
  H+  H264  1  0.22445523  0.12695393  0.17631792  1
  H+  H265  1  0.59448846  0.87952277  0.35309673  1
  H+  H266  1  0.57464474  0.06133287  0.87532291  1
  H+  H267  1  0.39397315  0.86075250  0.61166639  1
  H+  H268  1  0.62082887  0.77467895  0.67440835  1
  H+  H269  1  1.02768792  0.62563871  0.16594181  1
  H+  H270  1  0.00053178  0.12518057  0.83101073  1
  H+  H271  1  0.34826741  0.13081152  0.38236274  1
  H+  H272  1  0.47684078  0.36986541  0.19150249  1
  H+  H273  1  0.90543863  0.11899319  0.64419902  1
  H+  H274  1  0.15190959  0.85877833  0.65377619  1
  H+  H275  1  0.03376366  0.12963038  0.65553172  1
  H+  H276  1  0.50999071  0.90393772  0.68627108  1
  H+  H277  1  0.64970982  0.86531280  0.51826865  1
  H+  H278  1  0.55612405  0.01135697  0.28868648  1
  H+  H279  1  0.72698457  0.61084801  1.01365105  1
  H+  H280  1  0.86487001  0.90058280  0.66053874  1
  H+  H281  1  0.12646154  0.77757922  0.36804835  1
  H+  H282  1  0.78491432  0.65256927  0.34086924  1
  H+  H283  1  0.23779087  0.85153133  0.65754923  1
  H+  H284  1  0.61933340  0.37664957  0.48732125  1
  H+  H285  1  0.15574828  0.61637660  0.84867014  1
  H+  H286  1  0.89893267  0.75688050  0.80000748  1
  H+  H287  1  -0.02983266  0.86808795  0.31379398  1
  H+  H288  1  0.57715561  0.66862578  0.06780713  1
  H+  H289  1  0.61899342  0.71866905  0.16184372  1
  H+  H290  1  0.65789456  0.08600733  0.57727809  1
  H+  H291  1  0.04240907  0.17937127  0.77220391  1
  H+  H292  1  0.84330522  0.91410020  0.43235558  1
  H+  H293  1  0.11403865  0.21594053  0.02045360  1
  H+  H294  1  0.11182621  0.88454986  0.43841344  1
  H+  H295  1  0.09771194  0.66263552  0.74360313  1
  H+  H296  1  0.65456772  0.32353721  0.63191601  1
  H+  H297  1  0.63689259  0.56497251  0.56545912  1
  H+  H298  1  0.33595819  0.77623259  0.80252274  1
  H+  H299  1  0.18864979  0.82244737  0.93723292  1
  H+  H300  1  0.28806473  0.68298158  0.83341892  1
  H+  H301  1  0.57565388  0.91045622  0.45569158  1
  H+  H302  1  0.82041118  0.65154745  0.11549795  1
  H+  H303  1  0.34736125  0.42095182  0.07289585  1
  H+  H304  1  0.35802496  0.21541666  0.66394745  1
  H+  H305  1  0.19299367  0.31140383  0.95335897  1
  H+  H306  1  0.82679113  0.42456425  0.10397368  1
  H+  H307  1  0.82556594  0.92936090  0.71451383  1
  H+  H308  1  0.40890741  0.58314732  0.93653379  1
  H+  H309  1  0.59062747  0.88655511  0.68835723  1
  H+  H310  1  0.07300879  0.16338640  0.10987484  1
  H+  H311  1  0.63226737  0.56797118  0.94302004  1
  H+  H312  1  0.56858890  0.41832595  0.42469860  1
  H+  H313  1  0.40612455  0.30482243  0.59198183  1
  H+  H314  1  0.58648901  0.16749612  0.09859578  1
  H+  H315  1  0.41476871  0.08238529  0.93514933  1
  H+  H316  1  0.39082491  0.07152340  0.58466256  1
  H+  H317  1  0.85669182  0.87753975  0.34191183  1
  H+  H318  1  0.18951435  0.08754317  0.27100575  1
  H+  H319  1  0.72416352  0.35744065  0.17816121  1
  H+  H320  1  0.33880765  0.43101583  0.75681587  1
  H+  H321  1  0.86312440  0.11582000  0.01437375  1
  H+  H322  1  0.84472867  0.67716087  0.40084348  1
  H+  H323  1  0.45361010  0.09315153  0.64316691  1
  H+  H324  1  0.83976126  0.30086994  0.87800560  1
  H+  H325  1  0.66384602  0.37297762  0.54856472  1
  H+  H326  1  0.83267763  0.92861378  0.09995334  1
  H+  H327  1  0.07950452  0.66454496  0.07096050  1
  H+  H328  1  0.68167831  0.58868232  0.84964949  1
  H+  H329  1  0.37700055  0.08487372  0.29086446  1
  H+  H330  1  0.95960499  0.90451537  0.86525195  1
  H+  H331  1  0.83767123  0.21457949  0.33986328  1
  H+  H332  1  0.11801674  0.93243165  0.10706192  1
  H+  H333  1  0.65541351  0.07886973  0.22967317  1
  H+  H334  1  0.34545259  0.67496480  0.72939895  1
  H+  H335  1  0.39544801  0.36220810  0.27951722  1
  H+  H336  1  0.20610403  0.09949340  0.47925095  1
  H+  H337  1  0.85805546  0.89320980  0.16080479  1
  H+  H338  1  0.24534812  0.11401101  0.65382359  1
  H+  H339  1  0.16639790  0.32596806  0.55084781  1
  H+  H340  1  0.56242714  0.15308621  0.40785654  1
  H+  H341  1  0.57100305  0.65610452  0.73145474  1
  H+  H342  1  0.23531490  0.61060817  0.18190759  1
  H+  H343  1  0.81961910  0.38784271  0.70044785  1
  H+  H344  1  0.93040475  0.85042893  0.59145038  1
  H+  H345  1  0.14809397  0.52079316  0.18723631  1
  H+  H346  1  0.07255149  0.40308486  0.38745789  1
  H+  H347  1  0.10711104  0.42355916  0.11362378  1
  H+  H348  1  0.42330025  0.82568768  0.23916653  1
  H+  H349  1  0.67367205  0.60356920  0.27339091  1
  H+  H350  1  0.90404452  0.61387109  0.94237345  1
  H+  H351  1  0.19339399  0.58489311  0.93935803  1
  H+  H352  1  0.17893810  0.60486045  0.59507185  1
  H+  H353  1  0.87260599  0.79973377  0.95295978  1
  H+  H354  1  0.38820757  0.31433990  0.89269458  1
  H+  H355  1  0.54835841  0.41245026  0.76810056  1
  H+  H356  1  0.16242757  0.80529478  0.57087245  1
  H+  H357  1  0.27855821  0.38546718  0.66173374  1
  H+  H358  1  0.65588805  0.82180012  0.89705127  1
  H+  H359  1  0.42096498  0.58458971  0.23201306  1
  H+  H360  1  0.33768913  0.66479781  0.07551086  1
  H+  H361  1  0.10108283  0.91283572  0.70822418  1
  H+  H362  1  0.34046198  0.18738572  0.10866181  1
  H+  H363  1  0.12641025  0.50028881  0.48960884  1
  H+  H364  1  0.34022276  0.67442078  0.43740962  1
  H+  H365  1  0.45792066  0.12302663  0.50409479  1
  H+  H366  1  0.91284842  0.34278580  1.00773230  1
  H+  H367  1  0.82702166  0.14587165  0.10923599  1
  H+  H368  1  0.59386083  0.47064558  0.49042036  1
  H+  H369  1  0.58957763  0.47049664  0.67851691  1
  H+  H370  1  0.91481618  0.31670301  0.55543244  1
  H+  H371  1  0.07133400  0.65311976  0.41135020  1
  H+  H372  1  0.25206526  0.84935718  0.83502954  1
  H+  H373  1  0.69596421  0.05132785  0.91002245  1
  H+  H374  1  0.05481850  0.93878901  0.38579271  1
  H+  H375  1  0.14448674  0.34467719  0.88333277  1
  H+  H376  1  0.11007842  0.43069884  0.70915059  1
  H+  H377  1  0.56743019  0.91265816  0.77815262  1
  H+  H378  1  0.66818458  0.81656967  0.24004239  1
  H+  H379  1  0.09909739  0.14763113  0.71115759  1
  H+  H380  1  0.83965423  0.14973682  0.75544888  1
  H+  H381  1  0.58441779  0.14269580  0.81923188  1
  H+  H382  1  0.58995857  0.41564742  0.12258275  1
  H+  H383  1  0.33263969  0.90911366  0.11786380  1
  O2-  O384  1  0.06872222  0.16684601  0.15506069  1
  O2-  O385  1  0.05103209  0.14687876  0.48789250  1
  O2-  O386  1  0.05914027  0.16551706  0.81096430  1
  O2-  O387  1  0.09152902  0.41516027  0.15739454  1
  O2-  O388  1  0.07386723  0.40065436  0.46917762  1
  O2-  O389  1  0.12921168  0.44805766  0.78817313  1
  O2-  O390  1  0.08208093  0.64716105  0.14331658  1
  O2-  O391  1  0.05781240  0.64391221  0.48988159  1
  O2-  O392  1  0.10030715  0.66006504  0.82308151  1
  O2-  O393  1  0.08200635  0.92365207  0.14316824  1
  O2-  O394  1  0.09160581  0.89744406  0.47668513  1
  O2-  O395  1  0.09921617  0.87754928  0.78363402  1
  O2-  O396  1  0.33477213  0.18441784  0.15353199  1
  O2-  O397  1  0.31135159  0.15271829  0.46194818  1
  O2-  O398  1  0.32074141  0.15606616  0.80424779  1
  O2-  O399  1  0.33497388  0.41733636  0.14486313  1
  O2-  O400  1  0.32669749  0.41796219  0.45362634  1
  O2-  O401  1  0.33788559  0.43832394  0.80181301  1
  O2-  O402  1  0.33898023  0.66484896  0.14626277  1
  O2-  O403  1  0.33894239  0.67445868  0.48309083  1
  O2-  O404  1  0.34474531  0.72947117  0.81702526  1
  O2-  O405  1  0.33253419  0.89723115  0.16203165  1
  O2-  O406  1  0.39489358  0.94677285  0.45987405  1
  O2-  O407  1  0.34559565  0.89822807  0.80162388  1
  O2-  O408  1  0.58123982  0.16558641  0.14380742  1
  O2-  O409  1  0.56491803  0.17550956  0.48889397  1
  O2-  O410  1  0.55231036  0.16718336  0.79994716  1
  O2-  O411  1  0.58354862  0.41166247  0.16693440  1
  O2-  O412  1  0.56930600  0.41115873  0.47188872  1
  O2-  O413  1  0.54289553  0.40650385  0.81447302  1
  O2-  O414  1  0.58257953  0.66132938  0.14228563  1
  O2-  O415  1  0.58625373  0.67385776  0.47725050  1
  O2-  O416  1  0.56784643  0.65382008  0.81428077  1
  O2-  O417  1  0.58402452  0.92878291  0.14064912  1
  O2-  O418  1  0.57814872  0.91173457  0.50101557  1
  O2-  O419  1  0.57619331  0.90401501  0.82231201  1
  O2-  O420  1  0.83058317  0.15445028  0.15459976  1
  O2-  O421  1  0.86319786  0.15478444  0.47421697  1
  O2-  O422  1  0.83857813  0.15101530  0.80120064  1
  O2-  O423  1  0.82900099  0.41647149  0.14798907  1
  O2-  O424  1  0.82167731  0.40148334  0.48588624  1
  O2-  O425  1  0.76985376  0.37656507  0.77226843  1
  O2-  O426  1  0.82676863  0.65488450  0.15974784  1
  O2-  O427  1  0.84326519  0.67436999  0.47657236  1
  O2-  O428  1  0.93092358  0.73017339  0.78410781  1
  O2-  O429  1  0.84404708  0.93738868  0.14481409  1
  O2-  O430  1  0.85222028  0.92078756  0.47872766  1
  O2-  O431  1  0.81066715  0.91621514  0.80075033  1
  O2-  O432  1  0.16643280  0.09281071  0.19439452  1
  O2-  O433  1  0.14652190  0.05961422  0.49481068  1
  O2-  O434  1  0.16608631  0.10712474  0.85902290  1
  O2-  O435  1  0.16263123  0.32299885  0.19154137  1
  O2-  O436  1  0.15429489  0.31852779  0.50654893  1
  O2-  O437  1  0.16232361  0.33276509  0.84439907  1
  O2-  O438  1  0.17734919  0.58172937  0.20079265  1
  O2-  O439  1  0.15748919  0.56554703  0.49308655  1
  O2-  O440  1  0.19900737  0.59876585  0.86023279  1
  O2-  O441  1  0.16435968  0.85970193  0.22171171  1
  O2-  O442  1  0.15292298  0.79873927  0.52649114  1
  O2-  O443  1  0.19267585  0.82044978  0.85359405  1
  O2-  O444  1  0.40954107  0.08349847  0.16493232  1
  O2-  O445  1  0.39605291  0.08387026  0.51433943  1
  O2-  O446  1  0.39785460  0.06406864  0.85566172  1
  O2-  O447  1  0.41500873  0.34596645  0.20153699  1
  O2-  O448  1  0.41897059  0.29499105  0.52634616  1
  O2-  O449  1  0.38884336  0.30964615  0.84670753  1
  O2-  O450  1  0.41861898  0.58238744  0.18633552  1
  O2-  O451  1  0.41784049  0.58185242  0.51148750  1
  O2-  O452  1  0.40613838  0.58706889  0.85623070  1
  O2-  O453  1  0.42420675  0.82398897  0.19380709  1
  O2-  O454  1  0.41131591  0.83689228  0.53926379  1
  O2-  O455  1  0.46254320  0.81667969  0.89708625  1
  O2-  O456  1  0.66571036  0.08410283  0.18524162  1
  O2-  O457  1  0.64884815  0.08757162  0.53232470  1
  O2-  O458  1  0.70800363  0.02755055  0.87282463  1
  O2-  O459  1  0.66382892  0.32753626  0.19276637  1
  O2-  O460  1  0.65581142  0.34898748  0.50797395  1
  O2-  O461  1  0.62571130  0.32529023  0.85318154  1
  O2-  O462  1  0.65840296  0.58095244  0.19215226  1
  O2-  O463  1  0.63709649  0.56289451  0.52096255  1
  O2-  O464  1  0.62316424  0.56268168  0.86546310  1
  O2-  O465  1  0.69259464  0.80591059  0.20229818  1
  O2-  O466  1  0.67914275  0.83239271  0.52617757  1
  O2-  O467  1  0.65681873  0.81735709  0.85154901  1
  O2-  O468  1  0.91668587  0.08505468  0.18762801  1
  O2-  O469  1  0.96065241  0.10189873  0.50917749  1
  O2-  O470  1  0.90828241  0.06838313  0.85663022  1
  O2-  O471  1  0.92148891  0.33409907  0.14590184  1
  O2-  O472  1  0.90735021  0.31528540  0.51058301  1
  O2-  O473  1  0.85719838  0.31345970  0.83542314  1
  O2-  O474  1  0.91998811  0.58033119  0.19961199  1
  O2-  O475  1  0.89898385  0.56477566  0.53079573  1
  O2-  O476  1  0.93500599  0.62116848  0.86895058  1
  O2-  O477  1  0.84650763  0.80489067  0.19643688  1
  O2-  O478  1  0.93142316  0.84165881  0.52263794  1
  O2-  O479  1  0.94798851  0.88822453  0.82252158  1
  O2-  O480  1  0.19932287  0.06465374  0.30921796  1
  O2-  O481  1  0.18280376  0.08149241  0.63232000  1
  O2-  O482  1  0.18704334  0.10110013  0.99086077  1
  O2-  O483  1  0.15577510  0.31991423  0.30537247  1
  O2-  O484  1  0.17757282  0.33316521  0.63120464  1
  O2-  O485  1  0.18470553  0.32230475  0.99548346  1
  O2-  O486  1  0.17085745  0.58633212  0.32380240  1
  O2-  O487  1  0.17528149  0.59132586  0.63836524  1
  O2-  O488  1  0.19208086  0.58337594  0.98454740  1
  O2-  O489  1  0.15593080  0.84072868  0.37457588  1
  O2-  O490  1  0.17464318  0.81892877  0.65014587  1
  O2-  O491  1  0.18852957  0.82626457  0.98191066  1
  O2-  O492  1  0.38761553  0.07579705  0.33283103  1
  O2-  O493  1  0.39200151  0.06453751  0.63110583  1
  O2-  O494  1  0.42464287  0.09398188  0.97970158  1
  O2-  O495  1  0.39493581  0.36535453  0.32476522  1
  O2-  O496  1  0.39841482  0.30792494  0.63889018  1
  O2-  O497  1  0.41038504  0.33924179  0.96442814  1
  O2-  O498  1  0.42367303  0.58593079  0.30912417  1
  O2-  O499  1  0.42267650  0.57756938  0.63674201  1
  O2-  O500  1  0.41077133  0.58145249  0.98189203  1
  O2-  O501  1  0.41348267  0.82974773  0.31818203  1
  O2-  O502  1  0.40269136  0.87511968  0.65658713  1
  O2-  O503  1  0.44180989  0.86448491  0.94169093  1
  O2-  O504  1  0.60959693  0.05246888  0.30855132  1
  O2-  O505  1  0.67076154  0.08230242  0.65363494  1
  O2-  O506  1  0.67527733  0.07837311  0.98159664  1
  O2-  O507  1  0.65082526  0.34950717  0.31873068  1
  O2-  O508  1  0.63023175  0.31170732  0.67281295  1
  O2-  O509  1  0.66153973  0.34128262  0.97766555  1
  O2-  O510  1  0.69146083  0.62222275  0.31558202  1
  O2-  O511  1  0.64794797  0.56707523  0.65253118  1
  O2-  O512  1  0.63588233  0.57082158  0.98860263  1
  O2-  O513  1  0.60651098  0.81369331  0.30029678  1
  O2-  O514  1  0.64362971  0.83742090  0.67622194  1
  O2-  O515  1  0.64742386  0.82489797  0.97538792  1
  O2-  O516  1  0.89813988  0.07034610  0.31712530  1
  O2-  O517  1  0.93789938  0.09071560  0.62910628  1
  O2-  O518  1  0.91764110  0.07067381  0.98108004  1
  O2-  O519  1  0.88491687  0.31498453  0.31730875  1
  O2-  O520  1  0.93426243  0.31675267  0.63413693  1
  O2-  O521  1  0.93995223  0.31759376  1.03168643  1
  O2-  O522  1  0.91826925  0.58329069  0.32401733  1
  O2-  O523  1  0.93234351  0.58156305  0.65952373  1
  O2-  O524  1  0.88751028  0.60209866  0.98652323  1
  O2-  O525  1  0.90739792  0.83042978  0.30482536  1
  O2-  O526  1  0.93236678  0.85625122  0.63860329  1
  O2-  O527  1  0.87058693  0.80324723  0.99714237  1
  O2-  O528  1  0.07878701  0.15465132  0.03250020  1
  O2-  O529  1  0.06575754  0.16565709  0.36111236  1
  O2-  O530  1  0.09685422  0.15779402  0.66788804  1
  O2-  O531  1  0.11416436  0.42222974  0.03108803  1
  O2-  O532  1  0.07153824  0.40730664  0.34247634  1
  O2-  O533  1  0.10011449  0.42242291  0.66471666  1
  O2-  O534  1  0.07062538  0.67476923  0.02697288  1
  O2-  O535  1  0.08110416  0.66182866  0.36663372  1
  O2-  O536  1  0.09379557  0.66297035  0.69835733  1
  O2-  O537  1  0.18888808  0.95636297  0.04007099  1
  O2-  O538  1  0.06570268  0.92779095  0.34434083  1
  O2-  O539  1  0.09980544  0.92101483  0.66368344  1
  O2-  O540  1  0.35214770  0.18385827  0.02645117  1
  O2-  O541  1  0.32255699  0.16592427  0.39540443  1
  O2-  O542  1  0.32593019  0.15311397  0.68066126  1
  O2-  O543  1  0.34649217  0.41953017  0.02623341  1
  O2-  O544  1  0.35509720  0.41752447  0.33652272  1
  O2-  O545  1  0.33780986  0.41273719  0.67906143  1
  O2-  O546  1  0.33601465  0.66329637  0.02860614  1
  O2-  O547  1  0.33805570  0.66436686  0.35924390  1
  O2-  O548  1  0.34102951  0.65338010  0.68802947  1
  O2-  O549  1  0.33131419  0.94874684  0.04417326  1
  O2-  O550  1  0.32781438  0.91004676  0.35317300  1
  O2-  O551  1  0.34569178  0.90825722  0.67395149  1
  O2-  O552  1  0.59134717  0.16735655  0.01792440  1
  O2-  O553  1  0.55699694  0.14049182  0.36376202  1
  O2-  O554  1  0.55334465  0.13546734  0.67801296  1
  O2-  O555  1  0.57537996  0.41336442  0.03489141  1
  O2-  O556  1  0.56713153  0.42639197  0.35837575  1
  O2-  O557  1  0.55450625  0.41057852  0.69647855  1
  O2-  O558  1  0.57357719  0.66652226  0.02186603  1
  O2-  O559  1  0.58449210  0.68024986  0.35765362  1
  O2-  O560  1  0.57867150  0.66057217  0.68671530  1
  O2-  O561  1  0.56945139  0.90751282  0.01398230  1
  O2-  O562  1  0.57064015  0.91040296  0.37653188  1
  O2-  O563  1  0.56827370  0.92531070  0.70279760  1
  O2-  O564  1  0.83402642  0.14494791  0.03349319  1
  O2-  O565  1  0.81334994  0.15269668  0.35421150  1
  O2-  O566  1  0.84356691  0.15555148  0.67917713  1
  O2-  O567  1  0.82055337  0.44080745  0.01681364  1
  O2-  O568  1  0.82005234  0.41613506  0.35972456  1
  O2-  O569  1  0.85521406  0.40646614  0.66305923  1
  O2-  O570  1  0.78904055  0.64093432  0.03071602  1
  O2-  O571  1  0.84654484  0.67732897  0.35507487  1
  O2-  O572  1  0.83853717  0.65504979  0.67131867  1
  O2-  O573  1  0.81034020  0.91380565  0.02537004  1
  O2-  O574  1  0.82731876  0.90521489  0.36255144  1
  O2-  O575  1  0.83601770  0.93391427  0.67018320  1
