# generated using pymatgen
data_H2O
_symmetry_space_group_name_H-M   'P 1'
_cell_length_a   17.98236303
_cell_length_b   17.98218853
_cell_length_c   22.00833176
_cell_angle_alpha   89.99914016
_cell_angle_beta   89.97377902
_cell_angle_gamma   119.98681637
_symmetry_Int_Tables_number   1
_chemical_formula_structural   H2O
_chemical_formula_sum   'H384 O192'
_cell_volume   6164.02909569
_cell_formula_units_Z   192
loop_
 _symmetry_equiv_pos_site_id
 _symmetry_equiv_pos_as_xyz
  1  'x, y, z'
loop_
 _atom_type_symbol
 _atom_type_oxidation_number
  H+  1.0
  O2-  -2.0
loop_
 _atom_site_type_symbol
 _atom_site_label
 _atom_site_symmetry_multiplicity
 _atom_site_fract_x
 _atom_site_fract_y
 _atom_site_fract_z
 _atom_site_occupancy
  H+  H0  1  0.47626407  0.12700343  0.50841525  1
  H+  H1  1  0.85586473  0.22732856  0.16125193  1
  H+  H2  1  0.64501491  0.77344225  0.49189775  1
  H+  H3  1  0.10224761  0.11431807  0.31980229  1
  H+  H4  1  0.88745890  0.77470919  0.83776382  1
  H+  H5  1  0.85727621  0.22819330  0.82377681  1
  H+  H6  1  0.47874230  0.11296651  0.66676391  1
  H+  H7  1  0.14139485  0.52351721  0.98134554  1
  H+  H8  1  0.83224796  0.17076882  0.58650136  1
  H+  H9  1  0.26580875  0.36870187  0.16950673  1
  H+  H10  1  0.77208416  0.38139464  0.15925657  1
  H+  H11  1  0.88659846  0.52046618  0.98766205  1
  H+  H12  1  0.22497056  0.08505072  0.32085475  1
  H+  H13  1  0.12571632  0.88439918  0.67561323  1
  H+  H14  1  0.21282336  0.01690052  0.22006177  1
  H+  H15  1  0.27626320  0.88525599  0.50142962  1
  H+  H16  1  0.36445929  0.44548962  0.16870489  1
  H+  H17  1  0.39093909  0.11737231  0.83755566  1
  H+  H18  1  0.86912974  0.40716916  0.49206636  1
  H+  H19  1  0.01476343  0.87427023  0.14991198  1
  H+  H20  1  0.40111736  0.87044620  0.99656272  1
  H+  H21  1  0.11719013  0.37810309  -0.00932180  1
  H+  H22  1  0.28233823  0.89045599  0.67314570  1
  H+  H23  1  0.62859794  0.36794297  0.66852628  1
  H+  H24  1  0.61159413  0.23003996  0.68062879  1
  H+  H25  1  0.38566385  0.26058276  0.66028900  1
  H+  H26  1  0.73306285  0.87016196  0.81228905  1
  H+  H27  1  0.85421670  0.72484423  0.48664717  1
  H+  H28  1  0.77401792  0.39058703  0.33889176  1
  H+  H29  1  0.63784038  0.36007695  0.17833424  1
  H+  H30  1  0.51774186  0.97519220  0.78005613  1
  H+  H31  1  0.39199011  0.86627424  0.66484465  1
  H+  H32  1  0.03400161  0.39742089  0.18839589  1
  H+  H33  1  0.62047939  0.22485727  0.00450406  1
  H+  H34  1  0.38857711  0.16563308  0.34724651  1
  H+  H35  1  0.72191664  0.61244886  0.17124222  1
  H+  H36  1  0.14595674  0.27030253  -0.03087881  1
  H+  H37  1  0.90505930  0.89379998  0.65668962  1
  H+  H38  1  0.47955016  0.86198654  0.66299176  1
  H+  H39  1  0.62869590  1.02033770  0.16637962  1
  H+  H40  1  0.22670434  0.12886808  0.51245233  1
  H+  H41  1  0.61635419  0.85084367  0.32546442  1
  H+  H42  1  0.12465088  0.36426167  0.83095423  1
  H+  H43  1  0.38949214  0.25761598  0.17404372  1
  H+  H44  1  0.63324363  0.22809823  0.34828918  1
  H+  H45  1  0.86283927  0.97328501  0.48049694  1
  H+  H46  1  0.62265244  -0.00384052  1.01142021  1
  H+  H47  1  0.23536849  0.42572353  0.63188347  1
  H+  H48  1  0.87598909  0.64805262  0.66118200  1
  H+  H49  1  0.64373796  0.86172138  0.66460101  1
  H+  H50  1  0.58501142  0.17081676  0.74006057  1
  H+  H51  1  0.64310035  0.78562063  1.02547875  1
  H+  H52  1  0.61545010  0.62634714  0.50297200  1
  H+  H53  1  0.88545857  0.35933049  0.17797486  1
  H+  H54  1  0.13951520  0.77168689  0.50363538  1
  H+  H55  1  0.88054164  0.36071975  0.32988649  1
  H+  H56  1  0.09936899  0.96993461  0.32879948  1
  H+  H57  1  0.01681153  0.13998760  0.83065293  1
  H+  H58  1  0.02529402  0.01513118  0.27262730  1
  H+  H59  1  0.26927595  0.63823354  0.82581003  1
  H+  H60  1  0.87088248  0.64214536  0.81836713  1
  H+  H61  1  0.52323386  0.38200367  0.17169635  1
  H+  H62  1  0.39854998  0.36419498  0.00626186  1
  H+  H63  1  0.88893793  1.02492786  -0.00428487  1
  H+  H64  1  0.61363013  0.63321326  0.34496434  1
  H+  H65  1  0.60971020  0.97291179  0.49067987  1
  H+  H66  1  0.54879381  0.30422891  0.05840412  1
  H+  H67  1  0.38217174  0.77970764  0.16121884  1
  H+  H68  1  0.12442014  0.76348268  -0.01195556  1
  H+  H69  1  0.87758665  0.73724070  0.66155215  1
  H+  H70  1  0.08491845  0.41041803  0.04674768  1
  H+  H71  1  0.75403372  0.13319111  0.00832117  1
  H+  H72  1  0.87973342  0.36057437  0.83413863  1
  H+  H73  1  0.01903780  0.38687105  0.66872048  1
  H+  H74  1  0.10233045  0.87215711  -0.00609495  1
  H+  H75  1  0.84902335  0.13640181  0.00638618  1
  H+  H76  1  0.47394511  0.35131450  0.65462487  1
  H+  H77  1  0.89927114  0.86549181  0.31835139  1
  H+  H78  1  0.87504621  0.10452390  0.51118072  1
  H+  H79  1  0.36079187  0.50737589  0.66400887  1
  H+  H80  1  0.37123692  0.66271196  0.14951734  1
  H+  H81  1  0.63699679  0.61556627  1.00967910  1
  H+  H82  1  0.36480059  0.37224972  0.68535526  1
  H+  H83  1  0.86508227  0.72346461  0.00598604  1
  H+  H84  1  0.64227166  0.61759233  0.82091499  1
  H+  H85  1  0.71850096  0.37049157  0.66449755  1
  H+  H86  1  0.47462214  0.11099671  0.17312410  1
  H+  H87  1  0.11500934  0.72490208  0.82023297  1
  H+  H88  1  0.38719505  0.11276146  0.17007417  1
  H+  H89  1  0.23009964  0.09469691  0.98539731  1
  H+  H90  1  0.97749512  0.61338275  0.83247222  1
  H+  H91  1  0.88392405  0.61405216  0.32258749  1
  H+  H92  1  0.58064648  0.16753036  0.09818801  1
  H+  H93  1  0.52350435  0.63715271  0.01435402  1
  H+  H94  1  0.38725052  0.23345379  0.82002649  1
  H+  H95  1  0.96976186  0.34953613  0.98253173  1
  H+  H96  1  0.65067836  0.86378632  0.84319316  1
  H+  H97  1  0.64647688  0.82396357  0.23557339  1
  H+  H98  1  0.62583585  0.01355666  0.32095776  1
  H+  H99  1  0.87714433  0.11016684  0.83873941  1
  H+  H100  1  0.33246699  0.57773902  0.64887791  1
  H+  H101  1  0.36109989  0.64449271  0.82518515  1
  H+  H102  1  0.15570522  0.02781025  0.66400363  1
  H+  H103  1  0.37253167  0.64436427  0.35956519  1
  H+  H104  1  0.23741103  0.60281338  0.37676633  1
  H+  H105  1  0.15059850  0.77478876  0.65546282  1
  H+  H106  1  0.50195730  0.64013842  0.83396241  1
  H+  H107  1  0.36496192  0.88504978  0.50395440  1
  H+  H108  1  0.97828604  0.12584389  0.66049767  1
  H+  H109  1  0.43386987  0.96257797  0.37559629  1
  H+  H110  1  0.13554798  0.85582540  0.31686403  1
  H+  H111  1  0.38925006  0.27038606  0.00758351  1
  H+  H112  1  0.36141730  0.97957016  0.83036219  1
  H+  H113  1  0.10394765  0.47703617  0.82305687  1
  H+  H114  1  0.01470740  0.86973638  0.48582912  1
  H+  H115  1  0.51947199  0.88623902  0.15763505  1
  H+  H116  1  0.88631542  0.60959532  0.98826502  1
  H+  H117  1  0.37188902  0.40134227  0.49312812  1
  H+  H118  1  0.64130647  0.86056144  0.48679145  1
  H+  H119  1  0.23715317  0.36623821  0.33349936  1
  H+  H120  1  0.48085062  0.63136293  0.18274276  1
  H+  H121  1  0.72756922  0.61528231  0.32719497  1
  H+  H122  1  0.85971791  0.23520732  0.64126182  1
  H+  H123  1  0.63304705  0.13824600  0.34512270  1
  H+  H124  1  0.38947237  0.11282117  0.66535768  1
  H+  H125  1  0.62853104  0.85922569  0.17185780  1
  H+  H126  1  0.38251575  0.34202973  0.17297895  1
  H+  H127  1  0.72104192  0.11594588  0.64664502  1
  H+  H128  1  0.13174482  0.85595463  0.50497781  1
  H+  H129  1  0.02553095  0.64019348  0.48209965  1
  H+  H130  1  0.62363284  0.76582844  0.32772421  1
  H+  H131  1  0.38028149  -0.01328276  1.00845767  1
  H+  H132  1  0.64769879  0.87832599  1.02388449  1
  H+  H133  1  0.35902874  0.97683786  0.16303099  1
  H+  H134  1  0.67767658  0.33833781  0.93247786  1
  H+  H135  1  0.87442954  0.12044615  0.17696082  1
  H+  H136  1  0.08883437  0.13273988  0.21733735  1
  H+  H137  1  0.53536253  0.89924157  0.00581201  1
  H+  H138  1  0.15472538  0.82115834  0.92860758  1
  H+  H139  1  0.52817049  0.62966187  0.50518765  1
  H+  H140  1  0.61214325  0.63636915  0.66184782  1
  H+  H141  1  0.13342689  0.61192937  0.83170987  1
  H+  H142  1  0.13986906  0.62334274  0.50606561  1
  H+  H143  1  0.12074208  0.12663155  0.96261417  1
  H+  H144  1  0.76151253  0.13279054  0.50428629  1
  H+  H145  1  0.37030481  0.48650048  0.33888847  1
  H+  H146  1  0.15422677  0.27048496  0.33134761  1
  H+  H147  1  0.61583064  0.13247801  1.00960463  1
  H+  H148  1  0.03940612  0.88870300  0.67768773  1
  H+  H149  1  0.10932908  0.72294606  0.32404753  1
  H+  H150  1  0.49433627  0.89654598  0.82247369  1
  H+  H151  1  0.62411836  0.03214522  0.84114955  1
  H+  H152  1  0.73129183  0.86106290  0.66467110  1
  H+  H153  1  0.41619094  0.36368367  0.84324954  1
  H+  H154  1  0.22250901  0.85779010  0.16404819  1
  H+  H155  1  0.02238759  0.62748466  -0.00399595  1
  H+  H156  1  0.28014385  0.13512488  0.67229972  1
  H+  H157  1  0.87026045  0.23419081  0.36184252  1
  H+  H158  1  0.11013592  0.95611456  0.15379704  1
  H+  H159  1  0.61907142  0.73045226  0.80263659  1
  H+  H160  1  0.52323795  0.88267569  0.49561650  1
  H+  H161  1  0.51034703  0.35518373  0.02300698  1
  H+  H162  1  0.37371109  0.85911014  0.84314794  1
  H+  H163  1  0.48325783  0.62051893  0.33995982  1
  H+  H164  1  0.34499856  0.16945928  0.73134631  1
  H+  H165  1  0.73184219  0.62044310  0.65302779  1
  H+  H166  1  0.89609134  0.53664246  0.49828463  1
  H+  H167  1  0.22398017  0.85537452  0.83704343  1
  H+  H168  1  0.37053578  0.73022307  -0.00562130  1
  H+  H169  1  0.89423402  0.62575364  0.49937507  1
  H+  H170  1  0.11186882  0.26976974  0.50804344  1
  H+  H171  1  0.11479762  0.24395266  0.67978837  1
  H+  H172  1  0.50541036  0.87522224  0.34013215  1
  H+  H173  1  0.09390954  0.38733494  0.50297074  1
  H+  H174  1  0.88058232  0.28572225  0.51228765  1
  H+  H175  1  0.58248575  0.40666393  0.11328668  1
  H+  H176  1  0.01814117  0.14476605  0.18493905  1
  H+  H177  1  -0.02564626  0.85878010  -0.00993667  1
  H+  H178  1  0.84917418  0.92545164  0.73255728  1
  H+  H179  1  0.77561967  0.63491655  1.00987555  1
  H+  H180  1  0.61401167  0.97595863  0.67034688  1
  H+  H181  1  0.88420450  0.15390986  0.36539923  1
  H+  H182  1  0.52284374  0.14261944  0.83327664  1
  H+  H183  1  0.52908746  0.39257033  0.33826998  1
  H+  H184  1  0.08919109  0.16023793  -0.09198239  1
  H+  H185  1  0.97258858  0.37573345  0.51077927  1
  H+  H186  1  0.13798034  1.00776384  -0.01850102  1
  H+  H187  1  0.27953867  0.64058387  -0.00801587  1
  H+  H188  1  0.25579302  0.64817914  0.67051261  1
  H+  H189  1  0.61341534  0.14444142  0.83499599  1
  H+  H190  1  0.12436298  0.40425596  0.19002050  1
  H+  H191  1  0.27552207  0.18527888  0.03192413  1
  H+  H192  1  0.60518691  0.21640007  0.49908569  1
  H+  H193  1  0.40035503  0.28945712  0.33382712  1
  H+  H194  1  0.36840529  0.63509345  0.50891993  1
  H+  H195  1  1.01390992  0.38697862  0.82402531  1
  H+  H196  1  0.27857262  0.63789296  0.51031582  1
  H+  H197  1  0.37011599  -0.01909890  0.67551845  1
  H+  H198  1  0.15910178  0.82303042  0.25638054  1
  H+  H199  1  0.64287194  0.35682653  0.99550759  1
  H+  H200  1  0.88616307  0.86010197  0.99661861  1
  H+  H201  1  0.23131975  0.35913436  0.98810583  1
  H+  H202  1  0.60871419  0.72658358  0.16677903  1
  H+  H203  1  0.14522042  0.04882761  0.22945014  1
  H+  H204  1  0.16383123  0.58358933  0.89192422  1
  H+  H205  1  0.14268765  0.38467762  0.66054693  1
  H+  H206  1  0.63835976  0.36341597  0.32845800  1
  H+  H207  1  0.61268012  0.47296587  0.49579374  1
  H+  H208  1  0.86766603  0.38578477  1.00388058  1
  H+  H209  1  0.10167252  0.48001340  0.50812136  1
  H+  H210  1  0.65279155  0.37370438  0.84027400  1
  H+  H211  1  0.92040666  0.59047230  0.58898338  1
  H+  H212  1  0.97839990  0.61163969  0.64824108  1
  H+  H213  1  0.62545791  0.10766052  0.50519720  1
  H+  H214  1  0.39637372  0.53056056  0.50356189  1
  H+  H215  1  1.00877780  0.12977824  0.49020217  1
  H+  H216  1  0.87801089  0.76259339  0.16723043  1
  H+  H217  1  0.71696424  0.52614410  0.53875337  1
  H+  H218  1  0.88015598  0.51887346  0.16960281  1
  H+  H219  1  0.86674938  0.47934828  0.82185305  1
  H+  H220  1  0.88767602  0.11847377  0.64528574  1
  H+  H221  1  0.61477307  0.34818985  0.50959069  1
  H+  H222  1  0.77748138  0.38962368  0.82365642  1
  H+  H223  1  0.15510871  0.12741696  0.83256940  1
  H+  H224  1  0.02430817  0.87639177  0.83116115  1
  H+  H225  1  0.47687485  0.12653050  0.99545451  1
  H+  H226  1  0.38791560  0.61013793  0.99129504  1
  H+  H227  1  0.27981828  0.12764368  0.16005534  1
  H+  H228  1  0.50321168  0.36246678  0.83431867  1
  H+  H229  1  0.77476362  0.88482799  0.47108120  1
  H+  H230  1  0.82689021  0.16547776  0.76638409  1
  H+  H231  1  0.86305679  0.47960192  0.33366288  1
  H+  H232  1  0.82621688  0.16997372  0.09956333  1
  H+  H233  1  0.87195637  0.98683331  0.67351582  1
  H+  H234  1  0.37496992  0.39878008  0.33520563  1
  H+  H235  1  0.62121896  0.49998723  0.66688773  1
  H+  H236  1  0.82878852  0.91378889  0.24333862  1
  H+  H237  1  0.25938753  0.12575060  0.33617100  1
  H+  H238  1  0.41202794  0.33558792  0.56693599  1
  H+  H239  1  0.02268681  0.87643155  0.33290065  1
  H+  H240  1  0.47340199  0.36826718  0.50759728  1
  H+  H241  1  0.08807138  0.90785017  0.77415684  1
  H+  H242  1  0.36979077  0.76315934  0.33359443  1
  H+  H243  1  0.64220200  0.27891478  0.84138144  1
  H+  H244  1  0.87879527  0.86275813  0.49235040  1
  H+  H245  1  0.97596631  0.10957817  0.97685817  1
  H+  H246  1  0.86788929  -0.02149132  0.82683985  1
  H+  H247  1  0.85825205  0.48192339  0.66635775  1
  H+  H248  1  0.10549542  0.23502360  0.83016584  1
  H+  H249  1  0.60726649  0.63538474  0.16859694  1
  H+  H250  1  0.35946373  0.23826926  0.49593173  1
  H+  H251  1  0.13695585  0.12597011  0.51578033  1
  H+  H252  1  0.87924742  0.36768304  0.65899502  1
  H+  H253  1  0.87601093  0.26432492  0.98981092  1
  H+  H254  1  0.09970158  0.63271701  0.30663368  1
  H+  H255  1  0.37673773  0.77013223  0.84017830  1
  H+  H256  1  0.42315106  0.33577611  0.26830260  1
  H+  H257  1  0.97387827  0.61410561  0.31862530  1
  H+  H258  1  0.14053520  0.27317090  0.19082924  1
  H+  H259  1  0.13692781  0.61042236  0.98667237  1
  H+  H260  1  0.35286041  0.72039313  0.66232426  1
  H+  H261  1  0.10324269  0.45018794  0.35760044  1
  H+  H262  1  -0.00305484  0.13887453  0.32767843  1
  H+  H263  1  0.78027673  0.38773773  0.00489551  1
  H+  H264  1  0.16839553  0.17373691  0.37367688  1
  H+  H265  1  0.90470966  0.32548550  0.89426032  1
  H+  H266  1  0.33451374  0.92159641  0.76951057  1
  H+  H267  1  0.87790105  0.85181761  0.17966891  1
  H+  H268  1  0.87474080  0.03216728  0.19130598  1
  H+  H269  1  0.40004343  0.48563679  0.83783073  1
  H+  H270  1  0.76167077  0.88275676  0.19028972  1
  H+  H271  1  0.61307457  0.72471525  0.66702066  1
  H+  H272  1  0.36003825  0.88836006  0.16131958  1
  H+  H273  1  0.39895129  0.04803039  0.33590744  1
  H+  H274  1  0.37960470  0.56286892  0.18743871  1
  H+  H275  1  0.85569519  0.62970775  0.15885383  1
  H+  H276  1  0.13117444  0.84932677  0.83716050  1
  H+  H277  1  0.61884730  0.47933713  0.34077293  1
  H+  H278  1  0.16862412  0.34261859  0.88612254  1
  H+  H279  1  0.77140776  0.62762733  0.49136784  1
  H+  H280  1  0.38664041  0.12527721  0.99729262  1
  H+  H281  1  0.63510662  0.26943007  0.17301824  1
  H+  H282  1  0.10680529  0.71853045  0.14684498  1
  H+  H283  1  0.86161825  0.72411209  0.33649747  1
  H+  H284  1  0.86921028  0.88868032  0.82741125  1
  H+  H285  1  0.28000419  0.37721223  0.69392447  1
  H+  H286  1  0.12755152  0.54083895  0.22915850  1
  H+  H287  1  0.71664759  1.11105253  0.16753255  1
  H+  H288  1  0.34883228  0.43208822  0.43129877  1
  H+  H289  1  0.91922414  0.82187297  0.26148539  1
  H+  H290  1  0.07398058  0.16081583  0.43379924  1
  H+  H291  1  0.98632571  0.92537014  0.61357429  1
  H+  H292  1  0.08188948  0.17475165  0.06917909  1
  H+  H293  1  0.40473868  0.57121795  0.56860314  1
  H+  H294  1  0.07715756  0.90763261  0.05341778  1
  H+  H295  1  0.40624722  0.82579188  0.22683651  1
  H+  H296  1  0.63686323  0.52733711  1.00620984  1
  H+  H297  1  0.42119809  0.10112773  0.56957152  1
  H+  H298  1  0.61321522  0.42998155  0.76725099  1
  H+  H299  1  0.42479385  0.60807125  0.28147721  1
  H+  H300  1  0.63326877  0.52334908  0.17660102  1
  H+  H301  1  0.58606866  0.65961866  0.40739112  1
  H+  H302  1  0.83951414  0.17412784  0.45532580  1
  H+  H303  1  0.82973080  0.66457629  0.39666265  1
  H+  H304  1  0.15709277  0.60265591  0.57265854  1
  H+  H305  1  0.42387056  0.83567374  0.57274053  1
  H+  H306  1  0.85937449  0.93208386  0.07392710  1
  H+  H307  1  0.91440268  0.07389134  0.56358666  1
  H+  H308  1  0.91261231  0.34731263  0.59713352  1
  H+  H309  1  0.33265404  0.16622197  0.09469979  1
  H+  H310  1  0.47163672  0.68619810  0.88000473  1
  H+  H311  1  0.90471323  0.83417343  0.55462970  1
  H+  H312  1  0.67826361  0.57846783  0.58931381  1
  H+  H313  1  0.90385782  0.32253386  0.23923701  1
  H+  H314  1  0.84819241  0.67833742  0.75865097  1
  H+  H315  1  0.92694137  0.10977467  0.27487871  1
  H+  H316  1  0.10493236  0.36872358  0.33269813  1
  H+  H317  1  0.96634447  0.35313969  0.32539268  1
  H+  H318  1  0.42220082  0.83838294  0.93424515  1
  H+  H319  1  0.17815305  0.09238807  0.60736590  1
  H+  H320  1  0.83050311  0.66133400  0.09813763  1
  H+  H321  1  0.59014183  0.16244497  0.43731209  1
  H+  H322  1  0.17283474  0.83397328  0.59707585  1
  H+  H323  1  0.01525968  0.63382586  0.14771349  1
  H+  H324  1  0.85072824  0.92403904  0.38078508  1
  H+  H325  1  0.91175823  0.82960944  0.89999293  1
  H+  H326  1  0.07532393  0.41556065  0.72889899  1
  H+  H327  1  0.66449636  0.08695143  0.94844598  1
  H+  H328  1  0.58238541  0.91897542  0.09885034  1
  H+  H329  1  0.34032414  0.67907136  0.08577206  1
  H+  H330  1  0.32698345  0.40790963  0.06821932  1
  H+  H331  1  0.57688311  0.66335603  0.07638640  1
  H+  H332  1  0.08062142  0.18355810  0.73768545  1
  H+  H333  1  0.05477574  0.19559141  0.06856871  1
  H+  H334  1  0.57903371  0.66107129  0.74930711  1
  H+  H335  1  0.71945726  0.11324004  0.84129304  1
  H+  H336  1  0.66611167  0.58590958  0.26869648  1
  H+  H337  1  0.71888747  0.80554356  0.92020875  1
  H+  H338  1  0.60779323  0.13496421  0.15740440  1
  H+  H339  1  0.57790147  0.41538171  0.43468187  1
  H+  H340  1  0.90419741  0.07924368  0.89914599  1
  H+  H341  1  0.35063855  0.92667163  0.06715478  1
  H+  H342  1  0.77841592  0.89267741  0.02919672  1
  H+  H343  1  0.29127296  0.14885617  0.82009341  1
  H+  H344  1  0.89577727  -0.00270757  0.33195992  1
  H+  H345  1  0.18243806  0.33830443  0.24514411  1
  H+  H346  1  0.83430270  0.41264100  0.10044171  1
  H+  H347  1  0.16479915  0.57116278  0.29423021  1
  H+  H348  1  0.14988262  0.33262356  0.56550363  1
  H+  H349  1  0.07818323  0.65727976  0.05764589  1
  H+  H350  1  0.08556958  0.66422436  0.76056174  1
  H+  H351  1  0.63685137  0.49294519  0.82413537  1
  H+  H352  1  0.41669204  0.09401203  0.27161803  1
  H+  H353  1  0.91685267  0.58364900  0.89190117  1
  H+  H354  1  0.67642190  0.76600770  0.91420293  1
  H+  H355  1  0.42756648  0.58086399  0.93856575  1
  H+  H356  1  0.35562759  0.41788411  0.78591829  1
  H+  H357  1  0.91089756  0.58142851  0.22754623  1
  H+  H358  1  0.00421500  0.45075129  0.09287855  1
  H+  H359  1  0.12954578  0.84985423  0.15923853  1
  H+  H360  1  0.18309703  0.08573164  0.88493485  1
  H+  H361  1  0.36642153  0.84963782  0.32693603  1
  H+  H362  1  0.04425129  0.49383192  0.09355376  1
  H+  H363  1  0.39208067  0.77215734  0.51607277  1
  H+  H364  1  0.08003705  0.90260207  0.43044354  1
  H+  H365  1  0.41568080  0.08934466  0.90081892  1
  H+  H366  1  0.56847833  0.90796798  0.39854206  1
  H+  H367  1  0.14539876  0.58935820  0.39359750  1
  H+  H368  1  0.73421258  0.62373223  0.82471216  1
  H+  H369  1  0.63310015  0.11477188  0.66423118  1
  H+  H370  1  0.66802385  0.33137153  0.26976797  1
  H+  H371  1  0.84405408  0.43604432  0.43028608  1
  H+  H372  1  0.64996050  0.07358225  0.56504298  1
  H+  H373  1  0.65472531  0.07402710  0.26268677  1
  H+  H374  1  0.35326745  0.93364177  0.41700762  1
  H+  H375  1  0.34673727  0.67599762  0.42096061  1
  H+  H376  1  0.64367411  0.32214044  0.57038314  1
  H+  H377  1  0.08268660  0.66531599  0.42126757  1
  H+  H378  1  0.57894343  0.91925213  0.72957666  1
  H+  H379  1  0.53994606  0.45064383  0.70982084  1
  H+  H380  1  0.36224141  0.47193308  0.01058843  1
  H+  H381  1  0.35313681  0.19107721  0.40805275  1
  H+  H382  1  0.83195124  0.42554054  0.72789474  1
  H+  H383  1  0.36445299  0.15235245  0.49910475  1
  O2-  O384  1  0.08103305  0.16739126  0.18575781  1
  O2-  O385  1  0.07060577  0.16463654  0.47831011  1
  O2-  O386  1  0.07986699  0.16993779  0.82337847  1
  O2-  O387  1  0.09582143  0.43785119  0.18172834  1
  O2-  O388  1  0.06537291  0.42162847  0.49188247  1
  O2-  O389  1  0.07355651  0.41629800  0.80792687  1
  O2-  O390  1  0.07266194  0.66050657  0.12849695  1
  O2-  O391  1  0.08607639  0.66599302  0.46631157  1
  O2-  O392  1  0.08130242  0.66292048  0.80525140  1
  O2-  O393  1  0.07356433  0.90057808  0.13210940  1
  O2-  O394  1  0.07590555  0.89420135  0.47495601  1
  O2-  O395  1  0.08478474  0.89875899  0.81872463  1
  O2-  O396  1  0.33839503  0.16358435  0.14353605  1
  O2-  O397  1  0.33039080  0.17789456  0.48036920  1
  O2-  O398  1  0.35207426  0.17155963  0.80496734  1
  O2-  O399  1  0.32548151  0.39214614  0.14825895  1
  O2-  O400  1  0.35163439  0.43937997  0.47597331  1
  O2-  O401  1  0.36875893  0.42421947  0.83020057  1
  O2-  O402  1  0.33763557  0.68577957  0.13047235  1
  O2-  O403  1  0.33894643  0.66773505  0.49538784  1
  O2-  O404  1  0.33108315  0.67585343  0.81503307  1
  O2-  O405  1  0.32822946  0.91718679  0.14595022  1
  O2-  O406  1  0.33692425  0.91657104  0.48792366  1
  O2-  O407  1  0.33152348  0.91890973  0.81502291  1
  O2-  O408  1  0.57947202  0.16843948  0.14392358  1
  O2-  O409  1  0.57890095  0.15603899  0.48312674  1
  O2-  O410  1  0.58374711  0.17453839  0.81769542  1
  O2-  O411  1  0.58481468  0.41680545  0.15823927  1
  O2-  O412  1  0.57236439  0.41282158  0.47987002  1
  O2-  O413  1  0.61333851  0.42968728  0.81202674  1
  O2-  O414  1  0.57470536  0.66398609  0.15426817  1
  O2-  O415  1  0.58690366  0.65576654  0.48604797  1
  O2-  O416  1  0.58462621  0.66700140  0.79604419  1
  O2-  O417  1  0.58110271  0.91478736  0.14484418  1
  O2-  O418  1  0.58063373  0.91265339  0.47488135  1
  O2-  O419  1  0.54451940  0.94568246  0.79950422  1
  O2-  O420  1  0.82465181  0.16678273  0.14514374  1
  O2-  O421  1  0.82617868  0.16579881  0.50127672  1
  O2-  O422  1  0.82633155  0.16545172  0.81062169  1
  O2-  O423  1  0.83347883  0.41319178  0.14582037  1
  O2-  O424  1  0.84920943  0.44541319  0.47504993  1
  O2-  O425  1  0.83701317  0.41893324  0.80580387  1
  O2-  O426  1  0.82572654  0.66107068  0.14373536  1
  O2-  O427  1  0.83024116  0.66482910  0.47119452  1
  O2-  O428  1  0.84434162  0.67632128  0.80378302  1
  O2-  O429  1  0.82580306  0.91435837  0.19870050  1
  O2-  O430  1  0.83861845  0.91646320  0.46005238  1
  O2-  O431  1  0.84139068  0.91979300  0.80859664  1
  O2-  O432  1  0.18303549  0.04070456  0.19734391  1
  O2-  O433  1  0.17009222  0.10111591  0.53350283  1
  O2-  O434  1  0.19277261  0.10385480  0.84186117  1
  O2-  O435  1  0.17946087  0.33653822  0.19907820  1
  O2-  O436  1  0.13645955  0.32995136  0.52183152  1
  O2-  O437  1  0.15414239  0.33174162  0.84252701  1
  O2-  O438  1  0.14991604  0.59092458  0.25677306  1
  O2-  O439  1  0.16797809  0.59660804  0.52956083  1
  O2-  O440  1  0.16263240  0.58031696  0.84644619  1
  O2-  O441  1  0.16102884  0.82286574  0.17739305  1
  O2-  O442  1  0.16524725  0.82927469  0.52262968  1
  O2-  O443  1  0.16310913  0.81777204  0.84966616  1
  O2-  O444  1  0.41435399  0.08094190  0.18873828  1
  O2-  O445  1  0.42250815  0.11932386  0.52711854  1
  O2-  O446  1  0.41877071  0.08511562  0.85561187  1
  O2-  O447  1  0.41821600  0.31902193  0.18988794  1
  O2-  O448  1  0.41203917  0.34013434  0.52181670  1
  O2-  O449  1  0.44245830  0.32637962  0.84633540  1
  O2-  O450  1  0.42401640  0.61861413  0.20176135  1
  O2-  O451  1  0.42496463  0.58855964  0.52585047  1
  O2-  O452  1  0.45179438  0.62968571  0.86223989  1
  O2-  O453  1  0.41374907  0.83744530  0.18253098  1
  O2-  O454  1  0.42396507  0.83450569  0.52712287  1
  O2-  O455  1  0.40830801  0.83201949  0.85587554  1
  O2-  O456  1  0.65548161  0.08114446  0.18107900  1
  O2-  O457  1  0.65636029  0.07597585  0.52011626  1
  O2-  O458  1  0.66146377  0.08975941  0.85937169  1
  O2-  O459  1  0.66938829  0.32955810  0.18946404  1
  O2-  O460  1  0.64178162  0.31581821  0.52588468  1
  O2-  O461  1  0.67941697  0.33942576  0.85592512  1
  O2-  O462  1  0.66274446  0.58519602  0.18915856  1
  O2-  O463  1  0.68923208  0.55917466  0.52787865  1
  O2-  O464  1  0.67331211  0.58920817  0.83753155  1
  O2-  O465  1  0.65574223  0.82690761  0.18941506  1
  O2-  O466  1  0.67993148  0.83661168  0.49292633  1
  O2-  O467  1  0.66883729  0.84044024  0.81035809  1
  O2-  O468  1  0.90623528  0.09496747  0.19838954  1
  O2-  O469  1  0.90732622  0.07327079  0.51850195  1
  O2-  O470  1  0.90815395  0.08084391  0.85353685  1
  O2-  O471  1  0.91122921  0.32532616  0.19363984  1
  O2-  O472  1  0.90910053  0.34641871  0.52528301  1
  O2-  O473  1  0.90623998  0.32600815  0.84856439  1
  O2-  O474  1  0.90788832  0.58061678  0.18199159  1
  O2-  O475  1  0.92745448  0.59877166  0.51529875  1
  O2-  O476  1  0.91622871  0.58343561  0.84629141  1
  O2-  O477  1  0.91273201  0.82319832  0.18316721  1
  O2-  O478  1  0.90408833  0.82807800  0.51009867  1
  O2-  O479  1  0.91520241  0.83438938  0.85461485  1
  O2-  O480  1  0.08663720  0.05454378  0.27665295  1
  O2-  O481  1  0.18619810  0.08891391  0.65235057  1
  O2-  O482  1  0.17288568  0.06810488  0.96541436  1
  O2-  O483  1  0.17672171  0.33103707  0.31801548  1
  O2-  O484  1  0.18664713  0.36922417  0.64453903  1
  O2-  O485  1  0.17352025  0.33421962  0.96854143  1
  O2-  O486  1  0.17396584  0.56021860  0.37672147  1
  O2-  O487  1  0.13340737  0.61457277  0.65598458  1
  O2-  O488  1  0.17114149  0.58469319  0.96898712  1
  O2-  O489  1  0.15884878  0.81985597  0.30159073  1
  O2-  O490  1  0.17714512  0.83548879  0.64301356  1
  O2-  O491  1  0.14760865  0.82331943  0.97326850  1
  O2-  O492  1  0.42141041  0.10441911  0.31597939  1
  O2-  O493  1  0.41875309  0.08009822  0.65137562  1
  O2-  O494  1  0.41669749  0.09712810  0.97952175  1
  O2-  O495  1  0.42758000  0.34828921  0.31266312  1
  O2-  O496  1  0.41232105  0.32303873  0.64527493  1
  O2-  O497  1  0.42956031  0.33309816  0.99667643  1
  O2-  O498  1  0.42184953  0.59544057  0.32562412  1
  O2-  O499  1  0.34053131  0.53057429  0.63153820  1
  O2-  O500  1  0.41861580  0.57703282  0.98316010  1
  O2-  O501  1  0.39339148  0.81786958  0.30982584  1
  O2-  O502  1  0.41855931  0.83291628  0.64873542  1
  O2-  O503  1  0.42694758  0.83588226  0.97923025  1
  O2-  O504  1  0.65999843  0.07393919  0.30747199  1
  O2-  O505  1  0.65711783  0.08011935  0.64609178  1
  O2-  O506  1  0.66601775  0.08798518  0.99308708  1
  O2-  O507  1  0.67119668  0.33503874  0.31490498  1
  O2-  O508  1  0.65572751  0.33524376  0.65472205  1
  O2-  O509  1  0.67979224  0.33551490  0.97799334  1
  O2-  O510  1  0.66561805  0.58451942  0.31405092  1
  O2-  O511  1  0.67260813  0.58710334  0.63715329  1
  O2-  O512  1  0.67076508  0.58799014  0.99642563  1
  O2-  O513  1  0.64528956  0.82155496  0.30658194  1
  O2-  O514  1  0.67140683  0.82916868  0.65040696  1
  O2-  O515  1  0.68181936  0.84839265  1.02797637  1
  O2-  O516  1  0.93524892  0.10570330  0.31959265  1
  O2-  O517  1  0.91973514  0.08664129  0.64259903  1
  O2-  O518  1  0.91240169  0.08234106  0.97593472  1
  O2-  O519  1  0.90309881  0.32312375  0.31517578  1
  O2-  O520  1  0.91034821  0.33886711  0.64307297  1
  O2-  O521  1  0.90840422  0.32422267  0.97121890  1
  O2-  O522  1  0.91222983  0.58318268  0.30486412  1
  O2-  O523  1  0.91818508  0.58821043  0.63526557  1
  O2-  O524  1  0.91499135  0.57954396  0.96969148  1
  O2-  O525  1  0.92055539  0.82505413  0.30689419  1
  O2-  O526  1  0.94252174  0.87391698  0.63414369  1
  O2-  O527  1  0.91121555  0.82692926  0.97838407  1
  O2-  O528  1  0.09059752  0.15953428  -0.04693904  1
  O2-  O529  1  0.11601795  0.16508399  0.35405543  1
  O2-  O530  1  0.07099787  0.18721638  0.69367036  1
  O2-  O531  1  0.08424212  0.40811654  0.00245300  1
  O2-  O532  1  0.06759033  0.39399131  0.33806707  1
  O2-  O533  1  0.07891130  0.41506576  0.68384648  1
  O2-  O534  1  0.08256159  0.65604217  0.01122630  1
  O2-  O535  1  0.07881984  0.65976401  0.33681930  1
  O2-  O536  1  0.09525642  0.65605163  0.67419872  1
  O2-  O537  1  0.07527444  0.90803109  0.00813811  1
  O2-  O538  1  0.08365280  0.91351128  0.34660917  1
  O2-  O539  1  0.09834673  0.91588633  0.69383271  1
  O2-  O540  1  0.32270084  0.17312220  0.03110495  1
  O2-  O541  1  0.36209819  0.20005760  0.36269496  1
  O2-  O542  1  0.34393194  0.16773127  0.68534030  1
  O2-  O543  1  0.33048916  0.41029065  0.02313200  1
  O2-  O544  1  0.34067814  0.42477387  0.35122144  1
  O2-  O545  1  0.34022216  0.40352706  0.70759694  1
  O2-  O546  1  0.34016482  0.66768539  0.00648785  1
  O2-  O547  1  0.34089069  0.67297141  0.37531902  1
  O2-  O548  1  0.31412114  0.65762126  0.66696991  1
  O2-  O549  1  0.36389464  0.92864131  0.02314723  1
  O2-  O550  1  0.37295378  0.94350231  0.37238954  1
  O2-  O551  1  0.34076780  0.91993563  0.69165314  1
  O2-  O552  1  0.58375620  0.16616700  0.02094414  1
  O2-  O553  1  0.61436595  0.17315573  0.36935983  1
  O2-  O554  1  0.58539721  0.16915647  0.69449623  1
  O2-  O555  1  0.56754877  0.36195045  0.04320684  1
  O2-  O556  1  0.58874680  0.41860471  0.35533381  1
  O2-  O557  1  0.58216013  0.44128114  0.68849700  1
  O2-  O558  1  0.58293032  0.66778469  0.03115031  1
  O2-  O559  1  0.58292700  0.66212166  0.36214374  1
  O2-  O560  1  0.57938586  0.66233630  0.67893149  1
  O2-  O561  1  0.59282575  0.93122285  0.02529942  1
  O2-  O562  1  0.56644863  0.90539037  0.35289627  1
  O2-  O563  1  0.58533817  0.91522828  0.68517512  1
  O2-  O564  1  0.82199843  0.16919561  0.02093673  1
  O2-  O565  1  0.85891852  0.18370772  0.38737128  1
  O2-  O566  1  0.83020794  0.17133832  0.63138711  1
  O2-  O567  1  0.84099433  0.41879888  0.02042804  1
  O2-  O568  1  0.83563087  0.42118516  0.35233331  1
  O2-  O569  1  0.82545661  0.42226304  0.68260174  1
  O2-  O570  1  0.83804572  0.66304476  0.02148391  1
  O2-  O571  1  0.82934159  0.66313774  0.35068084  1
  O2-  O572  1  0.84699750  0.67909247  0.67818509  1
  O2-  O573  1  0.84503960  0.92389920  0.03086937  1
  O2-  O574  1  0.86664062  0.93375751  0.33669761  1
  O2-  O575  1  0.84848981  0.92584069  0.68692461  1
