# generated using pymatgen
data_H2O
_symmetry_space_group_name_H-M   'P 1'
_cell_length_a   17.98081976
_cell_length_b   17.98902139
_cell_length_c   21.99400207
_cell_angle_alpha   89.96761821
_cell_angle_beta   90.00857879
_cell_angle_gamma   120.03887902
_symmetry_Int_Tables_number   1
_chemical_formula_structural   H2O
_chemical_formula_sum   'H384 O192'
_cell_volume   6158.59390145
_cell_formula_units_Z   192
loop_
 _symmetry_equiv_pos_site_id
 _symmetry_equiv_pos_as_xyz
  1  'x, y, z'
loop_
 _atom_type_symbol
 _atom_type_oxidation_number
  H+  1.0
  O2-  -2.0
loop_
 _atom_site_type_symbol
 _atom_site_label
 _atom_site_symmetry_multiplicity
 _atom_site_fract_x
 _atom_site_fract_y
 _atom_site_fract_z
 _atom_site_occupancy
  H+  H0  1  0.87023403  0.29849343  0.18310313  1
  H+  H1  1  0.97934721  0.11255447  0.83578422  1
  H+  H2  1  0.27262686  0.88147856  0.82160614  1
  H+  H3  1  0.61910884  0.75529791  0.65512996  1
  H+  H4  1  0.87977966  0.74432353  0.34167959  1
  H+  H5  1  0.52433134  0.13409101  0.67838650  1
  H+  H6  1  0.36135585  0.97635080  0.49123664  1
  H+  H7  1  0.22083033  0.11086178  0.64660296  1
  H+  H8  1  0.77430628  0.41835857  0.16966916  1
  H+  H9  1  0.39372239  0.58783512  0.31652064  1
  H+  H10  1  0.36793830  0.74253414  0.49546795  1
  H+  H11  1  0.14260542  0.37032704  0.32568933  1
  H+  H12  1  1.00849199  0.39515958  0.17333234  1
  H+  H13  1  0.13211170  0.51719360  0.18046632  1
  H+  H14  1  0.16241961  0.58387760  0.27372597  1
  H+  H15  1  0.87452706  0.58049284  0.99430663  1
  H+  H16  1  0.91411045  0.16843230  0.36684681  1
  H+  H17  1  0.11671767  0.38485791  0.67614321  1
  H+  H18  1  0.23436978  0.85887909  0.49889225  1
  H+  H19  1  -0.01554973  0.87556161  0.32515784  1
  H+  H20  1  0.13751209  0.59565516  0.51665762  1
  H+  H21  1  0.34507718  0.65896484  0.27529572  1
  H+  H22  1  0.97157416  0.59645828  0.98799323  1
  H+  H23  1  0.62346242  0.64569928  0.16113989  1
  H+  H24  1  0.35740490  -0.03101813  1.00654816  1
  H+  H25  1  0.39927737  0.28036082  0.33325344  1
  H+  H26  1  0.36027540  0.20080293  0.15536886  1
  H+  H27  1  0.15913685  0.25252680  0.98716856  1
  H+  H28  1  0.36367448  0.48765976  0.49187638  1
  H+  H29  1  0.60259139  0.38219413  0.50498963  1
  H+  H30  1  0.39087908  1.01796248  0.83669246  1
  H+  H31  1  0.13372563  0.77558821  0.83297677  1
  H+  H32  1  0.13886341  0.86446091  0.65827903  1
  H+  H33  1  0.52428995  0.13038920  0.83207424  1
  H+  H34  1  0.61435321  0.47219744  0.68278969  1
  H+  H35  1  0.14033127  0.12214899  0.16891535  1
  H+  H36  1  0.98953159  0.35044794  0.65839462  1
  H+  H37  1  0.23000291  0.61410755  0.32747245  1
  H+  H38  1  0.61311344  0.88628356  0.01475735  1
  H+  H39  1  0.54945413  0.26320436  0.55182489  1
  H+  H40  1  0.24188903  0.27545424  0.94949472  1
  H+  H41  1  0.36113931  0.88157852  1.00719258  1
  H+  H42  1  0.22666286  0.60332152  0.19194837  1
  H+  H43  1  0.36636915  0.22363118  0.65384083  1
  H+  H44  1  0.40188662  0.53681476  -0.00813724  1
  H+  H45  1  0.23484304  0.87390158  0.32901928  1
  H+  H46  1  0.63176274  0.01237605  0.50052758  1
  H+  H47  1  0.62902456  0.26966472  0.83678559  1
  H+  H48  1  0.48443264  0.11560780  0.31923657  1
  H+  H49  1  0.86766614  0.48678469  0.49287201  1
  H+  H50  1  0.38742289  0.28485596  0.51654311  1
  H+  H51  1  0.13486331  0.27030806  0.66178959  1
  H+  H52  1  0.12468081  0.63067834  0.15839515  1
  H+  H53  1  0.38722338  0.37476540  0.50819348  1
  H+  H54  1  0.63184675  0.78093374  0.50065549  1
  H+  H55  1  0.38707328  0.32055641  0.20103426  1
  H+  H56  1  0.26046696  0.40650558  0.82416544  1
  H+  H57  1  0.53239748  0.65348015  0.01120922  1
  H+  H58  1  0.75840629  0.00057139  0.11038367  1
  H+  H59  1  0.12752361  0.61472126  0.82728517  1
  H+  H60  1  0.81683227  0.62206501  0.07181682  1
  H+  H61  1  0.28634327  0.49122905  0.78873145  1
  H+  H62  1  0.76775947  0.61023034  0.00773266  1
  H+  H63  1  0.64737054  0.07276162  0.93348858  1
  H+  H64  1  0.87116415  0.65023539  0.34190682  1
  H+  H65  1  0.89155346  0.61317138  0.50468912  1
  H+  H66  1  0.13962160  0.72383116  0.14639006  1
  H+  H67  1  0.14408031  0.86054498  0.99093850  1
  H+  H68  1  0.46074287  0.34470071  0.83835349  1
  H+  H69  1  -0.00463187  0.63036303  0.17665414  1
  H+  H70  1  0.09680325  0.44261721  0.01254600  1
  H+  H71  1  0.23202323  0.61261137  0.52017873  1
  H+  H72  1  0.75509837  0.87966200  0.67726881  1
  H+  H73  1  0.37124865  0.64086290  -0.00652492  1
  H+  H74  1  0.10767981  0.47296857  0.82557919  1
  H+  H75  1  0.51084385  0.60898784  0.33387264  1
  H+  H76  1  0.14491239  0.99519725  0.00927707  1
  H+  H77  1  0.08418126  0.16604370  0.06694300  1
  H+  H78  1  0.42380717  0.32420589  0.93052377  1
  H+  H79  1  0.15638857  0.09107124  0.56231571  1
  H+  H80  1  0.11966534  0.89842966  0.82305225  1
  H+  H81  1  0.61564162  0.73084430  0.16984205  1
  H+  H82  1  0.42549813  0.59205033  0.55608863  1
  H+  H83  1  0.93625560  0.81122496  0.99729378  1
  H+  H84  1  0.37104445  0.62875136  0.64988321  1
  H+  H85  1  0.26128297  0.50564410  0.10808287  1
  H+  H86  1  0.57698122  0.90930504  0.42456023  1
  H+  H87  1  0.62339655  0.65498300  0.33228682  1
  H+  H88  1  0.76200060  0.06250811  0.30992258  1
  H+  H89  1  -0.01490533  0.62493108  0.33719748  1
  H+  H90  1  0.15722111  1.04610307  0.83343512  1
  H+  H91  1  0.03050292  0.39617784  0.33592596  1
  H+  H92  1  0.60906622  0.64002879  0.48354624  1
  H+  H93  1  0.22454940  0.37147900  0.50953979  1
  H+  H94  1  0.27450578  0.87960644  0.66873996  1
  H+  H95  1  0.48282992  0.86953881  0.84059786  1
  H+  H96  1  0.36412445  0.13149436  0.65046920  1
  H+  H97  1  0.31884682  0.65290203  0.88733716  1
  H+  H98  1  0.96155516  0.25128572  0.41300089  1
  H+  H99  1  0.51972934  0.39123064  0.49669670  1
  H+  H100  1  0.36224251  0.88190190  0.82470148  1
  H+  H101  1  0.02001371  0.63825133  0.82203210  1
  H+  H102  1  0.86839610  0.19666502  0.17176963  1
  H+  H103  1  0.61126927  0.22330337  0.68040406  1
  H+  H104  1  0.27671487  0.14797195  0.50996545  1
  H+  H105  1  0.63130309  0.60506909  0.66292421  1
  H+  H106  1  0.11937952  0.48332936  0.34417222  1
  H+  H107  1  0.51838433  0.88148069  0.67237446  1
  H+  H108  1  0.97835384  0.60630267  0.50448116  1
  H+  H109  1  0.32898536  0.41992250  0.43750800  1
  H+  H110  1  0.33717787  0.17005539  0.56606960  1
  H+  H111  1  0.38678784  0.85387909  0.65646350  1
  H+  H112  1  0.12160944  0.14662220  0.82328826  1
  H+  H113  1  0.21514524  0.47733098  0.98369889  1
  H+  H114  1  0.35944670  0.39433473  0.16610443  1
  H+  H115  1  0.87806456  0.07504988  0.17279490  1
  H+  H116  1  0.91706455  0.58192644  0.89326378  1
  H+  H117  1  0.39106900  0.11510107  0.51028507  1
  H+  H118  1  0.36375403  0.72726926  0.19708539  1
  H+  H119  1  0.37327127  0.90394599  0.33198676  1
  H+  H120  1  0.77632319  0.63810525  0.82990965  1
  H+  H121  1  0.59601125  0.12609073  0.00271463  1
  H+  H122  1  0.33397293  0.90735011  0.72808811  1
  H+  H123  1  0.85543619  0.91777409  0.07234697  1
  H+  H124  1  0.38298778  0.80604691  0.32640391  1
  H+  H125  1  0.39437942  0.63018018  0.49991538  1
  H+  H126  1  0.15037892  0.03745278  0.32424923  1
  H+  H127  1  0.89960785  0.55423626  0.18837330  1
  H+  H128  1  0.89750802  0.96803880  0.17718895  1
  H+  H129  1  0.37085356  0.85017184  0.17684362  1
  H+  H130  1  0.63862242  0.52594223  0.18194745  1
  H+  H131  1  0.14252692  0.52528865  0.66961987  1
  H+  H132  1  0.90030815  0.79317089  0.65742217  1
  H+  H133  1  0.03214352  0.89082922  0.66541841  1
  H+  H134  1  0.89963781  0.20385970  0.19703707  1
  H+  H135  1  0.63264571  0.10965714  0.83828870  1
  H+  H136  1  0.85473005  0.20943414  0.67410220  1
  H+  H137  1  0.77680530  0.89128238  0.83585139  1
  H+  H138  1  0.11452539  0.23502124  0.49349879  1
  H+  H139  1  0.13691656  0.11162091  -0.00579945  1
  H+  H140  1  0.72910211  0.36156936  0.66361696  1
  H+  H141  1  0.87594710  0.65334813  0.15976836  1
  H+  H142  1  0.67115960  0.84408640  0.91132519  1
  H+  H143  1  0.11470400  0.23485622  0.16052947  1
  H+  H144  1  0.35220661  0.10966415  0.15113602  1
  H+  H145  1  0.62335555  0.14483411  0.33414613  1
  H+  H146  1  0.86107584  0.12795257  0.82617242  1
  H+  H147  1  0.71391490  0.36072032  0.83079588  1
  H+  H148  1  0.30549824  0.39996667  0.00070266  1
  H+  H149  1  0.87645157  0.85179812  0.99369478  1
  H+  H150  1  0.89428541  0.10250497  -0.01102670  1
  H+  H151  1  0.46689640  0.10128734  -0.00366051  1
  H+  H152  1  0.85405819  0.45706726  -0.03924902  1
  H+  H153  1  0.89072098  0.02154276  0.83766492  1
  H+  H154  1  0.61226091  0.97788483  0.82549765  1
  H+  H155  1  0.38735186  0.36281859  0.66774436  1
  H+  H156  1  0.36960624  0.22488378  1.00302250  1
  H+  H157  1  0.88656567  0.61458265  0.83567392  1
  H+  H158  1  0.37544828  0.64189935  0.19185165  1
  H+  H159  1  0.64767515  0.78542192  0.00258959  1
  H+  H160  1  0.39686025  0.41080839  0.14430503  1
  H+  H161  1  0.62778818  0.51316305  0.83917687  1
  H+  H162  1  1.02619260  0.13137490  1.00541984  1
  H+  H163  1  0.72045701  0.10559464  0.83985223  1
  H+  H164  1  0.60507768  0.88324983  0.48791264  1
  H+  H165  1  0.48888288  0.61878099  0.16968565  1
  H+  H166  1  0.95612036  0.28021108  0.60755246  1
  H+  H167  1  0.62930002  0.10112458  0.17236512  1
  H+  H168  1  0.65507668  0.71468510  0.78066114  1
  H+  H169  1  0.62140355  0.51763619  0.51149910  1
  H+  H170  1  0.87363163  0.48988844  0.34249006  1
  H+  H171  1  0.37506770  0.00254819  0.16947189  1
  H+  H172  1  0.47951520  0.86956797  0.49977864  1
  H+  H173  1  0.70891268  0.34790760  -0.01731801  1
  H+  H174  1  0.20887994  0.38291799  0.16634137  1
  H+  H175  1  0.49177088  0.35595913  -0.01497035  1
  H+  H176  1  0.61623274  -0.04235441  0.32998848  1
  H+  H177  1  0.75643518  0.66787025  0.32241935  1
  H+  H178  1  0.11732198  0.70605764  0.50244843  1
  H+  H179  1  0.86107102  0.13741690  0.50905211  1
  H+  H180  1  0.02008590  0.13357009  0.67175589  1
  H+  H181  1  0.61352917  0.88940821  0.82933943  1
  H+  H182  1  0.38000994  0.64474684  0.84201491  1
  H+  H183  1  0.64110122  0.77986926  0.85476102  1
  H+  H184  1  0.38693123  0.01460964  0.65917110  1
  H+  H185  1  0.59856354  0.37563082  0.83195237  1
  H+  H186  1  0.48003163  0.86006187  -0.00191687  1
  H+  H187  1  0.12165027  0.64592901  0.34590665  1
  H+  H188  1  0.14876923  0.62269391  -0.01686830  1
  H+  H189  1  0.89784099  0.78972667  0.49884119  1
  H+  H190  1  0.49901696  0.62478986  0.83533781  1
  H+  H191  1  0.99552988  0.38042496  1.01292865  1
  H+  H192  1  0.36277802  0.47220888  0.66773620  1
  H+  H193  1  0.11971224  0.14644642  0.34260134  1
  H+  H194  1  0.03258122  0.90022112  0.82371907  1
  H+  H195  1  0.39232742  0.02820401  0.32387915  1
  H+  H196  1  0.61539521  0.12786928  0.49199804  1
  H+  H197  1  0.52442784  0.38383052  0.67854506  1
  H+  H198  1  0.89184153  0.37101969  0.33662551  1
  H+  H199  1  0.83861352  0.37745565  0.49891749  1
  H+  H200  1  0.12762229  0.92347997  0.50058169  1
  H+  H201  1  0.80902182  0.39066125  -0.09207192  1
  H+  H202  1  0.65178689  0.28270031  0.33020061  1
  H+  H203  1  0.84625535  -0.03290343  0.67726354  1
  H+  H204  1  0.63389642  0.62085765  -0.00847936  1
  H+  H205  1  -0.02113284  0.12583055  0.50959083  1
  H+  H206  1  0.63213507  0.99756931  0.65905872  1
  H+  H207  1  0.63522558  0.39756852  1.02657741  1
  H+  H208  1  0.25102166  0.87334839  0.15703756  1
  H+  H209  1  0.22639955  0.85220754  0.98820729  1
  H+  H210  1  0.90711937  0.28896539  0.34099475  1
  H+  H211  1  0.51577857  0.11922452  0.15900749  1
  H+  H212  1  0.59199149  0.56538948  0.55638668  1
  H+  H213  1  0.62168798  0.26552214  0.00644673  1
  H+  H214  1  0.60414710  0.21044180  0.16148034  1
  H+  H215  1  0.08082253  0.66900266  0.76231830  1
  H+  H216  1  0.64742145  0.82801404  0.56455865  1
  H+  H217  1  -0.01886826  0.59757892  0.65958395  1
  H+  H218  1  0.86871412  0.33728487  0.97418461  1
  H+  H219  1  0.58830334  0.83323118  0.29214275  1
  H+  H220  1  0.59447244  0.95996738  0.16619575  1
  H+  H221  1  0.07627244  0.33363022  0.48339171  1
  H+  H222  1  0.30741550  0.19609277  0.84175833  1
  H+  H223  1  0.85929020  0.37215267  0.67642807  1
  H+  H224  1  0.86540109  0.72953721  0.83138867  1
  H+  H225  1  0.10979527  0.71810037  -0.00040759  1
  H+  H226  1  0.85926579  0.21613786  0.82398241  1
  H+  H227  1  0.62636316  0.48213547  0.35169568  1
  H+  H228  1  0.11452782  0.35827688  0.17740345  1
  H+  H229  1  0.83770220  0.42518801  0.42853294  1
  H+  H230  1  0.10955264  0.13425015  0.66973731  1
  H+  H231  1  0.87064974  0.46631480  0.67178026  1
  H+  H232  1  0.13722947  0.82387974  0.47911819  1
  H+  H233  1  0.51319385  0.88876797  0.32898197  1
  H+  H234  1  0.67019865  0.07618863  0.22899820  1
  H+  H235  1  0.50581124  0.60702414  0.65208660  1
  H+  H236  1  0.62857394  0.35029555  0.17630044  1
  H+  H237  1  0.36064016  0.37849207  0.35370802  1
  H+  H238  1  0.37467308  0.74014577  0.99278318  1
  H+  H239  1  0.65175600  0.37122583  0.33131961  1
  H+  H240  1  0.40420654  0.54102632  0.83802791  1
  H+  H241  1  0.72798880  0.09582558  0.65830759  1
  H+  H242  1  0.11806845  0.23321802  0.34094554  1
  H+  H243  1  0.52045449  0.64324369  0.48305000  1
  H+  H244  1  0.11420387  0.72447163  0.67020398  1
  H+  H245  1  0.87869063  0.91158286  0.47765767  1
  H+  H246  1  0.77914175  0.65688661  0.68023664  1
  H+  H247  1  0.78171803  0.64014352  0.15706086  1
  H+  H248  1  0.84529146  0.17712894  0.45025645  1
  H+  H249  1  0.37827779  0.10147591  0.99086494  1
  H+  H250  1  0.72137714  0.09834373  0.35392260  1
  H+  H251  1  0.12124160  0.63859861  0.67550566  1
  H+  H252  1  -0.03385816  0.88614762  0.16690737  1
  H+  H253  1  0.27364405  0.64303930  -0.01412880  1
  H+  H254  1  0.89281340  0.03502137  0.50404991  1
  H+  H255  1  0.52591129  0.37688611  0.17116579  1
  H+  H256  1  0.11906878  0.00528380  0.49054109  1
  H+  H257  1  0.72315719  0.10155379  0.50748424  1
  H+  H258  1  0.21615526  0.61239628  0.82550764  1
  H+  H259  1  0.08503283  0.77643964  0.19536958  1
  H+  H260  1  0.13436234  0.12938457  0.50221014  1
  H+  H261  1  0.83786620  0.25924519  0.51764287  1
  H+  H262  1  0.85788401  0.41600039  0.18830205  1
  H+  H263  1  0.61748527  0.01651992  0.99423023  1
  H+  H264  1  0.56912707  0.40660540  0.77413957  1
  H+  H265  1  0.03004344  0.14190456  0.16494147  1
  H+  H266  1  0.88530736  0.35564767  0.83634739  1
  H+  H267  1  0.27168238  0.38188163  0.34146687  1
  H+  H268  1  0.87768972  -0.02353721  1.01169643  1
  H+  H269  1  0.13834282  0.27445391  0.83237784  1
  H+  H270  1  0.88206766  0.10304956  0.66230558  1
  H+  H271  1  0.43694217  0.60063740  0.93459773  1
  H+  H272  1  0.60766868  0.84962879  0.19017461  1
  H+  H273  1  0.62013680  0.84502111  0.66121263  1
  H+  H274  1  0.12234073  0.89893898  0.34109545  1
  H+  H275  1  0.28939229  0.15036279  0.30481364  1
  H+  H276  1  0.64029085  0.36364283  0.66972316  1
  H+  H277  1  0.39502154  0.77895312  0.84747963  1
  H+  H278  1  0.48536207  0.36963150  0.34886097  1
  H+  H279  1  0.10584014  0.98625867  0.16294939  1
  H+  H280  1  0.39794168  0.25267103  0.23954918  1
  H+  H281  1  0.78528670  0.64876471  0.49532133  1
  H+  H282  1  0.73662344  0.87441166  1.00444414  1
  H+  H283  1  0.74047735  0.06579050  0.14553139  1
  H+  H284  1  0.86578018  0.47796326  0.82446443  1
  H+  H285  1  0.82403550  0.91502473  0.77126001  1
  H+  H286  1  0.22331150  0.10875727  0.16610268  1
  H+  H287  1  0.23075463  0.12027062  0.98904524  1
  H+  H288  1  0.05841839  0.41723887  0.10992089  1
  H+  H289  1  0.59379308  0.42329532  0.11549743  1
  H+  H290  1  -0.01542872  0.88026332  0.49793294  1
  H+  H291  1  0.65884234  0.57740364  0.89670158  1
  H+  H292  1  0.84223994  0.68844086  0.73553725  1
  H+  H293  1  0.05842611  0.37460567  0.42625933  1
  H+  H294  1  0.90847590  0.34444674  0.24636939  1
  H+  H295  1  0.59372577  0.16639911  0.39672480  1
  H+  H296  1  0.11145684  0.38485855  0.83129285  1
  H+  H297  1  0.08426540  0.17554178  0.43268241  1
  H+  H298  1  0.84006571  0.67457464  0.43396907  1
  H+  H299  1  0.57559308  0.65844158  0.40049391  1
  H+  H300  1  0.78379592  0.39854559  0.34066466  1
  H+  H301  1  0.85736581  0.20161310  -0.00029183  1
  H+  H302  1  0.47705251  0.10870543  0.49876465  1
  H+  H303  1  0.20145495  0.43028611  0.98369737  1
  H+  H304  1  0.17547170  0.09626329  0.89542095  1
  H+  H305  1  0.42543327  0.83947650  0.93442921  1
  H+  H306  1  0.20049775  0.97157443  0.05073637  1
  H+  H307  1  0.37777468  0.14597266  0.30441668  1
  H+  H308  1  0.08557686  0.16950107  0.76332591  1
  H+  H309  1  0.42359158  0.84031210  0.56257157  1
  H+  H310  1  0.50317675  0.87289340  0.16702420  1
  H+  H311  1  0.55859465  0.64080198  0.71775838  1
  H+  H312  1  0.91683128  0.83300679  0.89599782  1
  H+  H313  1  0.68086051  0.60444212  0.23035946  1
  H+  H314  1  0.61007314  0.21445771  0.49506889  1
  H+  H315  1  0.41240236  0.06849051  0.22611358  1
  H+  H316  1  0.42177931  0.07258657  0.59946157  1
  H+  H317  1  0.57030290  0.15274892  0.06555775  1
  H+  H318  1  0.08597358  0.92800158  0.10400340  1
  H+  H319  1  0.12253771  0.73574781  0.34833081  1
  H+  H320  1  0.87816012  0.32762972  0.57057098  1
  H+  H321  1  0.39693292  0.70290952  0.33644444  1
  H+  H322  1  0.41645010  0.07104339  0.89821670  1
  H+  H323  1  0.16473063  0.83089567  0.59895361  1
  H+  H324  1  0.32307916  0.67735897  0.44023793  1
  H+  H325  1  0.09367219  0.93534227  0.39688722  1
  H+  H326  1  0.73486614  0.72672040  0.28177478  1
  H+  H327  1  0.82082214  0.15153255  0.73515590  1
  H+  H328  1  0.86236876  0.40991161  0.07123340  1
  H+  H329  1  0.42189139  0.34580296  0.60543836  1
  H+  H330  1  0.59740378  0.42265768  0.41046365  1
  H+  H331  1  0.31315319  0.89819985  0.09834618  1
  H+  H332  1  0.17270689  0.58239205  0.60963607  1
  H+  H333  1  0.91575594  0.07999848  0.60195785  1
  H+  H334  1  0.08031601  0.40966538  0.73505767  1
  H+  H335  1  0.13326838  0.02117308  0.65498112  1
  H+  H336  1  0.69272090  0.49347484  0.04789649  1
  H+  H337  1  0.43103584  0.56967031  0.22790103  1
  H+  H338  1  0.09151418  0.92324248  0.72644070  1
  H+  H339  1  0.64063433  0.31538576  0.58062396  1
  H+  H340  1  0.85753207  0.95749387  0.42319516  1
  H+  H341  1  0.68074685  0.58035846  0.61382623  1
  H+  H342  1  0.81603804  0.12454722  0.04854578  1
  H+  H343  1  0.83379337  0.41149696  0.76899518  1
  H+  H344  1  0.88980670  0.86480192  0.83693762  1
  H+  H345  1  0.33858376  0.51269929  0.14611587  1
  H+  H346  1  0.39607595  0.40813014  -0.00193435  1
  H+  H347  1  0.93294103  0.60375940  0.27518420  1
  H+  H348  1  0.57945715  0.91299801  0.73329009  1
  H+  H349  1  0.93249144  0.84794931  0.59573171  1
  H+  H350  1  0.16902571  0.33947633  0.26542650  1
  H+  H351  1  0.58317172  0.16253351  0.77197013  1
  H+  H352  1  0.63075693  0.63495507  0.82449238  1
  H+  H353  1  0.38916002  0.49727525  0.32806339  1
  H+  H354  1  0.11593326  0.87134512  0.17733994  1
  H+  H355  1  0.91718026  0.85052211  0.27091645  1
  H+  H356  1  0.97363212  0.35458151  0.83450353  1
  H+  H357  1  0.91544985  0.31057363  0.92880741  1
  H+  H358  1  0.91307312  0.07464683  0.23875422  1
  H+  H359  1  0.66595305  0.06081378  0.59255272  1
  H+  H360  1  0.16825569  0.09180722  0.26355543  1
  H+  H361  1  0.22544922  0.35956854  0.66268089  1
  H+  H362  1  0.63206220  0.53101554  0.99401331  1
  H+  H363  1  0.33193735  0.15965552  0.06007888  1
  H+  H364  1  0.57091723  0.90484965  0.07335723  1
  H+  H365  1  0.39410657  0.76746029  0.65048309  1
  H+  H366  1  0.43502686  0.51239074  0.60235048  1
  H+  H367  1  0.91976347  0.56576661  0.60150855  1
  H+  H368  1  0.36600934  0.88968426  0.49075876  1
  H+  H369  1  0.17618843  0.32397814  0.89488694  1
  H+  H370  1  0.16575808  0.83259352  0.89289908  1
  H+  H371  1  0.16597041  0.84022118  0.27435018  1
  H+  H372  1  0.28689016  0.63236119  0.66535563  1
  H+  H373  1  0.33820893  0.92664911  0.39443032  1
  H+  H374  1  0.08672112  0.65638426  0.05744373  1
  H+  H375  1  0.41233222  0.84598743  0.24339661  1
  H+  H376  1  0.59384522  0.67971243  0.06978330  1
  H+  H377  1  0.92840266  0.07339942  0.93214081  1
  H+  H378  1  0.66697083  0.32345680  0.23095879  1
  H+  H379  1  0.32905497  0.42448447  0.73192308  1
  H+  H380  1  0.17412828  0.59600517  0.91956070  1
  H+  H381  1  0.16464758  0.33612543  0.56872177  1
  H+  H382  1  0.08764272  0.65765741  0.43937274  1
  H+  H383  1  0.82629897  0.36419247  0.07276832  1
  O2-  O384  1  0.08804657  0.17376575  0.14607388  1
  O2-  O385  1  0.08212876  0.17416189  0.47896777  1
  O2-  O386  1  0.08721877  0.17329207  0.80891505  1
  O2-  O387  1  0.06685920  0.41742287  0.15543792  1
  O2-  O388  1  0.02904995  0.33082972  0.45841570  1
  O2-  O389  1  0.07931110  0.41142273  0.81286640  1
  O2-  O390  1  0.09896290  0.66335084  0.13824313  1
  O2-  O391  1  0.08179305  0.64816433  0.48462551  1
  O2-  O392  1  0.08164000  0.66927474  0.80822597  1
  O2-  O393  1  0.07283140  0.92452553  0.14824196  1
  O2-  O394  1  0.09431849  0.94256078  0.47695928  1
  O2-  O395  1  0.09277628  0.93183912  0.80810181  1
  O2-  O396  1  0.32462836  0.14302052  0.13606316  1
  O2-  O397  1  0.33928696  0.17541018  0.52017646  1
  O2-  O398  1  0.37034655  0.22600466  0.83449693  1
  O2-  O399  1  0.28243470  0.47134766  0.12724804  1
  O2-  O400  1  0.33257388  0.42483533  0.48308482  1
  O2-  O401  1  0.31114245  0.45726945  0.80366320  1
  O2-  O402  1  0.33620405  0.66317693  0.20605309  1
  O2-  O403  1  0.33632106  0.67933563  0.48329071  1
  O2-  O404  1  0.33814142  0.66605077  0.84522530  1
  O2-  O405  1  0.31107915  0.89702524  0.14402429  1
  O2-  O406  1  0.33175467  0.91600633  0.47532021  1
  O2-  O407  1  0.33240275  0.90958923  0.80508152  1
  O2-  O408  1  0.57746395  0.14986779  0.14638298  1
  O2-  O409  1  0.58745546  0.15872924  0.47341670  1
  O2-  O410  1  0.58618964  0.16328093  0.81768887  1
  O2-  O411  1  0.58679112  0.41644671  0.16113383  1
  O2-  O412  1  0.58274019  0.41938669  0.48525413  1
  O2-  O413  1  0.56516921  0.40551582  0.81947863  1
  O2-  O414  1  0.59207555  0.67553847  0.14704305  1
  O2-  O415  1  0.58089968  0.66991122  0.46473045  1
  O2-  O416  1  0.60995939  0.67533681  0.80827551  1
  O2-  O417  1  0.56451578  0.89915520  0.15181722  1
  O2-  O418  1  0.57690371  0.91561934  0.46969055  1
  O2-  O419  1  0.58201578  0.91602915  0.81042566  1
  O2-  O420  1  0.78638155  0.05989342  0.12426750  1
  O2-  O421  1  0.82540676  0.16297579  0.49340645  1
  O2-  O422  1  0.82805513  0.15506871  0.80974380  1
  O2-  O423  1  0.83452928  0.45500496  0.18167280  1
  O2-  O424  1  0.83134810  0.42493517  0.47522651  1
  O2-  O425  1  0.83544030  0.41500039  0.81445285  1
  O2-  O426  1  0.83760973  0.66672565  0.13564901  1
  O2-  O427  1  0.84370861  0.67264346  0.47969788  1
  O2-  O428  1  0.83699061  0.66869966  0.81618468  1
  O2-  O429  1  0.87257864  0.91124309  0.15569743  1
  O2-  O430  1  0.85443587  0.94880536  0.46729414  1
  O2-  O431  1  0.83459526  0.91741739  0.81695464  1
  O2-  O432  1  0.16463773  0.08589540  0.18394284  1
  O2-  O433  1  0.16482670  0.09785489  0.51705173  1
  O2-  O434  1  0.18314611  0.10516159  0.85061186  1
  O2-  O435  1  0.15545979  0.33739459  0.18678898  1
  O2-  O436  1  0.16394361  0.33589197  0.52337860  1
  O2-  O437  1  0.16731394  0.33375773  0.85134319  1
  O2-  O438  1  0.16317598  0.57810144  0.19628671  1
  O2-  O439  1  0.17363246  0.57567806  0.53660069  1
  O2-  O440  1  0.15717631  0.58212857  0.84163818  1
  O2-  O441  1  0.13768660  0.83220105  0.19270768  1
  O2-  O442  1  0.17203724  0.82424615  0.51320276  1
  O2-  O443  1  0.16684392  0.83630505  0.84770487  1
  O2-  O444  1  0.40792758  0.06465511  0.18062207  1
  O2-  O445  1  0.41861647  0.07932061  0.51720179  1
  O2-  O446  1  0.42434602  0.07658296  0.85362576  1
  O2-  O447  1  0.41704059  0.28781256  0.20092493  1
  O2-  O448  1  0.42109795  0.34845483  0.52446854  1
  O2-  O449  1  0.40024786  0.31389778  0.85605081  1
  O2-  O450  1  0.42837723  0.58771550  0.18567351  1
  O2-  O451  1  0.42600443  0.59915679  0.50980210  1
  O2-  O452  1  0.44223153  0.59934629  0.85530452  1
  O2-  O453  1  0.40685493  0.82945053  0.19620865  1
  O2-  O454  1  0.41921675  0.84079894  0.51697360  1
  O2-  O455  1  0.42351988  0.84061911  0.85920048  1
  O2-  O456  1  0.65705566  0.06674807  0.18543829  1
  O2-  O457  1  0.66140095  0.06995234  0.52197665  1
  O2-  O458  1  0.65927109  0.07439425  0.85288146  1
  O2-  O459  1  0.65698460  0.31624455  0.18652474  1
  O2-  O460  1  0.60949532  0.29846158  0.53958917  1
  O2-  O461  1  0.65500329  0.33212744  0.84686386  1
  O2-  O462  1  0.67165012  0.58971600  0.18661914  1
  O2-  O463  1  0.63866747  0.57653518  0.52837656  1
  O2-  O464  1  0.66221063  0.57538682  0.85113718  1
  O2-  O465  1  0.63681098  0.82272684  0.21351360  1
  O2-  O466  1  0.64756107  0.83621089  0.51973055  1
  O2-  O467  1  0.66764402  0.84102290  0.86565916  1
  O2-  O468  1  0.92428587  0.07134260  0.19500848  1
  O2-  O469  1  0.91893721  0.09304117  0.52593529  1
  O2-  O470  1  0.92003509  0.08246408  0.85295888  1
  O2-  O471  1  0.90560104  0.35497832  0.20133914  1
  O2-  O472  1  0.83904564  0.31112600  0.53547873  1
  O2-  O473  1  0.91265608  0.32139636  0.84864065  1
  O2-  O474  1  0.94158857  0.61689303  0.19804341  1
  O2-  O475  1  0.91619230  0.57654002  0.51729241  1
  O2-  O476  1  0.91746738  0.58301422  0.84771172  1
  O2-  O477  1  0.90876566  0.86422810  0.18670214  1
  O2-  O478  1  0.92360159  0.85044770  0.51135260  1
  O2-  O479  1  0.92234644  0.83608054  0.85068102  1
  O2-  O480  1  0.17956702  0.09751568  0.30816419  1
  O2-  O481  1  0.15770987  0.08183790  0.63925466  1
  O2-  O482  1  0.16935250  0.08545736  0.97513970  1
  O2-  O483  1  0.17305614  0.34002835  0.31077487  1
  O2-  O484  1  0.16457492  0.33196965  0.64816572  1
  O2-  O485  1  0.20715606  0.30005577  0.96296062  1
  O2-  O486  1  0.16801456  0.58915728  0.31924923  1
  O2-  O487  1  0.17482006  0.58600452  0.65582488  1
  O2-  O488  1  0.18722756  0.60347523  0.96408393  1
  O2-  O489  1  0.17126130  0.83974979  0.31913909  1
  O2-  O490  1  0.16709017  0.83099122  0.64365495  1
  O2-  O491  1  0.16538123  0.82389904  0.97334642  1
  O2-  O492  1  0.42536407  0.08580515  0.30264359  1
  O2-  O493  1  0.41749546  0.07549995  0.64432415  1
  O2-  O494  1  0.40572012  0.06683367  0.98065190  1
  O2-  O495  1  0.42236701  0.34110170  0.34611348  1
  O2-  O496  1  0.42099219  0.33715923  0.65031347  1
  O2-  O497  1  0.43063895  0.33100059  0.97619345  1
  O2-  O498  1  0.42622770  0.55705381  0.30861181  1
  O2-  O499  1  0.42783349  0.55646014  0.62284986  1
  O2-  O500  1  0.42722810  0.59993044  0.97929007  1
  O2-  O501  1  0.42006433  0.86197467  0.30817829  1
  O2-  O502  1  0.42287232  0.83059610  0.63963249  1
  O2-  O503  1  0.41952629  0.83042885  0.98001121  1
  O2-  O504  1  0.71001062  0.06807996  0.31521006  1
  O2-  O505  1  0.66806465  0.05876887  0.63942933  1
  O2-  O506  1  0.63962444  0.07493976  0.97801229  1
  O2-  O507  1  0.68296497  0.34285725  0.31483142  1
  O2-  O508  1  0.66771135  0.33284659  0.65036944  1
  O2-  O509  1  0.65161887  0.32884635  1.00044672  1
  O2-  O510  1  0.70826455  0.66844570  0.29831601  1
  O2-  O511  1  0.66825639  0.57742922  0.65744000  1
  O2-  O512  1  0.65732199  0.58665662  0.97210438  1
  O2-  O513  1  0.57910166  0.78343731  0.26583120  1
  O2-  O514  1  0.65038944  0.81701426  0.64287316  1
  O2-  O515  1  0.67644336  0.84679942  0.98861422  1
  O2-  O516  1  0.86587708  0.06627310  0.31719928  1
  O2-  O517  1  0.91615114  0.07716698  0.64765056  1
  O2-  O518  1  0.92940834  0.07390118  0.97761308  1
  O2-  O519  1  0.92171942  0.34265913  0.31772845  1
  O2-  O520  1  0.93512004  0.30740985  0.63579968  1
  O2-  O521  1  0.90604570  0.31078033  0.97347132  1
  O2-  O522  1  0.92534695  0.59548377  0.32046383  1
  O2-  O523  1  0.92154277  0.55727194  0.64559553  1
  O2-  O524  1  0.91326694  0.56660985  0.96969496  1
  O2-  O525  1  0.92289103  0.83913582  0.31402443  1
  O2-  O526  1  0.94079439  0.85106686  0.64018948  1
  O2-  O527  1  0.89302353  0.81341408  0.97207132  1
  O2-  O528  1  0.08711995  0.16265220  0.02173617  1
  O2-  O529  1  0.08885758  0.17477187  0.35902386  1
  O2-  O530  1  0.08148131  0.16638962  0.68590329  1
  O2-  O531  1  0.04542326  0.42508469  0.03690430  1
  O2-  O532  1  0.08973276  0.42055679  0.35264968  1
  O2-  O533  1  0.08231032  0.41214091  0.68953950  1
  O2-  O534  1  0.08341469  0.65657226  0.01230749  1
  O2-  O535  1  0.09138760  0.67499292  0.36339184  1
  O2-  O536  1  0.08555060  0.66503476  0.68723864  1
  O2-  O537  1  0.14228916  0.94645096  0.03447378  1
  O2-  O538  1  0.09352986  0.93237767  0.35171023  1
  O2-  O539  1  0.09469813  0.92129798  0.68124658  1
  O2-  O540  1  0.33196708  0.16342688  0.01454052  1
  O2-  O541  1  0.35322899  0.18456600  0.29842153  1
  O2-  O542  1  0.33183767  0.16231748  0.64128203  1
  O2-  O543  1  0.36653525  0.44003045  0.00933767  1
  O2-  O544  1  0.33004854  0.41229122  0.36112722  1
  O2-  O545  1  0.33102303  0.41363888  0.68778982  1
  O2-  O546  1  0.33821131  0.67310227  0.00222892  1
  O2-  O547  1  0.34731110  0.65025104  0.32177401  1
  O2-  O548  1  0.35073799  0.66423938  0.66933161  1
  O2-  O549  1  0.32595316  0.90684042  0.02110030  1
  O2-  O550  1  0.33690277  0.93058273  0.34937172  1
  O2-  O551  1  0.33567160  0.90783594  0.68235468  1
  O2-  O552  1  0.56561787  0.15613163  0.02072974  1
  O2-  O553  1  0.59409920  0.17332640  0.35119128  1
  O2-  O554  1  0.58289281  0.16373909  0.69591093  1
  O2-  O555  1  0.63092027  0.44853069  0.04410041  1
  O2-  O556  1  0.60079476  0.42253179  0.36459857  1
  O2-  O557  1  0.58370760  0.41077961  0.69602153  1
  O2-  O558  1  0.59360297  0.68126175  0.02415186  1
  O2-  O559  1  0.57161007  0.65261810  0.35254472  1
  O2-  O560  1  0.56888168  0.64545945  0.67386632  1
  O2-  O561  1  0.57370147  0.90762561  0.02785833  1
  O2-  O562  1  0.57271155  0.89910227  0.34261686  1
  O2-  O563  1  0.57990164  0.91156692  0.68746456  1
  O2-  O564  1  0.83529562  0.13947633  0.00622264  1
  O2-  O565  1  0.90899708  0.21461188  0.38716322  1
  O2-  O566  1  0.81849363  0.14968108  0.68890586  1
  O2-  O567  1  0.81710315  0.39422661  -0.04797543  1
  O2-  O568  1  0.84355188  0.42925577  0.35860851  1
  O2-  O569  1  0.83336771  0.40560625  0.69000854  1
  O2-  O570  1  0.79798583  0.58762866  0.03218636  1
  O2-  O571  1  0.84328798  0.68278918  0.35725372  1
  O2-  O572  1  0.83958801  0.69586055  0.69112957  1
  O2-  O573  1  0.84280551  0.91643043  0.02847991  1
  O2-  O574  1  0.83469687  0.99081938  0.34194773  1
  O2-  O575  1  0.80832792  0.91484987  0.70080658  1
