# generated using pymatgen
data_H2O
_symmetry_space_group_name_H-M   'P 1'
_cell_length_a   17.96200415
_cell_length_b   17.96036220
_cell_length_c   21.95454981
_cell_angle_alpha   90.01866383
_cell_angle_beta   89.98580125
_cell_angle_gamma   120.01311030
_symmetry_Int_Tables_number   1
_chemical_formula_structural   H2O
_chemical_formula_sum   'H384 O192'
_cell_volume   6132.92476173
_cell_formula_units_Z   192
loop_
 _symmetry_equiv_pos_site_id
 _symmetry_equiv_pos_as_xyz
  1  'x, y, z'
loop_
 _atom_type_symbol
 _atom_type_oxidation_number
  H+  1.0
  O2-  -2.0
loop_
 _atom_site_type_symbol
 _atom_site_label
 _atom_site_symmetry_multiplicity
 _atom_site_fract_x
 _atom_site_fract_y
 _atom_site_fract_z
 _atom_site_occupancy
  H+  H0  1  0.34066330  0.48648606  0.30043724  1
  H+  H1  1  0.17423916  0.57877110  0.56654367  1
  H+  H2  1  0.25514183  0.37347057  0.99511631  1
  H+  H3  1  0.01360925  0.63343119  0.14941393  1
  H+  H4  1  0.52989060  0.38625372  0.82098978  1
  H+  H5  1  0.64041987  0.01171760  0.69388797  1
  H+  H6  1  0.14015768  0.27739098  0.51057618  1
  H+  H7  1  -0.00355959  0.12487518  0.83257226  1
  H+  H8  1  0.17088737  0.08406426  0.88977664  1
  H+  H9  1  0.95188385  0.60763003  0.99056244  1
  H+  H10  1  0.38462898  0.60907636  0.84433016  1
  H+  H11  1  0.02431538  0.89724144  0.66288650  1
  H+  H12  1  0.35407254  0.73756850  0.69989508  1
  H+  H13  1  0.30377858  0.88174040  0.80947983  1
  H+  H14  1  0.65197251  0.01123271  0.18537700  1
  H+  H15  1  0.73571267  0.12000228  0.49236847  1
  H+  H16  1  0.15999079  0.04793336  0.65220799  1
  H+  H17  1  0.53704329  0.24267738  0.61282669  1
  H+  H18  1  0.10720747  0.24477860  -0.01381057  1
  H+  H19  1  0.91530794  0.33378897  0.90143569  1
  H+  H20  1  0.27992449  0.09940867  0.02117924  1
  H+  H21  1  0.68220961  0.85573447  0.17090754  1
  H+  H22  1  0.02097872  0.90243314  0.34732460  1
  H+  H23  1  0.60193755  0.84416173  0.70085405  1
  H+  H24  1  0.16456509  0.86563961  0.79879844  1
  H+  H25  1  0.82733519  0.41206318  0.10322764  1
  H+  H26  1  0.73124992  0.36514269  0.84070423  1
  H+  H27  1  0.52010737  0.62529018  0.32289303  1
  H+  H28  1  0.98015750  0.36387809  0.84432301  1
  H+  H29  1  0.01334975  0.64287559  0.45477421  1
  H+  H30  1  0.69528171  0.78942050  0.33410313  1
  H+  H31  1  0.62609919  0.23201777  0.83366055  1
  H+  H32  1  0.92658026  0.09087679  0.23685931  1
  H+  H33  1  0.12318723  0.38289339  0.83525240  1
  H+  H34  1  0.49441730  0.10458785  0.48354053  1
  H+  H35  1  0.62687170  0.99686000  0.66160241  1
  H+  H36  1  0.66926444  0.65525704  0.35996598  1
  H+  H37  1  0.27160999  0.39282928  0.49467710  1
  H+  H38  1  0.92673275  0.59078881  0.55140390  1
  H+  H39  1  0.87051097  0.13873815  0.34055318  1
  H+  H40  1  0.06977128  0.97854942  0.17114138  1
  H+  H41  1  0.36381313  0.23807746  0.49165324  1
  H+  H42  1  0.14022570  0.14606751  0.66239884  1
  H+  H43  1  0.88737907  0.26794287  0.32747023  1
  H+  H44  1  0.77241717  0.63965516  0.81954793  1
  H+  H45  1  0.63530935  0.35935636  0.19756850  1
  H+  H46  1  0.65399757  1.03055200  0.84880187  1
  H+  H47  1  0.39829403  0.36401220  0.83521228  1
  H+  H48  1  0.88062914  0.77979749  0.50662773  1
  H+  H49  1  0.89031575  0.27503896  0.51115213  1
  H+  H50  1  -0.01445277  0.12791273  0.32969477  1
  H+  H51  1  0.01514787  0.38563731  0.33758343  1
  H+  H52  1  0.88204328  0.35436251  0.32850344  1
  H+  H53  1  0.79951998  0.15978989  0.67189608  1
  H+  H54  1  0.77560234  0.64097366  0.49140794  1
  H+  H55  1  0.35041091  0.46087362  0.17532035  1
  H+  H56  1  0.62862235  0.52003768  0.65872691  1
  H+  H57  1  0.74066900  0.09162299  0.00003202  1
  H+  H58  1  0.77061762  0.37477397  0.35168471  1
  H+  H59  1  0.14275062  0.27719160  0.66061589  1
  H+  H60  1  0.01235797  0.62472826  0.66648312  1
  H+  H61  1  0.29353632  0.81497060  0.01488383  1
  H+  H62  1  0.22479511  0.61998810  0.66783701  1
  H+  H63  1  0.64219243  0.36538720  0.83752111  1
  H+  H64  1  0.85493562  0.47321667  0.00686222  1
  H+  H65  1  0.10555945  0.63218249  0.66971138  1
  H+  H66  1  0.87074296  0.14033919  0.49553535  1
  H+  H67  1  -0.00412443  0.11766034  0.65787525  1
  H+  H68  1  0.86042157  0.46234501  0.34368242  1
  H+  H69  1  0.51410408  0.90716743  0.33115051  1
  H+  H70  1  0.63118083  0.89025594  1.01556716  1
  H+  H71  1  0.12406452  0.14759774  0.50024240  1
  H+  H72  1  0.47098536  0.69681567  0.20281653  1
  H+  H73  1  0.92594063  0.91674584  0.15697294  1
  H+  H74  1  0.37084976  0.22362727  0.67706655  1
  H+  H75  1  0.63204141  0.61052086  0.65916975  1
  H+  H76  1  0.63252056  0.61290189  0.18098405  1
  H+  H77  1  0.23663648  0.66622068  0.34010464  1
  H+  H78  1  0.87867326  0.60779715  0.83642612  1
  H+  H79  1  0.35932510  0.79973508  0.30400643  1
  H+  H80  1  -0.03513228  0.60197320  0.83773495  1
  H+  H81  1  0.14089926  0.52777208  0.66756963  1
  H+  H82  1  0.53863068  0.87786619  1.02176494  1
  H+  H83  1  0.11241083  0.99155891  0.34233297  1
  H+  H84  1  0.88174635  0.36067865  -0.00771299  1
  H+  H85  1  0.38334630  0.85520223  0.48818519  1
  H+  H86  1  0.10061699  0.37541477  0.02490409  1
  H+  H87  1  0.12253006  0.86957823  0.33912608  1
  H+  H88  1  0.84989280  0.68900546  0.40366656  1
  H+  H89  1  0.43758721  0.94279434  0.57668701  1
  H+  H90  1  0.74713626  0.22230884  0.61133174  1
  H+  H91  1  0.12485302  0.13251848  0.81560258  1
  H+  H92  1  0.43529758  0.69600634  0.35884520  1
  H+  H93  1  0.60354288  0.73097940  0.00525187  1
  H+  H94  1  0.47810146  0.61711067  0.83841811  1
  H+  H95  1  0.63201758  0.13143928  0.01056651  1
  H+  H96  1  0.36072962  0.48325808  0.49418164  1
  H+  H97  1  0.09482028  0.24298472  0.14431341  1
  H+  H98  1  0.88893226  0.52643637  0.49618294  1
  H+  H99  1  0.86628241  0.89488098  0.49604582  1
  H+  H100  1  0.65398759  0.51918479  0.33591964  1
  H+  H101  1  0.29550624  0.86477016  0.62285965  1
  H+  H102  1  0.88522951  0.60689443  0.18243776  1
  H+  H103  1  0.55765141  0.41100512  0.01630719  1
  H+  H104  1  0.35999992  0.65309504  0.68362905  1
  H+  H105  1  0.89337120  1.02933186  0.50682619  1
  H+  H106  1  0.59241499  0.64044995  0.98819899  1
  H+  H107  1  0.55320726  0.64727725  0.17328717  1
  H+  H108  1  0.24006394  0.11151251  0.83505624  1
  H+  H109  1  0.10001439  0.45570648  -0.00642324  1
  H+  H110  1  0.11600426  0.23640123  0.34418601  1
  H+  H111  1  0.26087282  0.37740483  0.34114671  1
  H+  H112  1  0.05544053  0.88656811  0.81466143  1
  H+  H113  1  0.13200377  0.37694233  0.17321068  1
  H+  H114  1  0.64583888  0.01600345  0.99981485  1
  H+  H115  1  0.63752567  0.52562470  0.81917907  1
  H+  H116  1  0.87693750  0.90193515  0.83513885  1
  H+  H117  1  0.88595561  0.77654189  0.66183113  1
  H+  H118  1  0.50268892  0.38853232  0.66960611  1
  H+  H119  1  0.49563753  0.13298084  0.66200304  1
  H+  H120  1  0.48718780  0.12804956  0.35349875  1
  H+  H121  1  0.63553445  0.26923474  0.34975323  1
  H+  H122  1  0.37243617  0.26040191  0.18181838  1
  H+  H123  1  0.43844419  1.01131542  0.62176513  1
  H+  H124  1  0.63711367  0.87012153  0.50150680  1
  H+  H125  1  0.42278278  0.89158017  0.67388704  1
  H+  H126  1  0.63133153  0.14458748  0.83440645  1
  H+  H127  1  0.48126209  0.37829895  0.50161592  1
  H+  H128  1  0.26934450  0.39934008  0.67287346  1
  H+  H129  1  0.41564438  0.76246702  0.17294523  1
  H+  H130  1  0.90853437  0.12898398  0.83944253  1
  H+  H131  1  0.72667127  0.36401570  0.50019161  1
  H+  H132  1  0.09635298  0.75256361  0.63978996  1
  H+  H133  1  0.87549004  0.23438672  0.82939151  1
  H+  H134  1  0.67838770  0.58550575  0.97294193  1
  H+  H135  1  0.32176205  0.65906662  0.43046000  1
  H+  H136  1  0.77348695  0.63653607  0.67137527  1
  H+  H137  1  0.87694547  0.98792408  0.67733489  1
  H+  H138  1  0.61876181  0.50046633  0.18882035  1
  H+  H139  1  0.14475068  0.81757960  0.54405655  1
  H+  H140  1  0.77135253  0.85422938  0.17265803  1
  H+  H141  1  0.36638526  0.96749260  0.48662675  1
  H+  H142  1  0.08886111  0.77170890  0.17723820  1
  H+  H143  1  0.90121545  0.03442490  0.32954014  1
  H+  H144  1  0.09540604  0.62811355  -0.00846354  1
  H+  H145  1  0.38517538  0.36382055  0.33212452  1
  H+  H146  1  0.62674604  0.21804742  0.00947058  1
  H+  H147  1  0.61168052  0.97875682  0.48419637  1
  H+  H148  1  0.90796897  0.12132479  0.66434877  1
  H+  H149  1  0.68568519  0.08924118  0.90716075  1
  H+  H150  1  -0.03584878  0.35135812  -0.00536394  1
  H+  H151  1  0.10292626  0.61440050  0.33040753  1
  H+  H152  1  0.61475811  0.64215737  0.50442298  1
  H+  H153  1  0.84505663  0.17208625  0.43426691  1
  H+  H154  1  0.39872467  0.27529540  0.84197541  1
  H+  H155  1  0.24536680  0.36087769  0.83098433  1
  H+  H156  1  0.84859360  0.92950758  0.08321042  1
  H+  H157  1  0.11281623  0.45950996  0.86127194  1
  H+  H158  1  0.35616701  0.39924880  0.66325144  1
  H+  H159  1  0.34376155  0.61382705  1.00431942  1
  H+  H160  1  0.26968077  0.88209710  0.48558282  1
  H+  H161  1  0.38546492  0.87629957  0.25111078  1
  H+  H162  1  0.31709180  0.27552543  0.62531733  1
  H+  H163  1  0.71210549  0.83052939  0.26734938  1
  H+  H164  1  0.19204887  0.32304068  0.89174514  1
  H+  H165  1  0.08228381  0.73486856  -0.04628085  1
  H+  H166  1  0.39270667  1.04389613  0.34288317  1
  H+  H167  1  0.89094077  -0.01806112  0.17033419  1
  H+  H168  1  0.49694883  0.11078366  0.99614486  1
  H+  H169  1  0.36922247  0.15133916  0.35037080  1
  H+  H170  1  0.18021000  0.80335431  0.75789756  1
  H+  H171  1  0.45112685  0.81520918  0.23431638  1
  H+  H172  1  0.16631124  0.34113706  0.60399414  1
  H+  H173  1  0.48063333  0.11333294  0.18856777  1
  H+  H174  1  0.27382686  0.15091871  0.49683807  1
  H+  H175  1  0.37477114  0.47869158  0.82335379  1
  H+  H176  1  0.61310816  0.39144613  0.49033908  1
  H+  H177  1  0.38512579  0.89642929  0.77148972  1
  H+  H178  1  0.64088328  0.35230891  1.00072182  1
  H+  H179  1  0.86312176  0.38812250  0.50022308  1
  H+  H180  1  0.21671448  0.61946120  0.17666842  1
  H+  H181  1  0.63432833  0.89211187  0.85380040  1
  H+  H182  1  0.94932874  0.60206183  0.33376377  1
  H+  H183  1  0.65607759  0.78088188  0.84406102  1
  H+  H184  1  0.10215765  0.84512600  0.63342139  1
  H+  H185  1  0.20862787  0.86490532  0.33412533  1
  H+  H186  1  0.36633719  0.13491047  0.17626819  1
  H+  H187  1  0.38829148  0.76935736  0.49489233  1
  H+  H188  1  0.12980394  0.36907142  0.32545949  1
  H+  H189  1  0.09252131  0.73919685  0.35760463  1
  H+  H190  1  0.62682151  0.14408676  0.45733814  1
  H+  H191  1  0.52012500  0.58373191  0.31888453  1
  H+  H192  1  0.79654249  0.68147142  1.00963660  1
  H+  H193  1  0.18073786  0.85522936  1.04962447  1
  H+  H194  1  0.37486803  0.13425866  0.82672915  1
  H+  H195  1  0.39041476  0.37864619  0.49711626  1
  H+  H196  1  0.85896355  0.47250941  0.82625308  1
  H+  H197  1  0.46864650  0.85563879  0.71683649  1
  H+  H198  1  0.35380111  0.63206031  0.15314783  1
  H+  H199  1  0.77348212  0.12803759  0.16440745  1
  H+  H200  1  0.88665302  0.13174867  0.01290442  1
  H+  H201  1  0.43484166  0.41287340  0.99043156  1
  H+  H202  1  0.56598410  0.86799121  0.17021964  1
  H+  H203  1  0.87264877  0.39221983  0.67175213  1
  H+  H204  1  0.14181238  0.51755227  0.50784247  1
  H+  H205  1  1.02192358  0.38488228  0.49441722  1
  H+  H206  1  0.12141095  0.39375631  0.68491125  1
  H+  H207  1  0.35569432  0.90874850  0.33165080  1
  H+  H208  1  0.38568732  0.99521948  0.04270945  1
  H+  H209  1  0.86550114  0.64101737  0.48940762  1
  H+  H210  1  0.91822711  0.82473166  0.99139128  1
  H+  H211  1  0.09874013  0.70020901  0.82060329  1
  H+  H212  1  0.27290985  0.77997523  0.99154263  1
  H+  H213  1  0.52501220  0.38775726  0.34182849  1
  H+  H214  1  0.01580565  0.39300964  0.16447392  1
  H+  H215  1  0.16269124  0.08035049  0.24125321  1
  H+  H216  1  0.88162345  0.99378608  0.83396640  1
  H+  H217  1  0.21216079  0.61689492  0.90008202  1
  H+  H218  1  0.81038898  0.90514887  0.33525238  1
  H+  H219  1  0.36511892  0.71895133  0.84752695  1
  H+  H220  1  0.77939321  0.13803775  0.34428891  1
  H+  H221  1  0.81320599  0.60441649  -0.00244826  1
  H+  H222  1  0.40508033  0.13166850  0.65381448  1
  H+  H223  1  0.86190626  0.72676555  0.82818792  1
  H+  H224  1  0.66751286  0.32920801  0.28783143  1
  H+  H225  1  0.74634161  0.87112749  0.84625186  1
  H+  H226  1  0.73607101  0.86833113  1.00932470  1
  H+  H227  1  0.24726585  0.83778369  0.62033349  1
  H+  H228  1  0.97452096  0.12163239  0.17058399  1
  H+  H229  1  0.78062188  0.90060814  0.48945432  1
  H+  H230  1  0.37431075  0.48458516  1.01054418  1
  H+  H231  1  0.40716094  1.02132427  0.83690615  1
  H+  H232  1  0.03434237  0.87937349  0.17289990  1
  H+  H233  1  0.23011916  0.12166440  0.33737813  1
  H+  H234  1  0.72679997  0.36637351  0.19151082  1
  H+  H235  1  0.14175344  0.12458721  0.33635637  1
  H+  H236  1  0.61415125  0.73177233  0.50201941  1
  H+  H237  1  0.38581165  0.27489922  0.33559329  1
  H+  H238  1  0.49353333  0.85770421  0.86137263  1
  H+  H239  1  0.61538627  0.64246794  0.81573833  1
  H+  H240  1  0.85830474  0.38147589  0.16142136  1
  H+  H241  1  0.14084009  0.59423803  0.26946497  1
  H+  H242  1  0.06789201  0.92559521  -0.01159299  1
  H+  H243  1  0.46022044  0.72082254  0.33130632  1
  H+  H244  1  0.77198075  0.37987363  1.00756079  1
  H+  H245  1  0.13063460  0.22423927  0.81764372  1
  H+  H246  1  0.11355925  0.11983894  0.97439835  1
  H+  H247  1  0.38385276  0.98566927  0.20739105  1
  H+  H248  1  0.90837857  0.28249270  0.66693238  1
  H+  H249  1  0.13654856  0.36472526  0.50741497  1
  H+  H250  1  0.64648439  0.12360300  0.34005644  1
  H+  H251  1  0.74420353  0.89466766  0.66724980  1
  H+  H252  1  0.13341249  0.78115863  0.47610991  1
  H+  H253  1  0.60345052  0.11004270  0.16661979  1
  H+  H254  1  0.86325478  0.12959036  0.16743405  1
  H+  H255  1  0.99232225  0.37509796  0.66766450  1
  H+  H256  1  0.26000272  0.62312557  -0.00448943  1
  H+  H257  1  0.61001939  0.72571267  0.65775655  1
  H+  H258  1  0.50498697  0.36880467  0.17550583  1
  H+  H259  1  0.37648058  0.12541611  1.01425988  1
  H+  H260  1  0.61673258  0.91345734  0.10978708  1
  H+  H261  1  0.84590572  0.84622659  1.00679772  1
  H+  H262  1  0.49082055  0.11342720  0.84066484  1
  H+  H263  1  0.52273272  0.88735809  0.48474281  1
  H+  H264  1  0.40546701  0.85782958  0.85532981  1
  H+  H265  1  0.88457042  0.86550171  0.66563348  1
  H+  H266  1  0.83560646  0.41824632  0.72781693  1
  H+  H267  1  0.39944241  0.75132070  1.00643270  1
  H+  H268  1  0.13722386  0.98120683  0.81788255  1
  H+  H269  1  0.83789574  0.98961632  0.03459801  1
  H+  H270  1  0.63966263  0.52904174  0.50513315  1
  H+  H271  1  0.27478347  0.13715354  0.66904485  1
  H+  H272  1  0.20043994  0.87706061  0.02003000  1
  H+  H273  1  0.57784009  0.37029609  0.65517697  1
  H+  H274  1  0.88377349  0.26563079  0.17153461  1
  H+  H275  1  0.65444954  0.72372601  0.16865464  1
  H+  H276  1  0.65263192  0.47413036  0.03961581  1
  H+  H277  1  0.57672597  0.51736940  0.95702843  1
  H+  H278  1  0.09838533  0.47961408  0.33961989  1
  H+  H279  1  0.88256138  0.51819419  0.65112621  1
  H+  H280  1  0.46932564  0.61878202  -0.00743294  1
  H+  H281  1  0.95994936  0.85724079  0.89050288  1
  H+  H282  1  0.39719226  0.33499225  0.58425382  1
  H+  H283  1  0.38304545  0.53805956  0.66147957  1
  H+  H284  1  0.86404142  0.38580125  0.82683704  1
  H+  H285  1  0.61349220  0.23380809  0.68067609  1
  H+  H286  1  0.63687566  0.03090507  0.33216255  1
  H+  H287  1  0.88470029  0.60863127  0.65069903  1
  H+  H288  1  0.84335554  0.93065606  0.73863546  1
  H+  H289  1  0.58199333  0.41040282  0.75851777  1
  H+  H290  1  0.15723388  0.33647345  0.26582132  1
  H+  H291  1  0.21199800  0.15852717  0.97744582  1
  H+  H292  1  0.49180471  0.77719081  0.59742972  1
  H+  H293  1  0.34844929  0.42203141  0.06965159  1
  H+  H294  1  0.67258539  0.85029798  0.56275369  1
  H+  H295  1  0.57160877  0.91990396  0.39019034  1
  H+  H296  1  0.90768835  0.83679862  0.56709353  1
  H+  H297  1  0.83436472  0.11924203  0.07458254  1
  H+  H298  1  0.35184675  0.37415401  0.16748379  1
  H+  H299  1  0.32577538  0.42066365  0.39762918  1
  H+  H300  1  0.68806734  0.93239126  0.64091881  1
  H+  H301  1  0.05490901  0.18879896  0.08294122  1
  H+  H302  1  0.38659373  0.61461162  0.50422451  1
  H+  H303  1  0.65306190  0.58315752  0.87818736  1
  H+  H304  1  0.07863963  0.41408884  0.43328162  1
  H+  H305  1  0.67193120  0.07853787  0.24046479  1
  H+  H306  1  0.09557396  0.42645457  0.74545756  1
  H+  H307  1  0.40243739  0.32361775  0.24088674  1
  H+  H308  1  0.63955809  0.27900444  0.48110807  1
  H+  H309  1  0.97563889  0.14532055  0.92663536  1
  H+  H310  1  0.13281943  0.91242092  0.49027131  1
  H+  H311  1  0.10736996  0.64833724  0.15109272  1
  H+  H312  1  0.66671348  0.32910823  0.93582556  1
  H+  H313  1  0.89540331  0.57347981  0.93088711  1
  H+  H314  1  0.43756287  0.81266844  0.94898701  1
  H+  H315  1  0.84824713  0.17304474  0.73658641  1
  H+  H316  1  0.31891879  0.65972400  0.79039178  1
  H+  H317  1  0.66798695  0.56827907  0.24553984  1
  H+  H318  1  0.91001004  0.32432784  0.23179219  1
  H+  H319  1  0.34367334  0.16351339  0.76721146  1
  H+  H320  1  0.46287755  0.38039214  0.93103889  1
  H+  H321  1  0.43391343  0.10670737  0.25370888  1
  H+  H322  1  0.36623901  0.91966819  0.15580178  1
  H+  H323  1  0.74749561  0.60626553  0.32958211  1
  H+  H324  1  0.91013608  0.56256775  0.26885033  1
  H+  H325  1  0.63282708  0.68827622  0.41372558  1
  H+  H326  1  0.44521443  0.09467873  0.54604427  1
  H+  H327  1  0.31701769  0.98007521  0.09112472  1
  H+  H328  1  0.44444142  0.75939559  0.60145458  1
  H+  H329  1  0.92531529  0.08826843  0.56714324  1
  H+  H330  1  0.42421129  0.59823885  0.22449986  1
  H+  H331  1  0.58570154  0.67868960  0.76143594  1
  H+  H332  1  0.07274407  0.66332736  0.05252340  1
  H+  H333  1  0.60281153  0.17772242  0.74148338  1
  H+  H334  1  0.26888870  0.62535902  0.49341167  1
  H+  H335  1  0.83494348  0.41145028  0.43713307  1
  H+  H336  1  0.88107904  0.51589270  0.17238707  1
  H+  H337  1  0.61161127  0.38042976  0.34850843  1
  H+  H338  1  0.21585123  0.36561549  0.17058947  1
  H+  H339  1  0.09528632  0.94518544  0.43913477  1
  H+  H340  1  0.19436962  0.40103658  0.96164127  1
  H+  H341  1  0.03163737  0.14324175  0.49786895  1
  H+  H342  1  0.06156556  0.64478204  0.76161485  1
  H+  H343  1  0.41207102  0.59582680  0.60153394  1
  H+  H344  1  0.92533593  0.33651200  0.57069274  1
  H+  H345  1  0.33820420  0.15655902  0.11229105  1
  H+  H346  1  0.21622876  0.09849248  0.18097866  1
  H+  H347  1  0.58346375  0.42351220  0.43287298  1
  H+  H348  1  0.57502911  0.39908668  0.12133180  1
  H+  H349  1  0.15231071  0.04475793  0.51097741  1
  H+  H350  1  0.67302206  0.10735218  0.54604206  1
  H+  H351  1  0.87040107  0.77333759  0.30026557  1
  H+  H352  1  0.32671106  0.92263461  0.39741358  1
  H+  H353  1  0.09043620  0.17850064  0.40532975  1
  H+  H354  1  0.67070590  0.58518798  0.56624873  1
  H+  H355  1  0.78944405  0.14277512  0.83164555  1
  H+  H356  1  0.67017042  0.16189143  0.65346100  1
  H+  H357  1  0.68718724  0.83998680  0.94431391  1
  H+  H358  1  0.27704128  0.74260281  0.38691334  1
  H+  H359  1  0.51595577  0.64294070  0.66524620  1
  H+  H360  1  0.34450270  0.42320403  0.76173827  1
  H+  H361  1  0.40948684  0.57630307  0.93381074  1
  H+  H362  1  0.83652665  0.66767951  0.72860049  1
  H+  H363  1  0.86100446  0.93973395  0.39760508  1
  H+  H364  1  0.47725235  0.61696528  0.51120787  1
  H+  H365  1  0.09540986  0.92505881  0.71434030  1
  H+  H366  1  0.10980095  0.81947858  0.24044145  1
  H+  H367  1  0.31391291  0.65275005  0.09613445  1
  H+  H368  1  0.28893493  1.00607943  0.72606031  1
  H+  H369  1  0.33254107  0.17776651  0.40818810  1
  H+  H370  1  0.07689348  0.42947479  0.10612221  1
  H+  H371  1  0.43154255  0.07691171  0.93934032  1
  H+  H372  1  0.09972473  0.16883935  0.72131024  1
  H+  H373  1  0.05451797  0.84126714  0.95275264  1
  H+  H374  1  0.58774897  0.89660531  0.79561151  1
  H+  H375  1  0.12583399  0.53361216  0.17723258  1
  H+  H376  1  0.62275236  0.31062907  0.57908159  1
  H+  H377  1  0.29609095  0.53510175  0.27147593  1
  H+  H378  1  0.18469687  0.10686533  0.57203317  1
  H+  H379  1  0.13627188  0.79902974  0.90050432  1
  H+  H380  1  0.26583982  0.96822295  0.70520465  1
  H+  H381  1  0.86738672  0.81215679  0.90994101  1
  H+  H382  1  0.52737840  0.76952541  0.73982005  1
  H+  H383  1  0.57675504  0.14264600  0.10785882  1
  O2-  O384  1  0.05867612  0.18457058  0.12718171  1
  O2-  O385  1  0.09243193  0.17725022  0.48347101  1
  O2-  O386  1  0.09529768  0.16403312  0.80184654  1
  O2-  O387  1  0.07751708  0.43017701  0.15167123  1
  O2-  O388  1  0.08222285  0.41258020  0.47860126  1
  O2-  O389  1  0.09451615  0.41672056  0.82673488  1
  O2-  O390  1  0.07187189  0.66948350  0.13098169  1
  O2-  O391  1  0.07216135  0.67550441  0.43612269  1
  O2-  O392  1  0.05989606  0.64125941  0.80723436  1
  O2-  O393  1  0.02029141  0.92252420  0.15740659  1
  O2-  O394  1  0.10941013  0.95109869  0.48302694  1
  O2-  O395  1  0.11267569  0.92259607  0.79786442  1
  O2-  O396  1  0.33352338  0.16066611  0.15719012  1
  O2-  O397  1  0.33321891  0.17747612  0.47825885  1
  O2-  O398  1  0.34451121  0.16527832  0.81314081  1
  O2-  O399  1  0.32709587  0.40930556  0.14983247  1
  O2-  O400  1  0.33077133  0.42400940  0.47617398  1
  O2-  O401  1  0.34772953  0.41847188  0.80703498  1
  O2-  O402  1  0.32017116  0.65954987  0.14172718  1
  O2-  O403  1  0.32977065  0.65739794  0.47456359  1
  O2-  O404  1  0.32599009  0.65781641  0.83503074  1
  O2-  O405  1  0.36359533  0.92316645  0.20040440  1
  O2-  O406  1  0.33035393  0.90818329  0.46964246  1
  O2-  O407  1  0.36760777  0.91204785  0.81064776  1
  O2-  O408  1  0.56785288  0.13453945  0.15224342  1
  O2-  O409  1  0.59418903  0.17366670  0.44544197  1
  O2-  O410  1  0.59879867  0.17167009  0.81728801  1
  O2-  O411  1  0.56832070  0.40035663  0.16607698  1
  O2-  O412  1  0.58431129  0.42476033  0.47899858  1
  O2-  O413  1  0.58952858  0.41657857  0.80346429  1
  O2-  O414  1  0.61212184  0.65987515  0.15998788  1
  O2-  O415  1  0.58138703  0.66974591  0.49016756  1
  O2-  O416  1  0.58780062  0.67821155  0.80661840  1
  O2-  O417  1  0.62461322  0.90915666  0.15477039  1
  O2-  O418  1  0.58485900  0.91772741  0.47129911  1
  O2-  O419  1  0.59963309  0.91793010  0.83815047  1
  O2-  O420  1  0.83329175  0.15791089  0.14721006  1
  O2-  O421  1  0.84117566  0.17167342  0.48014634  1
  O2-  O422  1  0.84878367  0.17318443  0.81398569  1
  O2-  O423  1  0.82912953  0.41398785  0.14881039  1
  O2-  O424  1  0.83236742  0.41674242  0.48295804  1
  O2-  O425  1  0.82988475  0.41171563  0.81084813  1
  O2-  O426  1  0.86744907  0.70972914  0.17998912  1
  O2-  O427  1  0.83617954  0.67339127  0.47652401  1
  O2-  O428  1  0.83513298  0.66959303  0.80844465  1
  O2-  O429  1  0.87359041  0.92382833  0.15285291  1
  O2-  O430  1  0.84265903  0.93234258  0.47959422  1
  O2-  O431  1  0.84926044  0.93346308  0.81773577  1
  O2-  O432  1  0.15700343  0.07415658  0.19638706  1
  O2-  O433  1  0.17817543  0.10658042  0.52561318  1
  O2-  O434  1  0.17675623  0.07832099  0.84508520  1
  O2-  O435  1  0.15621222  0.34004148  0.18654019  1
  O2-  O436  1  0.17002153  0.33902819  0.52526314  1
  O2-  O437  1  0.18512468  0.32527180  0.84729244  1
  O2-  O438  1  0.15655305  0.59486579  0.19172629  1
  O2-  O439  1  0.17804508  0.57813158  0.52149756  1
  O2-  O440  1  0.13112679  0.50305145  0.93158438  1
  O2-  O441  1  0.08914923  0.81969711  0.19906919  1
  O2-  O442  1  0.16630159  0.83372769  0.50062201  1
  O2-  O443  1  0.18948628  0.82657822  0.79920865  1
  O2-  O444  1  0.42339898  0.09380667  0.20932733  1
  O2-  O445  1  0.44544816  0.06395581  0.50918502  1
  O2-  O446  1  0.42922938  0.08019807  0.85357471  1
  O2-  O447  1  0.39991246  0.32260588  0.19510305  1
  O2-  O448  1  0.41954369  0.34854517  0.51515388  1
  O2-  O449  1  0.43032680  0.33731334  0.85364897  1
  O2-  O450  1  0.45911688  0.63814393  0.19117270  1
  O2-  O451  1  0.41540104  0.58582027  0.52496659  1
  O2-  O452  1  0.41867204  0.57964893  0.85382589  1
  O2-  O453  1  0.46770414  0.79193403  0.19875138  1
  O2-  O454  1  0.41983767  0.83202630  0.50386280  1
  O2-  O455  1  0.43093615  0.82347314  0.87138521  1
  O2-  O456  1  0.67192379  0.07265338  0.19529213  1
  O2-  O457  1  0.67253568  0.09441908  0.50231534  1
  O2-  O458  1  0.68485063  0.09214644  0.86133500  1
  O2-  O459  1  0.67257052  0.33890658  0.21502096  1
  O2-  O460  1  0.66252133  0.33129748  0.50705181  1
  O2-  O461  1  0.67036059  0.33553269  0.85680540  1
  O2-  O462  1  0.65635206  0.56295098  0.20020406  1
  O2-  O463  1  0.67108895  0.58946040  0.52098325  1
  O2-  O464  1  0.66510752  0.58696591  0.83287946  1
  O2-  O465  1  0.70882961  0.82100828  0.18411434  1
  O2-  O466  1  0.66847565  0.84123430  0.51844498  1
  O2-  O467  1  0.68764049  0.83782701  0.86462744  1
  O2-  O468  1  0.91821794  0.08335553  0.19152439  1
  O2-  O469  1  0.92432299  0.09112853  0.52187602  1
  O2-  O470  1  0.94098351  0.10114957  0.85599956  1
  O2-  O471  1  0.91136848  0.32667915  0.18619179  1
  O2-  O472  1  0.91945362  0.33621862  0.52534820  1
  O2-  O473  1  0.91806915  0.33452940  0.85494210  1
  O2-  O474  1  0.91669550  0.57602465  0.18907961  1
  O2-  O475  1  0.92226425  0.58935079  0.50610036  1
  O2-  O476  1  0.90391531  0.57417731  0.85395888  1
  O2-  O477  1  0.82576474  0.72513557  0.21847137  1
  O2-  O478  1  0.90282335  0.83881089  0.52232828  1
  O2-  O479  1  0.90254321  0.83059999  0.87143951  1
  O2-  O480  1  0.16911145  0.09073232  0.32246323  1
  O2-  O481  1  0.19501415  0.11003768  0.64381589  1
  O2-  O482  1  0.15951144  0.10592220  0.96615301  1
  O2-  O483  1  0.15968391  0.33768653  0.31140659  1
  O2-  O484  1  0.16786652  0.33996959  0.64966665  1
  O2-  O485  1  0.19676422  0.35008241  0.97436779  1
  O2-  O486  1  0.13890340  0.59078920  0.31513280  1
  O2-  O487  1  0.16698087  0.58612476  0.64862950  1
  O2-  O488  1  0.17861748  0.59820189  0.93823610  1
  O2-  O489  1  0.14548429  0.83048094  0.32731660  1
  O2-  O490  1  0.10500509  0.79858276  0.61097802  1
  O2-  O491  1  0.08164074  0.77445524  0.92199905  1
  O2-  O492  1  0.42965358  0.10604317  0.33280032  1
  O2-  O493  1  0.45043646  0.12406019  0.63187792  1
  O2-  O494  1  0.43449271  0.08186055  0.98435803  1
  O2-  O495  1  0.41746909  0.33543074  0.31766207  1
  O2-  O496  1  0.37651902  0.32274399  0.62867512  1
  O2-  O497  1  0.48475191  0.41415783  0.96924554  1
  O2-  O498  1  0.34059530  0.52038828  0.26393063  1
  O2-  O499  1  0.41456866  0.59933595  0.64742288  1
  O2-  O500  1  0.40682576  0.57788026  0.97913973  1
  O2-  O501  1  0.40611565  0.85425033  0.28679204  1
  O2-  O502  1  0.41302163  0.85309501  0.71004881  1
  O2-  O503  1  0.44694656  0.80745852  0.99288989  1
  O2-  O504  1  0.67483804  0.09380615  0.32075259  1
  O2-  O505  1  0.71514680  0.16291125  0.62545696  1
  O2-  O506  1  0.68268158  0.07641974  0.98399460  1
  O2-  O507  1  0.66550679  0.33050135  0.33408477  1
  O2-  O508  1  0.59236334  0.29630380  0.61947208  1
  O2-  O509  1  0.66906037  0.32299412  0.98097452  1
  O2-  O510  1  0.68602718  0.57849264  0.31820321  1
  O2-  O511  1  0.66390720  0.58137762  0.64615380  1
  O2-  O512  1  0.62613622  0.57589380  0.94908077  1
  O2-  O513  1  0.71464433  0.84405697  0.31108392  1
  O2-  O514  1  0.68479466  0.87744957  0.64955044  1
  O2-  O515  1  0.67814039  0.83709708  0.98911259  1
  O2-  O516  1  0.92576814  0.09672780  0.31329102  1
  O2-  O517  1  0.93243027  0.08638589  0.64776633  1
  O2-  O518  1  0.98615652  0.17896294  0.96586238  1
  O2-  O519  1  0.91516427  0.32810076  0.31044631  1
  O2-  O520  1  0.93349402  0.34154342  0.64944642  1
  O2-  O521  1  0.90789780  0.32808535  0.97436528  1
  O2-  O522  1  0.89955373  0.55464417  0.31340258  1
  O2-  O523  1  0.91404029  0.57853928  0.63408221  1
  O2-  O524  1  0.89122548  0.57464085  0.97652098  1
  O2-  O525  1  0.89272611  0.77956089  0.34201439  1
  O2-  O526  1  0.91583513  0.83785923  0.64832075  1
  O2-  O527  1  0.85511122  0.80088462  0.98870128  1
  O2-  O528  1  0.06250048  0.18353064  -0.00580295  1
  O2-  O529  1  0.08913687  0.17630611  0.35967490  1
  O2-  O530  1  0.10115911  0.17210521  0.67609432  1
  O2-  O531  1  0.07579406  0.41256430  0.02961012  1
  O2-  O532  1  0.07613216  0.41940636  0.35327455  1
  O2-  O533  1  0.09361258  0.42651537  0.70011416  1
  O2-  O534  1  0.06536394  0.65726109  0.00695707  1
  O2-  O535  1  0.05679135  0.67504160  0.37025576  1
  O2-  O536  1  0.07155079  0.65883422  0.68479347  1
  O2-  O537  1  0.02734647  0.87682209  -0.03599230  1
  O2-  O538  1  0.08169248  0.93026302  0.35848685  1
  O2-  O539  1  0.08775276  0.92530204  0.66992725  1
  O2-  O540  1  0.33749669  0.14502782  0.03176138  1
  O2-  O541  1  0.33416277  0.17862230  0.36119579  1
  O2-  O542  1  0.34064185  0.16273343  0.68863561  1
  O2-  O543  1  0.35183397  0.42291879  0.02426340  1
  O2-  O544  1  0.32319596  0.41181055  0.35245485  1
  O2-  O545  1  0.33234137  0.43179931  0.68452078  1
  O2-  O546  1  0.31176139  0.64191710  0.02118541  1
  O2-  O547  1  0.29305172  0.71307291  0.35679998  1
  O2-  O548  1  0.32503024  0.67397302  0.70482249  1
  O2-  O549  1  0.35049424  0.95514312  0.07548781  1
  O2-  O550  1  0.32297959  0.93216648  0.35225727  1
  O2-  O551  1  0.44999781  0.96331114  0.61872988  1
  O2-  O552  1  0.59700186  0.15750658  0.02421135  1
  O2-  O553  1  0.59000300  0.16928574  0.37754255  1
  O2-  O554  1  0.59992978  0.17643399  0.69549440  1
  O2-  O555  1  0.60561392  0.41452360  0.04197466  1
  O2-  O556  1  0.58478318  0.41684964  0.35872363  1
  O2-  O557  1  0.56352156  0.41002454  0.67835789  1
  O2-  O558  1  0.56496519  0.66804260  0.01096728  1
  O2-  O559  1  0.67524302  0.70684048  0.38050506  1
  O2-  O560  1  0.57824906  0.67135582  0.67966356  1
  O2-  O561  1  0.60029169  0.91852331  0.03387947  1
  O2-  O562  1  0.57333900  0.93080854  0.34571919  1
  O2-  O563  1  0.55343073  0.83034382  0.72960179  1
  O2-  O564  1  0.83161647  0.09345250  0.03344501  1
  O2-  O565  1  0.84089318  0.16948220  0.35816553  1
  O2-  O566  1  0.85557042  0.17581816  0.69103451  1
  O2-  O567  1  0.83168907  0.41408273  0.02416676  1
  O2-  O568  1  0.83332662  0.40277323  0.36255314  1
  O2-  O569  1  0.83838453  0.41974606  0.68262276  1
  O2-  O570  1  0.76820308  0.61795529  0.01067009  1
  O2-  O571  1  0.85704192  0.68831669  0.35763792  1
  O2-  O572  1  0.83526390  0.66761076  0.68313329  1
  O2-  O573  1  0.83306433  0.93245013  0.03912133  1
  O2-  O574  1  0.86978979  0.94412317  0.35293299  1
  O2-  O575  1  0.83863250  0.92754773  0.69317156  1
