# generated using pymatgen
data_H2O
_symmetry_space_group_name_H-M   'P 1'
_cell_length_a   17.98772782
_cell_length_b   17.98525194
_cell_length_c   22.00682611
_cell_angle_alpha   89.99918794
_cell_angle_beta   90.02345140
_cell_angle_gamma   120.00654037
_symmetry_Int_Tables_number   1
_chemical_formula_structural   H2O
_chemical_formula_sum   'H384 O192'
_cell_volume   6165.27146428
_cell_formula_units_Z   192
loop_
 _symmetry_equiv_pos_site_id
 _symmetry_equiv_pos_as_xyz
  1  'x, y, z'
loop_
 _atom_type_symbol
 _atom_type_oxidation_number
  H+  1.0
  O2-  -2.0
loop_
 _atom_site_type_symbol
 _atom_site_label
 _atom_site_symmetry_multiplicity
 _atom_site_fract_x
 _atom_site_fract_y
 _atom_site_fract_z
 _atom_site_occupancy
  H+  H0  1  0.72582672  0.60743732  0.18108275  1
  H+  H1  1  0.59770530  0.70650745  0.00616720  1
  H+  H2  1  0.85848997  0.63269128  -0.00518633  1
  H+  H3  1  -0.01511059  0.60434744  0.65352163  1
  H+  H4  1  0.76628108  0.13784197  0.14635605  1
  H+  H5  1  0.60422273  0.87198794  0.15956759  1
  H+  H6  1  0.52398738  0.13300389  0.00472768  1
  H+  H7  1  0.84222198  0.71509787  0.48847043  1
  H+  H8  1  0.53617482  0.89985472  0.67628580  1
  H+  H9  1  0.62887251  0.49516445  0.84756857  1
  H+  H10  1  0.76987885  0.38561370  0.16093521  1
  H+  H11  1  -0.00828859  0.36093484  0.80446094  1
  H+  H12  1  0.98641715  0.37227164  0.65433248  1
  H+  H13  1  0.12595545  0.47719337  0.49566140  1
  H+  H14  1  0.58428917  0.82900194  0.47437362  1
  H+  H15  1  0.14804442  0.86517223  0.98970648  1
  H+  H16  1  0.14374591  0.10409402  0.31758636  1
  H+  H17  1  0.23354439  0.35954357  0.50319421  1
  H+  H18  1  0.88352295  0.52261980  0.83062426  1
  H+  H19  1  0.60460953  0.61845105  0.50102103  1
  H+  H20  1  0.40300993  0.77747981  0.67206430  1
  H+  H21  1  0.29541880  0.92504402  0.49595298  1
  H+  H22  1  0.38990414  0.34842807  0.66349654  1
  H+  H23  1  0.59163468  0.66160943  0.44195842  1
  H+  H24  1  0.72483484  0.87506926  0.32248458  1
  H+  H25  1  0.61543863  0.65371513  0.66433388  1
  H+  H26  1  0.36540322  -0.02618576  0.16112091  1
  H+  H27  1  0.27577917  0.36503048  0.34302303  1
  H+  H28  1  0.24865553  0.87499934  0.36607871  1
  H+  H29  1  0.11829368  0.72359415  0.47474194  1
  H+  H30  1  0.63436472  0.36010758  0.66643567  1
  H+  H31  1  0.15883151  0.61637263  0.82707778  1
  H+  H32  1  0.42080472  0.35951173  0.85248764  1
  H+  H33  1  0.14159430  0.27726068  0.65344528  1
  H+  H34  1  0.27668664  0.14252903  0.81422569  1
  H+  H35  1  0.38836442  1.02400505  -0.01324539  1
  H+  H36  1  0.61841382  0.13760421  0.67248699  1
  H+  H37  1  0.11040401  0.70947765  0.69468575  1
  H+  H38  1  0.86383434  0.48066599  0.00445769  1
  H+  H39  1  0.87958983  0.25794725  0.31767178  1
  H+  H40  1  0.62873188  0.50562788  0.50897974  1
  H+  H41  1  0.10545981  0.97910021  0.15424603  1
  H+  H42  1  0.62186291  0.15230335  0.50142488  1
  H+  H43  1  0.13725890  0.77006886  0.99243351  1
  H+  H44  1  0.60839183  0.46153121  0.01477398  1
  H+  H45  1  0.47528788  0.09824111  0.66148619  1
  H+  H46  1  0.86250007  0.11051209  0.82559638  1
  H+  H47  1  0.72270676  0.86664675  0.84821934  1
  H+  H48  1  0.22445400  0.11207545  0.16642400  1
  H+  H49  1  0.14222649  0.60841560  0.67076006  1
  H+  H50  1  0.49507931  0.13322437  0.83442742  1
  H+  H51  1  0.48510937  0.10651495  0.33383368  1
  H+  H52  1  -0.03175226  0.84570079  0.83599534  1
  H+  H53  1  0.03014280  0.13750181  0.66673580  1
  H+  H54  1  0.84603842  0.85797862  0.81749864  1
  H+  H55  1  0.85816190  -0.02340096  0.15988724  1
  H+  H56  1  0.89762360  0.00440728  0.48572326  1
  H+  H57  1  -0.02495602  0.86005621  0.66000042  1
  H+  H58  1  0.61282917  0.47138768  0.17073554  1
  H+  H59  1  0.39332127  0.86016813  0.45222445  1
  H+  H60  1  0.06633936  0.61505617  0.85521957  1
  H+  H61  1  0.49969754  0.44926935  0.71353114  1
  H+  H62  1  0.11872165  0.13477445  0.67086496  1
  H+  H63  1  0.75952226  0.63693840  0.68134710  1
  H+  H64  1  0.48006607  0.35885850  0.00881670  1
  H+  H65  1  0.23288737  0.62640762  0.98220113  1
  H+  H66  1  0.39160315  0.87963536  0.35074789  1
  H+  H67  1  0.11872320  0.14363077  0.49332887  1
  H+  H68  1  0.60777369  0.22081792  0.67241828  1
  H+  H69  1  0.78692975  0.15351910  0.49455968  1
  H+  H70  1  0.87925391  0.24421895  0.66667824  1
  H+  H71  1  0.71588773  0.05096258  0.20885080  1
  H+  H72  1  0.27533843  0.38914898  0.15743616  1
  H+  H73  1  0.34624603  0.66100507  0.73645550  1
  H+  H74  1  0.85194471  0.18202739  0.72575518  1
  H+  H75  1  0.38411476  0.52825717  0.16834690  1
  H+  H76  1  0.85395695  0.48715470  0.49568894  1
  H+  H77  1  0.32851697  0.16147640  0.22876666  1
  H+  H78  1  0.61276646  0.38169516  0.16981993  1
  H+  H79  1  0.92439098  0.57704108  0.22933340  1
  H+  H80  1  0.05577794  1.00833423  0.38168319  1
  H+  H81  1  0.88953874  0.61872246  0.50285638  1
  H+  H82  1  0.11522520  0.63951368  -0.00012255  1
  H+  H83  1  0.61477504  0.38093583  0.82835965  1
  H+  H84  1  0.85568156  0.88622381  0.00336872  1
  H+  H85  1  0.97686105  0.61313530  0.98603491  1
  H+  H86  1  0.70943017  0.75749981  0.79242439  1
  H+  H87  1  0.73274780  0.35901901  -0.01467650  1
  H+  H88  1  0.12053474  0.64433343  0.15257896  1
  H+  H89  1  0.87882307  0.27162380  0.16326668  1
  H+  H90  1  0.89582824  0.37121894  0.65402373  1
  H+  H91  1  0.59024165  0.16817049  0.40522823  1
  H+  H92  1  0.89073329  0.52224949  0.16881677  1
  H+  H93  1  0.90657407  0.82873103  0.92465223  1
  H+  H94  1  0.87229947  0.38951996  0.80352839  1
  H+  H95  1  0.14020529  0.72042827  0.32538913  1
  H+  H96  1  0.77527750  0.13648447  1.00127574  1
  H+  H97  1  0.98298822  0.11611454  0.84166621  1
  H+  H98  1  0.82962349  0.16476391  0.08909786  1
  H+  H99  1  0.85717541  0.90855010  0.33142791  1
  H+  H100  1  0.16774529  0.08679520  0.89120668  1
  H+  H101  1  0.95870095  0.36237301  1.05815645  1
  H+  H102  1  0.14706872  0.52272842  0.66221551  1
  H+  H103  1  0.39810380  0.96715178  0.36869814  1
  H+  H104  1  0.47998131  0.86198218  0.83450520  1
  H+  H105  1  0.40466459  1.02752673  0.57542928  1
  H+  H106  1  0.14724956  0.59537083  0.31179774  1
  H+  H107  1  0.06493490  0.23455750  0.79957614  1
  H+  H108  1  0.39492577  0.86109522  0.67482701  1
  H+  H109  1  0.84908746  0.72376284  0.68371034  1
  H+  H110  1  0.35682182  0.13556482  -0.00342475  1
  H+  H111  1  0.38199936  0.35436525  0.15600253  1
  H+  H112  1  1.01386093  0.39251209  0.14613962  1
  H+  H113  1  0.61989517  0.52768028  0.66839678  1
  H+  H114  1  0.63648773  0.10781837  0.99571246  1
  H+  H115  1  0.36990648  0.39473364  0.50047611  1
  H+  H116  1  0.62105467  0.38687040  0.34536336  1
  H+  H117  1  0.17957860  0.59044354  0.89166476  1
  H+  H118  1  0.89405870  0.12909642  0.32392747  1
  H+  H119  1  0.36200467  0.63173859  0.14567327  1
  H+  H120  1  -0.02797292  0.86546133  0.17199421  1
  H+  H121  1  0.88009195  0.50110624  0.31807262  1
  H+  H122  1  0.60850117  0.23361214  0.49858304  1
  H+  H123  1  0.92403656  0.08509835  0.90156916  1
  H+  H124  1  0.12238608  0.23428482  0.48769540  1
  H+  H125  1  0.86750938  0.89362390  0.66743442  1
  H+  H126  1  0.11718231  0.74245009  0.83964741  1
  H+  H127  1  0.39323011  0.09819398  0.33512490  1
  H+  H128  1  0.47222836  0.61548493  0.16774254  1
  H+  H129  1  0.41010456  0.53119460  0.66806750  1
  H+  H130  1  0.23063118  0.10587102  0.65921690  1
  H+  H131  1  0.13325826  0.26140708  0.32823108  1
  H+  H132  1  0.22902181  0.61117796  0.15109980  1
  H+  H133  1  0.35675128  0.71835590  0.14611800  1
  H+  H134  1  0.13850949  0.70987165  0.29211710  1
  H+  H135  1  -0.01097019  0.13189172  0.50265820  1
  H+  H136  1  0.87605950  0.75683282  0.83956502  1
  H+  H137  1  0.13672653  0.47973546  0.82304968  1
  H+  H138  1  0.47078132  0.35350588  0.16085082  1
  H+  H139  1  0.71256932  0.84798535  1.00218756  1
  H+  H140  1  0.76673658  0.12657292  0.34368921  1
  H+  H141  1  0.38954254  0.76186572  0.32133449  1
  H+  H142  1  0.12017933  0.38529577  0.66293955  1
  H+  H143  1  0.10865498  0.13776447  0.15034408  1
  H+  H144  1  0.62347082  0.69451728  0.76112349  1
  H+  H145  1  0.14279576  1.00224784  -0.00015933  1
  H+  H146  1  0.72165932  0.85930387  0.17111673  1
  H+  H147  1  0.39947018  0.59691184  0.85289930  1
  H+  H148  1  0.33524298  0.15862848  0.72128690  1
  H+  H149  1  0.63814990  0.26654167  0.17636275  1
  H+  H150  1  0.61379709  0.71950725  0.15987865  1
  H+  H151  1  0.86558011  0.13647050  1.00208546  1
  H+  H152  1  0.55966184  0.95035150  0.52095329  1
  H+  H153  1  0.94398458  -0.03483917  0.44552193  1
  H+  H154  1  0.13480432  0.61010635  0.51402860  1
  H+  H155  1  0.36746876  0.26025106  0.48583958  1
  H+  H156  1  0.51406617  0.61172607  1.01078963  1
  H+  H157  1  0.95228527  0.83838749  0.50149709  1
  H+  H158  1  0.97865499  0.11502319  0.99374037  1
  H+  H159  1  0.27676665  0.88408119  1.00194188  1
  H+  H160  1  0.63976979  0.01974580  0.99594460  1
  H+  H161  1  0.02954538  0.64003071  0.15627273  1
  H+  H162  1  0.40994248  0.27051813  0.33048420  1
  H+  H163  1  0.13577794  0.10715736  0.82986338  1
  H+  H164  1  0.12182007  0.23435279  -0.00006642  1
  H+  H165  1  0.39942445  0.35202633  0.33359990  1
  H+  H166  1  0.87817337  0.36070740  0.16840672  1
  H+  H167  1  0.36711766  0.77049465  0.48385016  1
  H+  H168  1  0.37277757  0.16329541  0.81830643  1
  H+  H169  1  0.59037799  0.16519538  0.76441884  1
  H+  H170  1  0.62847095  -0.00302021  0.17393664  1
  H+  H171  1  0.64077974  0.87847103  0.84944495  1
  H+  H172  1  0.13930224  0.12177694  0.98428903  1
  H+  H173  1  0.72544192  0.60375684  -0.00713713  1
  H+  H174  1  0.38327315  0.71820786  0.82983204  1
  H+  H175  1  1.02011235  0.13890861  0.15242794  1
  H+  H176  1  0.29267439  0.41339754  -0.00499735  1
  H+  H177  1  0.65308146  0.05362650  0.51573228  1
  H+  H178  1  0.89954163  0.12606306  0.65557722  1
  H+  H179  1  0.60911095  0.97970525  0.82617949  1
  H+  H180  1  0.19820675  0.98077020  0.04227521  1
  H+  H181  1  0.08945254  0.90514947  0.52798467  1
  H+  H182  1  0.35887520  0.96612883  0.68286659  1
  H+  H183  1  0.39660944  0.36880493  1.00962451  1
  H+  H184  1  0.49289703  0.82868134  0.46662372  1
  H+  H185  1  0.24622700  0.85204032  0.83200736  1
  H+  H186  1  0.38253157  0.84385181  0.83744594  1
  H+  H187  1  0.28573427  0.13393479  0.33880152  1
  H+  H188  1  0.35648690  0.63304393  0.49370367  1
  H+  H189  1  0.90972306  0.31926554  0.25656620  1
  H+  H190  1  0.61756403  0.35951939  0.51094000  1
  H+  H191  1  0.62088638  0.13923642  0.82656664  1
  H+  H192  1  0.15857124  0.37422844  0.97969910  1
  H+  H193  1  0.38584769  0.09788849  0.65643785  1
  H+  H194  1  0.78186225  0.38684500  0.81663081  1
  H+  H195  1  0.14205454  0.27765869  0.16943397  1
  H+  H196  1  0.86387689  0.63354397  0.17037216  1
  H+  H197  1  0.51052531  0.38188601  0.68027846  1
  H+  H198  1  0.06254955  0.60123690  0.40812180  1
  H+  H199  1  0.86802245  0.39465149  1.01551047  1
  H+  H200  1  0.09778022  0.87068344  0.31421427  1
  H+  H201  1  0.16204606  0.04309613  0.50888039  1
  H+  H202  1  0.37891230  0.85526930  0.16652884  1
  H+  H203  1  0.89838422  0.13029344  0.50194772  1
  H+  H204  1  0.16474746  0.91182845  0.48839518  1
  H+  H205  1  0.47070498  0.60855364  0.50534323  1
  H+  H206  1  0.52670517  0.65254383  0.66225501  1
  H+  H207  1  0.71675878  0.59598411  0.50811476  1
  H+  H208  1  0.47013015  0.43747313  0.55051134  1
  H+  H209  1  0.04306377  0.39381280  -0.01008982  1
  H+  H210  1  0.29426146  0.63121950  0.82850378  1
  H+  H211  1  0.20895904  0.87628836  0.35658323  1
  H+  H212  1  0.94599146  0.86776325  0.35189114  1
  H+  H213  1  0.86350009  0.69544741  0.32737409  1
  H+  H214  1  0.33615918  0.42917085  0.09885899  1
  H+  H215  1  0.62661034  0.90215157  0.67033121  1
  H+  H216  1  0.84845961  0.62629733  0.82702805  1
  H+  H217  1  0.15598109  1.02266996  0.29839767  1
  H+  H218  1  0.36201372  0.73128054  -0.00417524  1
  H+  H219  1  0.28358682  0.62765823  0.33484006  1
  H+  H220  1  0.38999627  0.60992127  0.66191407  1
  H+  H221  1  0.88142693  0.58994630  0.32555434  1
  H+  H222  1  0.08664280  0.17455752  0.05917913  1
  H+  H223  1  0.64295962  0.26599425  0.33231305  1
  H+  H224  1  0.85225731  0.71816393  0.99448054  1
  H+  H225  1  0.86906942  0.36680935  0.33213939  1
  H+  H226  1  0.32066492  0.40554148  0.76933298  1
  H+  H227  1  0.62706889  0.00311570  0.33719682  1
  H+  H228  1  0.39531647  0.87143952  0.98903303  1
  H+  H229  1  0.19040304  0.28475353  0.83399758  1
  H+  H230  1  0.13445699  0.34976967  0.33274441  1
  H+  H231  1  0.14922155  0.51173800  0.30682648  1
  H+  H232  1  0.14569098  0.36291099  0.50072061  1
  H+  H233  1  0.72058203  0.59808691  0.84539014  1
  H+  H234  1  0.00219781  0.57312827  0.34888844  1
  H+  H235  1  0.92674710  0.58825551  0.55990822  1
  H+  H236  1  0.11043048  0.87946920  0.67800134  1
  H+  H237  1  0.64238178  0.64843768  0.34517534  1
  H+  H238  1  0.71013090  0.36630367  0.51642352  1
  H+  H239  1  0.39574618  0.10749098  0.18598572  1
  H+  H240  1  0.57871235  0.40862944  0.07660836  1
  H+  H241  1  0.63998144  0.78905178  0.65289619  1
  H+  H242  1  0.41485377  0.62293320  0.34685028  1
  H+  H243  1  0.85937747  0.88786651  0.16177920  1
  H+  H244  1  0.87111299  0.36568767  0.50634942  1
  H+  H245  1  0.77374752  0.38538552  0.66389592  1
  H+  H246  1  0.61658952  0.12957131  0.16278248  1
  H+  H247  1  0.96457442  0.85880895  0.98403756  1
  H+  H248  1  0.74102753  0.12617768  0.66308220  1
  H+  H249  1  0.57634332  0.40815697  0.43671703  1
  H+  H250  1  0.33544557  0.91893096  0.06194810  1
  H+  H251  1  0.52149164  0.87478791  0.32680252  1
  H+  H252  1  1.01280511  0.38160652  0.33348227  1
  H+  H253  1  0.33482190  0.93349433  0.85092236  1
  H+  H254  1  0.90248215  0.27714826  0.81376886  1
  H+  H255  1  0.28309440  0.63747686  0.67854439  1
  H+  H256  1  0.72654094  0.10569295  0.84270321  1
  H+  H257  1  0.88820446  0.02450456  0.99544640  1
  H+  H258  1  0.10699931  0.87212638  0.82640857  1
  H+  H259  1  0.88146547  0.11530743  0.16633432  1
  H+  H260  1  0.63378625  0.75995519  0.50973092  1
  H+  H261  1  0.61173575  0.87976094  0.01029524  1
  H+  H262  1  0.36281302  0.21143971  0.65945239  1
  H+  H263  1  0.73169792  0.35367017  0.33181901  1
  H+  H264  1  1.02399614  0.12762645  0.33814559  1
  H+  H265  1  0.85955934  0.72045900  0.17091327  1
  H+  H266  1  0.81898041  0.89427603  0.75948854  1
  H+  H267  1  0.52709074  0.88802896  1.00651311  1
  H+  H268  1  0.05442652  0.47250977  0.36408560  1
  H+  H269  1  0.09770458  0.48426821  0.13601320  1
  H+  H270  1  0.61649057  0.12856825  0.34908203  1
  H+  H271  1  0.22727442  0.85434340  0.67711083  1
  H+  H272  1  0.11051874  0.96391748  0.82715308  1
  H+  H273  1  0.13811836  0.01895847  0.66141720  1
  H+  H274  1  0.13130008  0.86755451  0.15992247  1
  H+  H275  1  0.96892282  0.61482263  0.83253432  1
  H+  H276  1  0.89702518  0.28085195  1.01774989  1
  H+  H277  1  0.35841395  0.47682500  0.49274084  1
  H+  H278  1  0.14632124  0.53424189  0.97877349  1
  H+  H279  1  0.63243997  0.59860190  0.99390414  1
  H+  H280  1  0.50444578  0.62982749  0.35325529  1
  H+  H281  1  0.47867990  0.11213394  0.49184704  1
  H+  H282  1  0.65114211  0.03406771  0.66271898  1
  H+  H283  1  0.51461936  0.38849269  0.50015047  1
  H+  H284  1  0.26444474  0.62714458  0.49651387  1
  H+  H285  1  0.64616913  0.26862390  -0.01692335  1
  H+  H286  1  0.55200936  -0.03175029  0.49202614  1
  H+  H287  1  0.78784954  0.06937091  0.77784737  1
  H+  H288  1  0.91741977  0.34216745  0.55781323  1
  H+  H289  1  0.80304716  0.41839709  0.44322793  1
  H+  H290  1  0.19925104  0.34219206  0.92718232  1
  H+  H291  1  0.09428526  0.42009941  0.43540171  1
  H+  H292  1  0.27186362  0.89046122  0.15671848  1
  H+  H293  1  0.52998691  0.38358010  0.34268201  1
  H+  H294  1  0.28468471  0.34193623  0.86215561  1
  H+  H295  1  0.08190519  0.92352953  0.09461887  1
  H+  H296  1  0.91560819  0.09314052  0.22727371  1
  H+  H297  1  0.63532681  0.60663172  0.17748977  1
  H+  H298  1  0.66295818  0.82828141  0.23102059  1
  H+  H299  1  0.66757319  0.08310170  0.90265790  1
  H+  H300  1  0.88843522  0.03935224  0.32061448  1
  H+  H301  1  0.88188332  0.86485389  0.50287293  1
  H+  H302  1  0.32843761  0.66179209  0.40010461  1
  H+  H303  1  0.87166273  0.24360648  0.48836376  1
  H+  H304  1  0.39436141  0.33777486  0.92174889  1
  H+  H305  1  0.16155014  0.08610662  0.21983889  1
  H+  H306  1  0.17371534  0.57859205  0.21192482  1
  H+  H307  1  0.64021534  0.51744838  0.32929427  1
  H+  H308  1  0.66348657  0.56280875  0.91281317  1
  H+  H309  1  0.28292617  0.17117210  0.49436306  1
  H+  H310  1  0.13541052  0.78182326  0.16966300  1
  H+  H311  1  0.41047495  0.81773886  0.25901845  1
  H+  H312  1  0.23122048  0.12402834  0.98208326  1
  H+  H313  1  0.66318036  0.83459893  0.55842055  1
  H+  H314  1  0.89393376  0.52123265  0.64561726  1
  H+  H315  1  0.39917689  0.52792368  0.94262019  1
  H+  H316  1  0.07388768  0.64091264  0.74750496  1
  H+  H317  1  0.65180633  0.33028620  0.60204608  1
  H+  H318  1  0.82730595  0.41925364  0.09973757  1
  H+  H319  1  0.42007989  0.33523912  0.59692622  1
  H+  H320  1  0.08473419  0.66706132  0.06114997  1
  H+  H321  1  0.91059974  0.82665430  0.60287945  1
  H+  H322  1  0.91663586  0.83879926  0.23332578  1
  H+  H323  1  0.64199113  0.73853427  0.34460949  1
  H+  H324  1  0.17332363  0.33143836  0.23022393  1
  H+  H325  1  0.08499164  0.15517800  0.39859850  1
  H+  H326  1  0.42681418  0.83960511  0.93076695  1
  H+  H327  1  0.10061418  0.42701391  0.04578730  1
  H+  H328  1  0.32586808  0.90644754  0.74347551  1
  H+  H329  1  0.16721738  0.58320258  0.57421235  1
  H+  H330  1  0.32933036  0.66525969  0.05095442  1
  H+  H331  1  0.87421774  0.28381592  0.90940447  1
  H+  H332  1  0.36523031  0.22322554  0.17202796  1
  H+  H333  1  0.23339967  0.85291214  0.53715368  1
  H+  H334  1  0.68194092  0.33425756  0.89069103  1
  H+  H335  1  0.15462913  0.81458291  0.89557136  1
  H+  H336  1  0.58377932  0.65614126  0.10244651  1
  H+  H337  1  0.15055078  0.39954732  0.82167266  1
  H+  H338  1  0.91537525  0.58058495  0.92680069  1
  H+  H339  1  0.82252012  0.65352797  0.43027389  1
  H+  H340  1  0.42587644  0.07101953  0.24077054  1
  H+  H341  1  0.08851179  0.18179356  0.75437509  1
  H+  H342  1  0.41286156  0.58049473  0.56501456  1
  H+  H343  1  0.07809551  0.91055327  0.73378865  1
  H+  H344  1  0.65777594  0.57433795  0.60438926  1
  H+  H345  1  0.81228058  0.65909665  0.77177087  1
  H+  H346  1  0.56626951  0.87530405  0.39035828  1
  H+  H347  1  0.02466492  0.64233974  0.49129720  1
  H+  H348  1  0.64976552  0.27834931  0.83021497  1
  H+  H349  1  0.15891391  0.80389869  0.62430364  1
  H+  H350  1  0.65152050  0.06450269  0.27958416  1
  H+  H351  1  0.06263524  0.94315943  0.42752011  1
  H+  H352  1  0.89464585  0.43120249  0.38610611  1
  H+  H353  1  0.65848774  0.82982662  0.94221533  1
  H+  H354  1  0.62918328  0.85774539  0.32116905  1
  H+  H355  1  0.68542198  0.10845587  0.57549215  1
  H+  H356  1  0.35750659  0.22339741  0.00740625  1
  H+  H357  1  0.40170862  0.06116927  0.81801403  1
  H+  H358  1  0.73168870  0.87567073  0.65306489  1
  H+  H359  1  0.66733937  0.57570426  0.26741489  1
  H+  H360  1  0.42213107  0.08723168  0.92873475  1
  H+  H361  1  0.34070454  0.17089633  0.39977853  1
  H+  H362  1  0.16854293  0.33360559  0.59341763  1
  H+  H363  1  0.09659877  0.41551759  0.72503904  1
  H+  H364  1  0.87087302  0.98466851  0.66858619  1
  H+  H365  1  0.83519137  0.42055465  0.72158848  1
  H+  H366  1  0.33139586  0.39527635  0.40373518  1
  H+  H367  1  0.76652753  0.61532720  0.33314155  1
  H+  H368  1  0.57890898  0.90721526  0.09973890  1
  H+  H369  1  0.41513071  0.52100295  0.83714149  1
  H+  H370  1  0.58921957  0.92468412  0.76474277  1
  H+  H371  1  0.66933196  0.32464377  0.23653531  1
  H+  H372  1  0.86360447  0.31931917  0.90940982  1
  H+  H373  1  0.46653301  0.85237424  0.16681486  1
  H+  H374  1  0.58256205  0.16067737  0.06464106  1
  H+  H375  1  0.84120737  0.94212016  0.39361918  1
  H+  H376  1  0.83081492  0.91582705  0.06533856  1
  H+  H377  1  0.56937553  0.41341120  0.77940568  1
  H+  H378  1  0.17315621  0.09287250  0.57064149  1
  H+  H379  1  0.14271054  0.89004824  0.25076808  1
  H+  H380  1  0.84837817  0.79357475  0.34706830  1
  H+  H381  1  0.83360770  0.17066892  0.39932725  1
  H+  H382  1  0.52714392  0.12678986  0.16616582  1
  H+  H383  1  0.92608872  0.09448773  0.59593560  1
  O2-  O384  1  0.07960380  0.16951998  0.13596757  1
  O2-  O385  1  0.08886477  0.17141917  0.47345590  1
  O2-  O386  1  0.08695833  0.19478536  0.79961095  1
  O2-  O387  1  0.05971583  0.42734308  0.11654987  1
  O2-  O388  1  0.10499234  0.41878306  0.47900774  1
  O2-  O389  1  0.11065598  0.41867196  0.80883132  1
  O2-  O390  1  0.08936876  0.67529668  0.14019635  1
  O2-  O391  1  0.08428113  0.66107449  0.47527702  1
  O2-  O392  1  0.07388284  0.65372344  0.82181895  1
  O2-  O393  1  0.07266211  0.91808022  0.13922973  1
  O2-  O394  1  0.11732008  0.92684494  0.48882326  1
  O2-  O395  1  0.07794528  0.90403042  0.81160105  1
  O2-  O396  1  0.33451239  0.15867775  0.18490031  1
  O2-  O397  1  0.33790846  0.20063741  0.47208457  1
  O2-  O398  1  0.33355125  0.17509006  0.79450060  1
  O2-  O399  1  0.33691040  0.42118612  0.14304789  1
  O2-  O400  1  0.33175132  0.41495437  0.48094923  1
  O2-  O401  1  0.38302015  0.44365760  0.76979543  1
  O2-  O402  1  0.32874205  0.65969669  0.12825146  1
  O2-  O403  1  0.32195079  0.65780756  0.47665088  1
  O2-  O404  1  0.35512878  0.65766410  0.81503494  1
  O2-  O405  1  0.33213520  0.91604027  0.14146529  1
  O2-  O406  1  0.40087988  1.00606897  0.53256153  1
  O2-  O407  1  0.31142937  0.88654823  0.82172367  1
  O2-  O408  1  0.58669574  0.15916491  0.14828541  1
  O2-  O409  1  0.58622278  0.17395882  0.48200101  1
  O2-  O410  1  0.59198443  0.17027670  0.80989476  1
  O2-  O411  1  0.58212072  0.41117085  0.15487869  1
  O2-  O412  1  0.57613432  0.40718215  0.48225834  1
  O2-  O413  1  0.57950463  0.40947354  0.82359976  1
  O2-  O414  1  0.58497123  0.65796640  0.14773226  1
  O2-  O415  1  0.57705945  0.65121449  0.48608226  1
  O2-  O416  1  0.66043878  0.69860899  0.79520187  1
  O2-  O417  1  0.57514570  0.90459551  0.14558591  1
  O2-  O418  1  0.53899366  0.82316223  0.44508507  1
  O2-  O419  1  0.58032520  0.92005298  0.80999810  1
  O2-  O420  1  0.82750121  0.16727444  0.13536261  1
  O2-  O421  1  0.84460528  0.18083756  0.47500607  1
  O2-  O422  1  0.81933840  0.12170399  0.80185445  1
  O2-  O423  1  0.83032894  0.41653756  0.14531824  1
  O2-  O424  1  0.81364461  0.42404184  0.48694581  1
  O2-  O425  1  0.84081782  0.42150226  0.79829650  1
  O2-  O426  1  0.82599823  0.65812217  0.16359294  1
  O2-  O427  1  0.82126550  0.65492798  0.47549801  1
  O2-  O428  1  0.81453667  0.65546911  0.81826498  1
  O2-  O429  1  0.82765990  0.91592735  0.14521823  1
  O2-  O430  1  0.88797811  0.95088436  0.46345833  1
  O2-  O431  1  0.80140968  0.86927214  0.80075260  1
  O2-  O432  1  0.16120795  0.08401767  0.17439780  1
  O2-  O433  1  0.17621371  0.09966268  0.52514647  1
  O2-  O434  1  0.16644394  0.07923843  0.84563827  1
  O2-  O435  1  0.17689847  0.33657896  0.18552862  1
  O2-  O436  1  0.17081451  0.32663710  0.51571740  1
  O2-  O437  1  0.22959605  0.34155691  0.85161582  1
  O2-  O438  1  0.16817421  0.58442865  0.16749676  1
  O2-  O439  1  0.16449912  0.57974640  0.52862607  1
  O2-  O440  1  0.18493940  0.58490371  0.84603990  1
  O2-  O441  1  0.16429316  0.84407255  0.18096536  1
  O2-  O442  1  0.23434092  0.87885742  0.49818952  1
  O2-  O443  1  0.15132509  0.81007545  0.85040619  1
  O2-  O444  1  0.42610866  0.07481067  0.19499924  1
  O2-  O445  1  0.41456743  0.08073182  0.49728339  1
  O2-  O446  1  0.43270343  0.10661604  0.84761009  1
  O2-  O447  1  0.40751169  0.31652712  0.15748658  1
  O2-  O448  1  0.44037594  0.37872537  0.53493338  1
  O2-  O449  1  0.37289725  0.34166746  0.88048963  1
  O2-  O450  1  0.41041633  0.59072647  0.17682827  1
  O2-  O451  1  0.40979246  0.58132113  0.51969568  1
  O2-  O452  1  0.41982154  0.55948788  0.87049729  1
  O2-  O453  1  0.40558691  0.82118701  0.18058513  1
  O2-  O454  1  0.40460863  0.83353192  0.48781036  1
  O2-  O455  1  0.42168740  0.82462835  0.85333338  1
  O2-  O456  1  0.66756894  0.05597175  0.19371650  1
  O2-  O457  1  0.68622821  0.11327270  0.52942643  1
  O2-  O458  1  0.66684933  0.08481379  0.85699668  1
  O2-  O459  1  0.66843704  0.32697019  0.19122669  1
  O2-  O460  1  0.64935422  0.33061484  0.52973358  1
  O2-  O461  1  0.68093965  0.33905046  0.84438981  1
  O2-  O462  1  0.66368617  0.57553415  0.19489786  1
  O2-  O463  1  0.65836007  0.56588934  0.52611679  1
  O2-  O464  1  0.66246544  0.55828276  0.86539184  1
  O2-  O465  1  0.66073640  0.82706104  0.18518824  1
  O2-  O466  1  0.66117066  0.82332997  0.51409756  1
  O2-  O467  1  0.67949213  0.86816286  0.87539890  1
  O2-  O468  1  0.91154931  0.08546902  0.18211916  1
  O2-  O469  1  0.92790442  0.09911025  0.51738651  1
  O2-  O470  1  0.92336137  0.08442403  0.85618125  1
  O2-  O471  1  0.90953842  0.33013470  0.18167819  1
  O2-  O472  1  0.90599024  0.33825981  0.51339790  1
  O2-  O473  1  0.92999672  0.33324641  0.79423878  1
  O2-  O474  1  0.92548848  0.58247964  0.18425810  1
  O2-  O475  1  0.92293020  0.58982152  0.51318674  1
  O2-  O476  1  0.90761255  0.58156643  0.84811816  1
  O2-  O477  1  0.91231997  0.83619243  0.18884227  1
  O2-  O478  1  0.89578777  0.82063288  0.51847064  1
  O2-  O479  1  0.90885715  0.81927208  0.85239925  1
  O2-  O480  1  0.18151104  0.08617264  0.29691491  1
  O2-  O481  1  0.16837797  0.07944772  0.64643388  1
  O2-  O482  1  0.16868298  0.09199868  0.96654299  1
  O2-  O483  1  0.16187575  0.32106850  0.31306798  1
  O2-  O484  1  0.16658717  0.33687730  0.63872664  1
  O2-  O485  1  0.19205153  0.34427591  0.97214695  1
  O2-  O486  1  0.18088219  0.57225473  0.29266412  1
  O2-  O487  1  0.17687289  0.58536682  0.65107891  1
  O2-  O488  1  0.17077922  0.59499907  0.96545200  1
  O2-  O489  1  0.12061993  0.91367633  0.28220272  1
  O2-  O490  1  0.16327622  0.82077497  0.66670179  1
  O2-  O491  1  0.17188627  0.82951532  0.97452087  1
  O2-  O492  1  0.42496227  0.06979768  0.31927692  1
  O2-  O493  1  0.41420747  0.06273930  0.64814379  1
  O2-  O494  1  0.42004744  0.08545702  0.97377061  1
  O2-  O495  1  0.43887128  0.33150398  0.31829496  1
  O2-  O496  1  0.41168580  0.31464655  0.64204979  1
  O2-  O497  1  0.41723471  0.33093874  0.99423965  1
  O2-  O498  1  0.44432476  0.58951973  0.34329434  1
  O2-  O499  1  0.42237968  0.58363470  0.64354180  1
  O2-  O500  1  0.39722896  0.53172616  0.98884441  1
  O2-  O501  1  0.42061051  0.82145516  0.30370637  1
  O2-  O502  1  0.43348097  0.83975920  0.66222560  1
  O2-  O503  1  0.42760565  0.84239213  0.97622264  1
  O2-  O504  1  0.65849663  0.06657773  0.32409298  1
  O2-  O505  1  0.68009025  0.09607552  0.64855526  1
  O2-  O506  1  0.66945968  0.08016855  0.98003624  1
  O2-  O507  1  0.67285526  0.32649765  0.31603415  1
  O2-  O508  1  0.65888516  0.32798807  0.64789518  1
  O2-  O509  1  0.67982611  0.32354695  0.96140020  1
  O2-  O510  1  0.67462909  0.57801225  0.31342109  1
  O2-  O511  1  0.65763531  0.58434823  0.64896554  1
  O2-  O512  1  0.66259353  0.56803053  0.97951391  1
  O2-  O513  1  0.66695427  0.83373641  0.30665946  1
  O2-  O514  1  0.67128263  0.85088158  0.63880963  1
  O2-  O515  1  0.65218164  0.81701327  0.98765776  1
  O2-  O516  1  0.92474013  0.10023789  0.30649250  1
  O2-  O517  1  0.92687464  0.09253910  0.64142049  1
  O2-  O518  1  0.91762837  0.08490969  0.97959939  1
  O2-  O519  1  0.91183005  0.31873213  0.30236348  1
  O2-  O520  1  0.92602387  0.34094015  0.63865522  1
  O2-  O521  1  0.93101229  0.34487860  1.01814129  1
  O2-  O522  1  0.91412291  0.56338641  0.30822494  1
  O2-  O523  1  0.93150532  0.57986468  0.62914837  1
  O2-  O524  1  0.91590861  0.58059467  0.97233705  1
  O2-  O525  1  0.89846590  0.83273217  0.32296027  1
  O2-  O526  1  0.91356234  0.83277405  0.64750638  1
  O2-  O527  1  0.90500853  0.83198403  0.97089909  1
  O2-  O528  1  0.08719653  0.17350505  0.01346219  1
  O2-  O529  1  0.08191507  0.14168484  0.35374726  1
  O2-  O530  1  0.08983331  0.16742012  0.68392794  1
  O2-  O531  1  0.10490845  0.42549704  0.00050233  1
  O2-  O532  1  0.06721908  0.42615965  0.35296781  1
  O2-  O533  1  0.09128875  0.41746918  0.68041835  1
  O2-  O534  1  0.08317042  0.66790162  0.01558819  1
  O2-  O535  1  0.04478162  0.56368297  0.37153527  1
  O2-  O536  1  0.08083659  0.64685843  0.70178166  1
  O2-  O537  1  0.14074451  0.95300470  0.02440175  1
  O2-  O538  1  0.02282748  0.95147051  0.40060874  1
  O2-  O539  1  0.08066261  0.91199246  0.68814842  1
  O2-  O540  1  0.32106625  0.15952591  0.01119954  1
  O2-  O541  1  0.34403008  0.15729113  0.35584913  1
  O2-  O542  1  0.33386180  0.15079161  0.67568504  1
  O2-  O543  1  0.35302134  0.44345721  0.01275935  1
  O2-  O544  1  0.32805689  0.37213496  0.36223594  1
  O2-  O545  1  0.40805159  0.44856388  0.70563965  1
  O2-  O546  1  0.32575863  0.66955579  0.00586147  1
  O2-  O547  1  0.33867975  0.66622867  0.35509863  1
  O2-  O548  1  0.34458465  0.66562812  0.69120312  1
  O2-  O549  1  0.33734059  0.91976932  0.01643712  1
  O2-  O550  1  0.37776555  0.90855315  0.38374937  1
  O2-  O551  1  0.32526848  0.90553448  0.69826528  1
  O2-  O552  1  0.58444432  0.15940176  0.01962178  1
  O2-  O553  1  0.59126811  0.16541301  0.35972669  1
  O2-  O554  1  0.58104058  0.16050509  0.68751798  1
  O2-  O555  1  0.57353464  0.40305119  0.03156958  1
  O2-  O556  1  0.59208873  0.41814020  0.35962432  1
  O2-  O557  1  0.54588918  0.43277938  0.70679057  1
  O2-  O558  1  0.57519215  0.64699561  0.02233458  1
  O2-  O559  1  0.62753845  0.68622691  0.36878006  1
  O2-  O560  1  0.58829598  0.68854774  0.67476869  1
  O2-  O561  1  0.58656826  0.91602197  0.02429041  1
  O2-  O562  1  0.57977282  0.90350784  0.34670893  1
  O2-  O563  1  0.59904078  0.93444870  0.68814119  1
  O2-  O564  1  0.83555819  0.16727096  0.01751351  1
  O2-  O565  1  0.82902815  0.16367111  0.35368284  1
  O2-  O566  1  0.84913263  0.18207130  0.68102120  1
  O2-  O567  1  0.83263739  0.42206912  0.02333752  1
  O2-  O568  1  0.84938612  0.40339528  0.35558372  1
  O2-  O569  1  0.83503730  0.41685304  0.67601732  1
  O2-  O570  1  0.82324929  0.65796494  0.00831358  1
  O2-  O571  1  0.82900387  0.64260328  0.35028660  1
  O2-  O572  1  0.81728009  0.66532751  0.70074720  1
  O2-  O573  1  0.82863681  0.91852702  0.02011673  1
  O2-  O574  1  0.83043711  0.94028504  0.34867058  1
  O2-  O575  1  0.83687125  0.92375918  0.68190016  1
