# generated using pymatgen
data_H2O
_symmetry_space_group_name_H-M   'P 1'
_cell_length_a   17.99312416
_cell_length_b   17.99123385
_cell_length_c   22.00068055
_cell_angle_alpha   90.01701862
_cell_angle_beta   90.01361374
_cell_angle_gamma   119.99912149
_symmetry_Int_Tables_number   1
_chemical_formula_structural   H2O
_chemical_formula_sum   'H384 O192'
_cell_volume   6167.91037307
_cell_formula_units_Z   192
loop_
 _symmetry_equiv_pos_site_id
 _symmetry_equiv_pos_as_xyz
  1  'x, y, z'
loop_
 _atom_type_symbol
 _atom_type_oxidation_number
  H+  1.0
  O2-  -2.0
loop_
 _atom_site_type_symbol
 _atom_site_label
 _atom_site_symmetry_multiplicity
 _atom_site_fract_x
 _atom_site_fract_y
 _atom_site_fract_z
 _atom_site_occupancy
  H+  H0  1  0.09810899  0.92600277  0.43595561  1
  H+  H1  1  0.80223177  0.65349468  0.68304636  1
  H+  H2  1  0.11032664  0.62939305  0.15738608  1
  H+  H3  1  0.99248295  0.61470984  0.66032288  1
  H+  H4  1  0.22359891  0.10875800  0.51046425  1
  H+  H5  1  0.14795386  0.86837730  0.18718387  1
  H+  H6  1  0.35335946  0.71990784  0.67062538  1
  H+  H7  1  0.36712530  0.23741738  0.15766137  1
  H+  H8  1  0.49871646  0.10126301  0.96819060  1
  H+  H9  1  0.38848768  0.77607148  0.50785173  1
  H+  H10  1  0.23156404  0.87231993  0.84357786  1
  H+  H11  1  0.71659426  0.10324247  0.83724233  1
  H+  H12  1  0.41230201  0.86656900  0.16739182  1
  H+  H13  1  0.47721076  0.33604820  0.85147777  1
  H+  H14  1  0.90644119  0.61950316  0.66029844  1
  H+  H15  1  0.64298252  0.86819975  0.83899822  1
  H+  H16  1  0.87489464  0.52408673  0.83694194  1
  H+  H17  1  0.23940672  0.17161359  0.98714889  1
  H+  H18  1  0.07296284  0.42299675  0.76601919  1
  H+  H19  1  0.39000250  0.75655534  0.83588722  1
  H+  H20  1  0.66285750  0.53824300  0.67632259  1
  H+  H21  1  0.89390763  0.52123886  0.51230553  1
  H+  H22  1  0.52665861  0.88835357  0.49522722  1
  H+  H23  1  0.59508475  0.73103513  0.36272015  1
  H+  H24  1  0.43246188  0.56587891  0.77175556  1
  H+  H25  1  0.10672663  0.22383807  0.33564197  1
  H+  H26  1  0.14304385  0.62040219  0.51299069  1
  H+  H27  1  0.40226393  1.06099255  0.89332185  1
  H+  H28  1  0.52953494  0.14616064  0.67250454  1
  H+  H29  1  0.12328228  0.90182197  0.82701341  1
  H+  H30  1  0.86411666  0.14351600  0.49458170  1
  H+  H31  1  0.60809285  0.64229219  0.00875949  1
  H+  H32  1  0.36093511  0.34345058  0.46557585  1
  H+  H33  1  0.38458381  0.76858282  0.99724433  1
  H+  H34  1  0.11416159  0.14978520  0.16409485  1
  H+  H35  1  0.14024661  0.53000647  0.50815634  1
  H+  H36  1  0.34166687  0.20282713  0.47083600  1
  H+  H37  1  0.22471896  0.60866833  0.66282438  1
  H+  H38  1  0.14274002  0.86989600  0.50810987  1
  H+  H39  1  0.66028572  0.83458630  0.93688171  1
  H+  H40  1  0.63157878  0.02025782  0.31617023  1
  H+  H41  1  0.84081837  0.55789151  0.31829447  1
  H+  H42  1  0.76212432  0.12402315  0.34054912  1
  H+  H43  1  0.57891754  0.15500496  0.09755641  1
  H+  H44  1  0.37117717  0.61440507  0.65511436  1
  H+  H45  1  0.09662792  0.12921797  0.33108507  1
  H+  H46  1  0.14057402  0.02199878  0.66086980  1
  H+  H47  1  0.26260930  0.61647557  0.35453835  1
  H+  H48  1  0.35551115  0.21161672  0.83147070  1
  H+  H49  1  0.33332434  0.40093723  0.59493277  1
  H+  H50  1  0.12341880  0.51690169  0.16978174  1
  H+  H51  1  0.48399981  0.60184530  0.51267196  1
  H+  H52  1  0.86058912  0.71522204  0.15840569  1
  H+  H53  1  0.65172241  0.51118107  0.85407575  1
  H+  H54  1  0.42128086  0.32164802  0.91081606  1
  H+  H55  1  0.19313894  0.13839108  0.34668108  1
  H+  H56  1  0.36071512  0.36562795  0.85895804  1
  H+  H57  1  0.20414815  0.02394643  1.00845886  1
  H+  H58  1  0.23386228  0.11662374  0.66371549  1
  H+  H59  1  0.83510332  0.92733622  0.22868090  1
  H+  H60  1  0.82553316  0.16243243  0.43463519  1
  H+  H61  1  0.64319206  0.36838367  0.00182823  1
  H+  H62  1  0.13387332  0.60775003  0.99772040  1
  H+  H63  1  0.97145128  0.11823613  0.99809828  1
  H+  H64  1  0.63444461  0.87010100  0.99784644  1
  H+  H65  1  0.86075102  0.23237326  0.67840269  1
  H+  H66  1  0.22916000  0.34306720  0.86549042  1
  H+  H67  1  0.88005835  0.86276425  0.17329009  1
  H+  H68  1  0.34328499  0.47235454  0.15726883  1
  H+  H69  1  0.97755139  0.61210423  0.17099169  1
  H+  H70  1  0.88349342  1.02709003  -0.00767566  1
  H+  H71  1  0.64146822  0.49715065  0.50040170  1
  H+  H72  1  0.70041519  0.91413196  0.64866280  1
  H+  H73  1  0.11590528  0.16474043  0.00064884  1
  H+  H74  1  0.86389548  0.62702394  0.16010829  1
  H+  H75  1  0.07954735  0.17332181  0.06805373  1
  H+  H76  1  0.89230942  1.02131614  0.84255034  1
  H+  H77  1  0.59567729  0.53944320  0.31146371  1
  H+  H78  1  0.48306462  0.37191314  0.00043135  1
  H+  H79  1  0.66684308  0.07759899  0.25656113  1
  H+  H80  1  0.09382991  0.92599514  0.73081642  1
  H+  H81  1  0.11117723  0.47459280  0.66895427  1
  H+  H82  1  0.08352214  0.66261759  0.06525144  1
  H+  H83  1  0.89584313  0.37375395  0.99480112  1
  H+  H84  1  0.89228384  0.03132215  0.49701975  1
  H+  H85  1  0.42531022  0.64918705  0.77704854  1
  H+  H86  1  0.47084541  0.61218466  0.17299668  1
  H+  H87  1  0.00462733  0.85462956  0.02060792  1
  H+  H88  1  0.83564919  0.91259406  -0.06073406  1
  H+  H89  1  0.53531341  0.89126787  0.00227112  1
  H+  H90  1  0.85941080  0.14348551  0.00053372  1
  H+  H91  1  0.38551611  0.36202266  0.67709047  1
  H+  H92  1  0.17422265  0.84279971  0.59601833  1
  H+  H93  1  0.12877114  0.11285327  0.83563106  1
  H+  H94  1  0.14885377  0.04591256  0.18421016  1
  H+  H95  1  0.85401694  0.62628959  0.83857605  1
  H+  H96  1  0.48102442  0.09642189  0.17649786  1
  H+  H97  1  0.77354769  0.14441418  0.67709007  1
  H+  H98  1  0.64216713  0.27317653  0.16193790  1
  H+  H99  1  0.58189146  0.87262191  0.68217519  1
  H+  H100  1  0.88743872  0.36637768  0.49712208  1
  H+  H101  1  0.21235965  0.35976565  0.64601265  1
  H+  H102  1  0.12531492  0.28453095  0.17601595  1
  H+  H103  1  0.47862361  0.11852440  0.51237289  1
  H+  H104  1  0.60102554  0.88108522  0.33651888  1
  H+  H105  1  0.62446997  0.90768315  0.14200966  1
  H+  H106  1  0.61919624  0.23419102  0.66349566  1
  H+  H107  1  0.01811019  0.13819942  0.83128903  1
  H+  H108  1  0.28452874  0.88688068  0.00130534  1
  H+  H109  1  0.89782076  0.01410188  0.65524608  1
  H+  H110  1  0.63116529  0.01896984  0.15735265  1
  H+  H111  1  0.71838870  0.60989490  1.00253232  1
  H+  H112  1  0.35001506  0.43483017  0.89583761  1
  H+  H113  1  0.34985298  0.70955826  0.34699475  1
  H+  H114  1  0.68395219  0.85227206  0.59324375  1
  H+  H115  1  0.75816741  0.37615117  0.49882723  1
  H+  H116  1  0.61071155  0.47559132  0.01554213  1
  H+  H117  1  0.12113090  0.63849108  0.67428367  1
  H+  H118  1  0.63431737  0.33248576  0.33933456  1
  H+  H119  1  0.24937745  0.38973061  0.16125254  1
  H+  H120  1  0.65316634  0.08176014  0.89358580  1
  H+  H121  1  0.79058361  0.87993567  0.67500383  1
  H+  H122  1  0.14327119  0.87213416  0.33798131  1
  H+  H123  1  0.88014394  0.84621729  0.99160787  1
  H+  H124  1  1.03963669  0.89866938  0.66783093  1
  H+  H125  1  0.88658298  0.27720025  0.49866110  1
  H+  H126  1  1.04839545  0.91807322  0.33983226  1
  H+  H127  1  0.87553221  0.38947766  0.15433166  1
  H+  H128  1  0.11572791  0.71750311  1.00349239  1
  H+  H129  1  0.31595118  0.61159336  0.81725040  1
  H+  H130  1  0.36453230  0.23636792  0.00820991  1
  H+  H131  1  0.72769017  0.61381380  0.16730412  1
  H+  H132  1  0.40715949  0.02237578  0.98284479  1
  H+  H133  1  0.22432228  0.63372110  0.83355685  1
  H+  H134  1  0.94150043  0.84653725  0.13067978  1
  H+  H135  1  0.38464835  0.84251975  0.83778045  1
  H+  H136  1  0.89797613  0.28502905  0.99025760  1
  H+  H137  1  0.61599139  0.97785013  0.49328585  1
  H+  H138  1  0.21323207  0.60930488  0.17102307  1
  H+  H139  1  0.36466347  0.88296254  0.65796654  1
  H+  H140  1  0.27070819  0.88445365  0.35168856  1
  H+  H141  1  0.90824317  0.87087149  0.65979927  1
  H+  H142  1  0.86763991  0.89119101  0.33011547  1
  H+  H143  1  0.86757739  0.47869956  0.66737004  1
  H+  H144  1  0.63756022  0.17297873  0.82439146  1
  H+  H145  1  0.58926577  0.66996052  0.60455974  1
  H+  H146  1  0.49077665  0.36046773  0.17881696  1
  H+  H147  1  0.35241866  0.63330888  1.02140070  1
  H+  H148  1  0.83098259  0.66696547  0.34122528  1
  H+  H149  1  0.72696535  0.85643449  0.32258012  1
  H+  H150  1  0.85689481  0.62323770  0.00455349  1
  H+  H151  1  0.26535120  0.39328283  0.48907611  1
  H+  H152  1  0.63609147  0.45064187  0.33947558  1
  H+  H153  1  0.61189338  0.64023328  0.15424709  1
  H+  H154  1  0.02635586  0.88220442  0.82336004  1
  H+  H155  1  0.91683702  0.33727729  0.59499425  1
  H+  H156  1  0.66546971  0.77631396  0.28277026  1
  H+  H157  1  0.43027584  0.06574349  0.27016793  1
  H+  H158  1  0.50179594  0.87199158  0.15299186  1
  H+  H159  1  0.65198879  0.78296661  0.83962959  1
  H+  H160  1  1.01681566  0.39132836  0.99703571  1
  H+  H161  1  0.37362778  0.73420549  0.15835560  1
  H+  H162  1  0.45748578  0.60943221  0.66059102  1
  H+  H163  1  0.12280333  0.27456225  1.00579537  1
  H+  H164  1  1.03579915  0.64441390  0.50519731  1
  H+  H165  1  0.13532983  0.27440815  0.49759714  1
  H+  H166  1  0.60450303  0.97480816  0.82801779  1
  H+  H167  1  0.13710398  0.11723253  0.51241452  1
  H+  H168  1  0.63545611  0.11598520  0.65761213  1
  H+  H169  1  0.28147196  0.12406204  0.32670813  1
  H+  H170  1  0.42389955  0.32658921  0.50242403  1
  H+  H171  1  0.35312832  0.12331131  0.49251681  1
  H+  H172  1  0.64911331  0.35654683  0.50620614  1
  H+  H173  1  0.81023962  0.77772646  0.54260171  1
  H+  H174  1  0.72704542  0.11381851  0.50566753  1
  H+  H175  1  0.61311819  0.13685393  0.49937433  1
  H+  H176  1  0.39001456  0.36789576  -0.00100888  1
  H+  H177  1  0.09484891  0.93920474  0.02392836  1
  H+  H178  1  0.12054805  0.37363534  0.17864769  1
  H+  H179  1  0.78133206  0.38806001  0.00523454  1
  H+  H180  1  0.59869479  0.64675826  0.35415863  1
  H+  H181  1  0.09362366  0.67615408  0.44557643  1
  H+  H182  1  0.13910411  0.00510278  0.34299574  1
  H+  H183  1  0.86833682  0.47562420  0.15186314  1
  H+  H184  1  0.32208540  0.66797672  0.07727149  1
  H+  H185  1  0.99954884  0.40679413  0.31340248  1
  H+  H186  1  0.93212016  0.80394467  0.31762421  1
  H+  H187  1  0.63176284  0.77068795  0.16242588  1
  H+  H188  1  0.45758730  0.84275513  0.33574611  1
  H+  H189  1  0.10723877  0.23315455  0.67320381  1
  H+  H190  1  0.38156872  0.51144678  0.50450845  1
  H+  H191  1  0.77361019  0.89488464  0.48188666  1
  H+  H192  1  0.47287910  0.61593031  1.01205419  1
  H+  H193  1  0.12810084  0.25586821  0.85242559  1
  H+  H194  1  0.11201383  0.39305216  0.48492193  1
  H+  H195  1  0.88679369  0.76894190  0.84276205  1
  H+  H196  1  0.11955055  0.49154656  -0.00115219  1
  H+  H197  1  0.04679988  0.90283608  0.18140187  1
  H+  H198  1  0.35401005  0.22002189  0.68752249  1
  H+  H199  1  0.27874223  0.64781083  0.49990056  1
  H+  H200  1  0.84828098  0.12248464  0.82922189  1
  H+  H201  1  0.88837408  0.36809004  0.65454154  1
  H+  H202  1  0.69333662  0.60163753  0.33132443  1
  H+  H203  1  0.73307712  0.35980041  0.15944594  1
  H+  H204  1  0.63773569  0.86893792  0.50303942  1
  H+  H205  1  0.02692036  0.13713630  0.49148037  1
  H+  H206  1  0.97340329  0.11026437  0.65631689  1
  H+  H207  1  0.86404675  0.48494834  0.31585803  1
  H+  H208  1  0.66087039  0.62547042  0.66459768  1
  H+  H209  1  0.86619651  0.88206785  0.83113058  1
  H+  H210  1  0.62340614  0.63694159  0.50746504  1
  H+  H211  1  0.52012004  0.87927487  0.83054017  1
  H+  H212  1  0.62593823  0.64378538  0.83160855  1
  H+  H213  1  0.51083144  0.11804296  0.34939906  1
  H+  H214  1  0.43908920  0.33131209  0.64220427  1
  H+  H215  1  0.54468887  0.40348657  0.70340054  1
  H+  H216  1  0.62104370  0.23131115  0.50022273  1
  H+  H217  1  0.29806957  0.83269791  0.13127920  1
  H+  H218  1  0.18100095  1.04091382  0.02759630  1
  H+  H219  1  0.22478192  0.60952076  1.00261314  1
  H+  H220  1  -0.03624289  0.38812436  0.83310798  1
  H+  H221  1  0.77710742  0.15554976  0.00055831  1
  H+  H222  1  0.36498772  0.96840989  0.34646079  1
  H+  H223  1  0.88599331  1.02831748  0.31752327  1
  H+  H224  1  0.06145752  0.69628132  0.76403977  1
  H+  H225  1  0.39811101  1.00437191  0.18050151  1
  H+  H226  1  0.90856044  0.56930775  0.22679334  1
  H+  H227  1  0.61821297  0.29477923  0.83003031  1
  H+  H228  1  0.47330780  0.35373915  0.33672399  1
  H+  H229  1  0.38123431  0.10828174  0.66375962  1
  H+  H230  1  0.37232012  0.88383249  1.00028483  1
  H+  H231  1  0.87746797  0.75452725  0.99634243  1
  H+  H232  1  0.32822118  0.42607699  0.42953175  1
  H+  H233  1  0.40707833  0.58444126  0.95810619  1
  H+  H234  1  0.35190823  0.46763197  0.01690738  1
  H+  H235  1  0.11417905  0.72418627  0.35575756  1
  H+  H236  1  0.12730621  0.02245391  0.83702181  1
  H+  H237  1  -0.00930872  0.37758220  0.16818550  1
  H+  H238  1  0.61301201  0.12893201  0.15572326  1
  H+  H239  1  0.26548783  0.88618000  0.65967756  1
  H+  H240  1  0.35553712  0.47363331  0.64304651  1
  H+  H241  1  0.81335846  0.45256283  0.44719925  1
  H+  H242  1  0.38698922  0.26531146  0.33034344  1
  H+  H243  1  0.35697710  0.95348401  0.81993005  1
  H+  H244  1  0.99925270  0.66937784  0.81901980  1
  H+  H245  1  0.02373033  0.39430916  0.48663135  1
  H+  H246  1  0.11356171  0.39162292  0.00211021  1
  H+  H247  1  0.35863762  0.47200702  0.33845492  1
  H+  H248  1  0.72227639  0.60669031  0.86254337  1
  H+  H249  1  0.21582028  0.35020634  0.32783459  1
  H+  H250  1  0.71986957  0.11364961  0.16352726  1
  H+  H251  1  0.88615003  0.03625672  0.16891039  1
  H+  H252  1  0.36463578  -0.01863890  0.66369525  1
  H+  H253  1  0.55797290  0.40743798  0.50413384  1
  H+  H254  1  0.89369640  0.28697774  0.16913864  1
  H+  H255  1  0.07995895  0.17794462  0.77210220  1
  H+  H256  1  0.35761830  0.63829557  0.16256258  1
  H+  H257  1  0.46240430  0.60892328  0.33356265  1
  H+  H258  1  0.27990458  0.89311615  0.50137938  1
  H+  H259  1  0.63008025  0.02512126  0.66249428  1
  H+  H260  1  0.77862117  0.88756838  0.82902911  1
  H+  H261  1  0.11294683  -0.02694249  0.49901836  1
  H+  H262  1  0.46358195  0.86674193  0.66191905  1
  H+  H263  1  0.08474372  0.16229308  0.43176172  1
  H+  H264  1  0.36099221  0.38350149  0.34450536  1
  H+  H265  1  0.33600228  0.67062394  0.44061071  1
  H+  H266  1  0.87097390  0.36983233  0.32908319  1
  H+  H267  1  0.60838432  0.73311311  0.00588400  1
  H+  H268  1  0.31391850  0.40421120  0.07291312  1
  H+  H269  1  0.14945115  0.87359889  0.65954681  1
  H+  H270  1  0.87350834  0.62740320  0.49611622  1
  H+  H271  1  0.97390384  0.11763904  0.32094698  1
  H+  H272  1  0.21884021  0.36096956  1.00296177  1
  H+  H273  1  0.66213890  0.32819604  -0.05522297  1
  H+  H274  1  0.10368296  0.63028911  0.36119865  1
  H+  H275  1  0.13621542  0.84674979  1.00309780  1
  H+  H276  1  0.63977810  0.77998837  0.50858599  1
  H+  H277  1  0.74549391  0.61742673  0.51519173  1
  H+  H278  1  0.88692353  0.51711477  0.99397966  1
  H+  H279  1  0.62127656  0.73233683  0.65898204  1
  H+  H280  1  0.72025911  0.32609053  0.33200356  1
  H+  H281  1  0.37029039  0.84258516  0.34239370  1
  H+  H282  1  0.39382646  0.10071854  0.32375268  1
  H+  H283  1  -0.02553731  0.60782606  -0.00748955  1
  H+  H284  1  0.91556162  0.78672576  0.65561302  1
  H+  H285  1  0.11401290  0.72163750  0.16115733  1
  H+  H286  1  0.12262096  0.72840285  0.66927992  1
  H+  H287  1  0.77618432  0.39006093  0.66399552  1
  H+  H288  1  0.67441752  0.33339362  0.58888514  1
  H+  H289  1  0.64596441  0.36769511  0.65046079  1
  H+  H290  1  0.26038298  0.12890642  0.82785787  1
  H+  H291  1  0.17433539  0.59539154  0.89475726  1
  H+  H292  1  0.92235913  0.82641609  0.90149193  1
  H+  H293  1  0.36070165  0.08738654  0.83729686  1
  H+  H294  1  0.82124844  0.16017500  0.77321253  1
  H+  H295  1  0.56355944  0.66411525  0.79263852  1
  H+  H296  1  0.12420350  0.36262810  0.65424756  1
  H+  H297  1  0.08816349  0.91128677  0.11699937  1
  H+  H298  1  0.15404505  0.32783813  0.27034751  1
  H+  H299  1  0.33233122  0.14197300  0.38855806  1
  H+  H300  1  0.86152691  0.14841628  0.15402383  1
  H+  H301  1  0.92232736  0.08091340  0.56055181  1
  H+  H302  1  0.66629423  0.08094914  0.56470756  1
  H+  H303  1  0.10333442  0.48914649  0.82071074  1
  H+  H304  1  0.93783763  0.35586951  0.25734078  1
  H+  H305  1  0.82681138  0.42625516  0.75908770  1
  H+  H306  1  0.02336549  0.14599834  0.15771908  1
  H+  H307  1  0.58300097  0.66433827  0.45129859  1
  H+  H308  1  0.91743386  0.08330742  0.90148441  1
  H+  H309  1  0.58379736  0.41136018  0.07221524  1
  H+  H310  1  0.27242388  0.15903036  0.16030865  1
  H+  H311  1  0.90490214  0.82794929  0.56429339  1
  H+  H312  1  0.17702763  0.84669817  0.93893867  1
  H+  H313  1  0.92627752  0.58322720  0.57074578  1
  H+  H314  1  0.32001708  0.17915056  0.06677046  1
  H+  H315  1  0.08222959  0.41912136  0.10968038  1
  H+  H316  1  0.84615377  0.39861636  0.82417006  1
  H+  H317  1  0.02068106  0.38645162  0.66649504  1
  H+  H318  1  0.15608059  0.31727352  0.92026374  1
  H+  H319  1  0.72493258  0.41931237  0.81393399  1
  H+  H320  1  0.86498720  0.71323303  0.49041540  1
  H+  H321  1  0.31843132  0.43355923  0.74970834  1
  H+  H322  1  0.76656563  0.88188365  0.17699089  1
  H+  H323  1  0.33088336  0.89527593  0.76087119  1
  H+  H324  1  0.62670630  0.42457167  0.74302932  1
  H+  H325  1  0.85466640  0.13361029  0.34248110  1
  H+  H326  1  0.39243016  0.86829991  0.50888990  1
  H+  H327  1  0.33748886  0.92064574  0.44111742  1
  H+  H328  1  0.17138492  0.08852462  0.59511963  1
  H+  H329  1  0.91678577  0.09693061  0.22614230  1
  H+  H330  1  0.57770054  0.67090875  0.09772024  1
  H+  H331  1  0.82917892  0.65233766  0.06556117  1
  H+  H332  1  0.41549353  0.81931680  0.93382085  1
  H+  H333  1  0.16902522  0.83321746  0.28169136  1
  H+  H334  1  0.88150212  0.69320206  0.73114861  1
  H+  H335  1  0.83092898  0.38133420  0.39176732  1
  H+  H336  1  0.39108925  0.02657925  0.51100248  1
  H+  H337  1  0.42841328  0.33200734  0.23645375  1
  H+  H338  1  0.36260855  0.43904560  0.75199435  1
  H+  H339  1  0.59872930  0.41863450  0.40558044  1
  H+  H340  1  0.45831184  0.38197789  0.57051592  1
  H+  H341  1  0.23397158  0.86676368  0.18661049  1
  H+  H342  1  0.80507994  0.62804644  0.40639442  1
  H+  H343  1  0.60984390  0.21442364  0.35010381  1
  H+  H344  1  0.84534397  0.91057561  0.73669097  1
  H+  H345  1  0.65382196  0.57452249  0.94666947  1
  H+  H346  1  0.93671687  0.84744933  0.25525145  1
  H+  H347  1  0.62231488  0.47293992  0.15994662  1
  H+  H348  1  0.58007020  0.91393395  0.39740475  1
  H+  H349  1  0.49208721  0.36769427  0.57101744  1
  H+  H350  1  0.33817735  0.91237753  0.08898183  1
  H+  H351  1  0.83284346  0.91866492  0.38812185  1
  H+  H352  1  0.44420599  0.58414146  0.88170072  1
  H+  H353  1  0.37182632  0.60261862  0.32993620  1
  H+  H354  1  0.41217787  0.57940401  0.57022375  1
  H+  H355  1  0.76425554  0.87943271  -0.01115388  1
  H+  H356  1  0.17705773  0.12956765  0.92859489  1
  H+  H357  1  0.66566500  0.59501595  0.22423778  1
  H+  H358  1  0.57057828  0.15641670  0.41670783  1
  H+  H359  1  0.62738584  0.38420026  0.15752833  1
  H+  H360  1  0.84306877  0.41727774  0.06448939  1
  H+  H361  1  0.41184544  0.58165067  0.23244442  1
  H+  H362  1  0.11306777  0.14803149  0.67866217  1
  H+  H363  1  0.61542005  0.19990715  0.76163419  1
  H+  H364  1  0.33381394  0.66194608  0.73434357  1
  H+  H365  1  0.15540737  0.33128487  0.55760268  1
  H+  H366  1  0.56675883  0.91424964  0.74112780  1
  H+  H367  1  0.78977529  0.63345770  0.78926106  1
  H+  H368  1  0.64201957  0.83891237  0.21369637  1
  H+  H369  1  0.41266269  0.83688802  0.59631162  1
  H+  H370  1  0.59355374  0.92814586  0.06340141  1
  H+  H371  1  0.25501029  0.95682957  0.87359768  1
  H+  H372  1  0.83319901  0.17998582  0.09555970  1
  H+  H373  1  0.69213682  0.59324524  0.57859225  1
  H+  H374  1  0.16625597  0.58269487  0.60284462  1
  H+  H375  1  0.10079195  0.46478621  0.40103772  1
  H+  H376  1  0.85768589  0.88868032  0.48327789  1
  H+  H377  1  0.31825594  0.15176547  0.74053636  1
  H+  H378  1  0.17320010  0.10419903  0.24380797  1
  H+  H379  1  0.90630032  0.57682630  0.90138296  1
  H+  H380  1  0.90829878  0.35457126  0.89282862  1
  H+  H381  1  0.40033206  0.58047068  0.87923316  1
  H+  H382  1  0.14373672  0.77984103  0.51289431  1
  H+  H383  1  0.41433245  0.08528442  0.60184683  1
  O2-  O384  1  0.08401457  0.17701849  0.14342527  1
  O2-  O385  1  0.08852772  0.16536325  0.47723496  1
  O2-  O386  1  0.08032663  0.17263670  0.81746668  1
  O2-  O387  1  0.07812310  0.42020319  0.15373337  1
  O2-  O388  1  0.08550107  0.42817870  0.47383567  1
  O2-  O389  1  0.06740318  0.42749939  0.81037804  1
  O2-  O390  1  0.08119528  0.66445115  0.14215946  1
  O2-  O391  1  0.09681524  0.67840452  0.49244017  1
  O2-  O392  1  0.03903246  0.71966824  0.79473127  1
  O2-  O393  1  0.10227133  0.92730120  0.16071715  1
  O2-  O394  1  0.09233223  0.91615828  0.48087563  1
  O2-  O395  1  0.08511766  0.92005762  0.80684267  1
  O2-  O396  1  0.32753703  0.18003032  0.13903206  1
  O2-  O397  1  0.31255762  0.13874675  0.47265076  1
  O2-  O398  1  0.32086869  0.15442774  0.81163463  1
  O2-  O399  1  0.30633308  0.41454114  0.14015330  1
  O2-  O400  1  0.32779381  0.42535720  0.47635853  1
  O2-  O401  1  0.32605084  0.39505863  0.86190107  1
  O2-  O402  1  0.33057603  0.67172864  0.14808505  1
  O2-  O403  1  0.33908570  0.68081415  0.48537745  1
  O2-  O404  1  0.34813313  0.66660862  0.79665768  1
  O2-  O405  1  0.32606486  0.89510363  0.13352072  1
  O2-  O406  1  0.34090339  0.92388565  0.48717636  1
  O2-  O407  1  0.33197665  0.89240192  0.80534271  1
  O2-  O408  1  0.58051809  0.15949477  0.14179440  1
  O2-  O409  1  0.58225146  0.16789492  0.48688669  1
  O2-  O410  1  0.63126022  0.21866116  0.80433306  1
  O2-  O411  1  0.59272945  0.41324028  0.14513582  1
  O2-  O412  1  0.61127262  0.43870837  0.48114619  1
  O2-  O413  1  0.66805784  0.42037111  0.81473117  1
  O2-  O414  1  0.58040806  0.67105764  0.14351634  1
  O2-  O415  1  0.58543657  0.66121727  0.49717769  1
  O2-  O416  1  0.62348321  0.68912498  0.80840943  1
  O2-  O417  1  0.59043704  0.93368882  0.12973246  1
  O2-  O418  1  0.58673296  0.91627067  0.47907106  1
  O2-  O419  1  0.57892581  0.91394021  0.81220427  1
  O2-  O420  1  0.83079178  0.17861429  0.14066327  1
  O2-  O421  1  0.83051976  0.17056261  0.48095460  1
  O2-  O422  1  0.81172985  0.14645365  0.81765875  1
  O2-  O423  1  0.84154823  0.41610635  0.13571878  1
  O2-  O424  1  0.82363861  0.41995619  0.47815986  1
  O2-  O425  1  0.81788351  0.42977089  0.80380182  1
  O2-  O426  1  0.83045368  0.65526811  0.14413039  1
  O2-  O427  1  0.83764722  0.65190581  0.47846723  1
  O2-  O428  1  0.82245716  0.65993925  0.82603252  1
  O2-  O429  1  0.83119390  0.91487468  0.18519724  1
  O2-  O430  1  0.83286283  0.92169798  0.46472699  1
  O2-  O431  1  0.84008518  0.91564308  0.81469069  1
  O2-  O432  1  0.16654190  0.10439438  0.19801889  1
  O2-  O433  1  0.16681238  0.08827495  0.53236974  1
  O2-  O434  1  0.16004137  0.08368550  0.85049104  1
  O2-  O435  1  0.15271175  0.34220359  0.19489225  1
  O2-  O436  1  0.16355062  0.33517123  0.51242525  1
  O2-  O437  1  0.16390217  0.31531546  0.87348052  1
  O2-  O438  1  0.15141349  0.58143281  0.17994544  1
  O2-  O439  1  0.17185435  0.58796656  0.52736193  1
  O2-  O440  1  0.16681507  0.59735410  0.85047839  1
  O2-  O441  1  0.17451721  0.83465200  0.20193860  1
  O2-  O442  1  0.17434448  0.84180052  0.52697118  1
  O2-  O443  1  0.20464140  0.89789786  0.86925441  1
  O2-  O444  1  0.42653528  0.06103709  0.19937447  1
  O2-  O445  1  0.41716599  0.08738219  0.52650743  1
  O2-  O446  1  0.36965310  0.04102976  0.85339343  1
  O2-  O447  1  0.42993167  0.33253348  0.19176407  1
  O2-  O448  1  0.39162243  0.31060711  0.46438303  1
  O2-  O449  1  0.41766594  0.31354513  0.86467697  1
  O2-  O450  1  0.41048200  0.58290337  0.18722192  1
  O2-  O451  1  0.42077510  0.57244083  0.52400975  1
  O2-  O452  1  0.46443646  0.62689755  0.76187003  1
  O2-  O453  1  0.44051070  0.83237759  0.17077586  1
  O2-  O454  1  0.42193636  0.83763462  0.52498369  1
  O2-  O455  1  0.41684230  0.81566702  0.85514083  1
  O2-  O456  1  0.65962518  0.08066479  0.17788547  1
  O2-  O457  1  0.66523430  0.08055305  0.51917816  1
  O2-  O458  1  0.65312466  0.07759829  0.84912379  1
  O2-  O459  1  0.67323681  0.33427407  0.17457368  1
  O2-  O460  1  0.67825890  0.32672326  0.52158019  1
  O2-  O461  1  0.60815097  0.34181799  0.84817018  1
  O2-  O462  1  0.66607967  0.58870715  0.17983488  1
  O2-  O463  1  0.68658144  0.59501783  0.53338561  1
  O2-  O464  1  0.66016846  0.56623942  0.87009517  1
  O2-  O465  1  0.66584032  0.83351950  0.17514097  1
  O2-  O466  1  0.67271694  0.84203886  0.51816189  1
  O2-  O467  1  0.67716818  0.84336482  0.85615855  1
  O2-  O468  1  0.91693425  0.09731900  0.18028467  1
  O2-  O469  1  0.92448033  0.08951149  0.51492222  1
  O2-  O470  1  0.92102698  0.08236187  0.85611887  1
  O2-  O471  1  0.92423179  0.34775729  0.18258763  1
  O2-  O472  1  0.91950231  0.33894699  0.51232250  1
  O2-  O473  1  0.90400331  0.36412652  0.84940390  1
  O2-  O474  1  0.91502281  0.58100997  0.18185262  1
  O2-  O475  1  0.92454516  0.58294737  0.52474926  1
  O2-  O476  1  0.90180074  0.58262183  0.85641106  1
  O2-  O477  1  0.91657628  0.83389192  0.17148728  1
  O2-  O478  1  0.86859894  0.80722716  0.52651038  1
  O2-  O479  1  0.92041001  0.82975788  0.85635678  1
  O2-  O480  1  0.18144825  0.09357377  0.31701065  1
  O2-  O481  1  0.17195639  0.08544452  0.64507768  1
  O2-  O482  1  0.18982556  0.16990422  0.96239679  1
  O2-  O483  1  0.15537829  0.31672954  0.31504203  1
  O2-  O484  1  0.15033663  0.32785573  0.63669791  1
  O2-  O485  1  0.15747317  0.33514008  0.98733322  1
  O2-  O486  1  0.15154952  0.56615054  0.34879916  1
  O2-  O487  1  0.16354661  0.58023775  0.64863273  1
  O2-  O488  1  0.16563672  0.57798506  0.98288516  1
  O2-  O489  1  0.16761959  0.83462987  0.32694976  1
  O2-  O490  1  0.17945190  0.84385415  0.64309470  1
  O2-  O491  1  0.17139224  0.82657791  0.98210453  1
  O2-  O492  1  0.42637787  0.06943724  0.31657548  1
  O2-  O493  1  0.41170432  0.07902456  0.64776704  1
  O2-  O494  1  0.43732002  0.07787933  0.96085499  1
  O2-  O495  1  0.41414711  0.32794009  0.32127773  1
  O2-  O496  1  0.41824116  0.33129714  0.68335942  1
  O2-  O497  1  0.42470062  0.34451343  0.98061553  1
  O2-  O498  1  0.40629038  0.57589507  0.31339341  1
  O2-  O499  1  0.40319262  0.58423722  0.63737109  1
  O2-  O500  1  0.40926721  0.58144101  1.00240718  1
  O2-  O501  1  0.39522690  0.80748020  0.32809652  1
  O2-  O502  1  0.40491682  0.83787415  0.64266834  1
  O2-  O503  1  0.41675779  0.82691578  0.97892498  1
  O2-  O504  1  0.67117815  0.07879528  0.30180312  1
  O2-  O505  1  0.66246714  0.08203636  0.64314046  1
  O2-  O506  1  0.65955158  0.11323731  0.98012958  1
  O2-  O507  1  0.65634952  0.29524122  0.32531341  1
  O2-  O508  1  0.67337545  0.33500334  0.63683575  1
  O2-  O509  1  0.67757230  0.34219188  0.98740017  1
  O2-  O510  1  0.64303542  0.59859555  0.30920086  1
  O2-  O511  1  0.69656046  0.59776875  0.65935758  1
  O2-  O512  1  0.65627388  0.58305614  0.99172179  1
  O2-  O513  1  0.66517419  0.81905766  0.30992763  1
  O2-  O514  1  0.68663701  0.85553912  0.63925706  1
  O2-  O515  1  0.66253210  0.83327521  0.98211771  1
  O2-  O516  1  0.91520096  0.08763320  0.30168318  1
  O2-  O517  1  0.92143736  0.06945910  0.63380675  1
  O2-  O518  1  0.91180548  0.08823468  0.98014612  1
  O2-  O519  1  0.94199814  0.35987792  0.30296684  1
  O2-  O520  1  0.91938283  0.33821846  0.64016355  1
  O2-  O521  1  0.93059378  0.34729786  0.97842165  1
  O2-  O522  1  0.88163534  0.54352012  0.30028627  1
  O2-  O523  1  0.93106464  0.58475789  0.64472350  1
  O2-  O524  1  0.91362477  0.57827383  0.97833808  1
  O2-  O525  1  0.93671760  0.85554802  0.29962396  1
  O2-  O526  1  0.94097179  0.84612309  0.63891719  1
  O2-  O527  1  0.91367719  0.81665155  0.98360949  1
  O2-  O528  1  0.07244431  0.17664471  0.02282950  1
  O2-  O529  1  0.07201466  0.16092528  0.35158358  1
  O2-  O530  1  0.08150199  0.17554362  0.69394278  1
  O2-  O531  1  0.08284944  0.42474706  0.01248593  1
  O2-  O532  1  0.10407590  0.47829283  0.35609743  1
  O2-  O533  1  0.08128113  0.41296537  0.68203871  1
  O2-  O534  1  0.08236265  0.65773818  0.01946550  1
  O2-  O535  1  0.08160443  0.66784159  0.37613989  1
  O2-  O536  1  0.08987712  0.66976118  0.68588326  1
  O2-  O537  1  0.06291850  0.88129962  0.04118445  1
  O2-  O538  1  0.10537845  0.94074558  0.35801163  1
  O2-  O539  1  0.09982056  0.93143486  0.68494047  1
  O2-  O540  1  0.31824698  0.17908837  0.02050984  1
  O2-  O541  1  0.34252750  0.15222052  0.34433214  1
  O2-  O542  1  0.32066603  0.15648724  0.69384516  1
  O2-  O543  1  0.31994655  0.40518931  0.02557602  1
  O2-  O544  1  0.33062134  0.41417447  0.35857098  1
  O2-  O545  1  0.33070593  0.41008491  0.63837078  1
  O2-  O546  1  0.32071366  0.66413627  0.03056319  1
  O2-  O547  1  0.32587146  0.64820452  0.36241675  1
  O2-  O548  1  0.32811908  0.65998526  0.68454879  1
  O2-  O549  1  0.34521143  0.91808937  0.01520141  1
  O2-  O550  1  0.33126608  0.91149019  0.36713267  1
  O2-  O551  1  0.33199431  0.91671600  0.67436604  1
  O2-  O552  1  0.61583139  0.14700481  -0.00194406  1
  O2-  O553  1  0.57063182  0.15174195  0.37018972  1
  O2-  O554  1  0.59118463  0.17531725  0.68251069  1
  O2-  O555  1  0.58216964  0.41351091  0.02608205  1
  O2-  O556  1  0.58924524  0.40351754  0.36131404  1
  O2-  O557  1  0.60774144  0.43217593  0.70192082  1
  O2-  O558  1  0.57688796  0.67238790  0.02254848  1
  O2-  O559  1  0.56862242  0.67120586  0.37776280  1
  O2-  O560  1  0.59385242  0.67099630  0.64876435  1
  O2-  O561  1  0.59543577  0.91971317  0.01595922  1
  O2-  O562  1  0.57127788  0.90983747  0.35256567  1
  O2-  O563  1  0.56168440  0.91168623  0.69439042  1
  O2-  O564  1  0.83726263  0.18177360  0.01427385  1
  O2-  O565  1  0.81712659  0.14957989  0.36446332  1
  O2-  O566  1  0.82972595  0.17507905  0.69752797  1
  O2-  O567  1  0.84351085  0.41842319  0.01787996  1
  O2-  O568  1  0.82487866  0.38253347  0.34754845  1
  O2-  O569  1  0.83505344  0.41847959  0.68253346  1
  O2-  O570  1  0.82666178  0.65388831  0.02019662  1
  O2-  O571  1  0.78660947  0.61674402  0.36234874  1
  O2-  O572  1  0.86642222  0.68553620  0.68791960  1
  O2-  O573  1  0.82970150  0.90815787  -0.01656271  1
  O2-  O574  1  0.83082552  0.91523637  0.34229848  1
  O2-  O575  1  0.84967517  0.90834739  0.69124464  1
