# generated using pymatgen
data_H2O
_symmetry_space_group_name_H-M   'P 1'
_cell_length_a   17.99253761
_cell_length_b   17.99302568
_cell_length_c   21.99372258
_cell_angle_alpha   90.03893318
_cell_angle_beta   89.97443057
_cell_angle_gamma   120.01189650
_symmetry_Int_Tables_number   1
_chemical_formula_structural   H2O
_chemical_formula_sum   'H384 O192'
_cell_volume   6165.57827233
_cell_formula_units_Z   192
loop_
 _symmetry_equiv_pos_site_id
 _symmetry_equiv_pos_as_xyz
  1  'x, y, z'
loop_
 _atom_type_symbol
 _atom_type_oxidation_number
  H+  1.0
  O2-  -2.0
loop_
 _atom_site_type_symbol
 _atom_site_label
 _atom_site_symmetry_multiplicity
 _atom_site_fract_x
 _atom_site_fract_y
 _atom_site_fract_z
 _atom_site_occupancy
  H+  H0  1  0.30099863  0.63204017  0.50420975  1
  H+  H1  1  0.85690281  0.47178547  0.81743225  1
  H+  H2  1  -0.07454450  0.83423434  0.23624779  1
  H+  H3  1  0.36574727  0.47149470  0.49482042  1
  H+  H4  1  0.58975915  0.06467999  0.35702708  1
  H+  H5  1  0.64030585  1.01171446  0.50648563  1
  H+  H6  1  0.59556114  0.21107249  0.64091808  1
  H+  H7  1  0.36068925  0.64098905  0.83266838  1
  H+  H8  1  0.67964133  0.87768502  0.16755648  1
  H+  H9  1  0.61334084  0.40509975  0.83785542  1
  H+  H10  1  0.86723779  0.94231110  0.73757690  1
  H+  H11  1  0.87825499  0.35814856  0.99407784  1
  H+  H12  1  0.27920234  0.15591353  0.34917405  1
  H+  H13  1  0.84976508  0.47736417  0.15758565  1
  H+  H14  1  0.64100846  0.02332018  0.99157569  1
  H+  H15  1  0.48045866  0.86792167  -0.00506231  1
  H+  H16  1  0.23259906  0.85705764  0.15270399  1
  H+  H17  1  0.40300613  0.29506705  0.66142147  1
  H+  H18  1  0.22549071  0.61875633  0.84060739  1
  H+  H19  1  0.96860300  0.36263883  0.99078653  1
  H+  H20  1  0.64078900  0.12056332  0.17780772  1
  H+  H21  1  0.18135531  0.10043003  0.89965205  1
  H+  H22  1  0.74699824  0.61782536  -0.00984240  1
  H+  H23  1  0.13054152  0.77102758  0.49631280  1
  H+  H24  1  0.64534295  0.62750651  0.67191273  1
  H+  H25  1  0.14373391  0.02876402  0.33268196  1
  H+  H26  1  0.23057983  0.10868676  0.17400303  1
  H+  H27  1  0.90335498  0.86774435  0.17512717  1
  H+  H28  1  0.61617522  0.64460889  0.16323818  1
  H+  H29  1  0.86598895  0.47002647  0.48837445  1
  H+  H30  1  0.85923937  0.13245655  0.82347127  1
  H+  H31  1  0.33280331  0.87130357  0.16003377  1
  H+  H32  1  0.13709819  0.27244835  0.17055884  1
  H+  H33  1  0.29118594  0.41212894  0.83741903  1
  H+  H34  1  0.14580090  1.04027731  0.84089199  1
  H+  H35  1  0.39334087  0.77141253  0.84047129  1
  H+  H36  1  0.03926375  0.55828296  0.13913969  1
  H+  H37  1  0.25981196  0.88623683  0.82099708  1
  H+  H38  1  0.12560914  0.84940514  0.33536015  1
  H+  H39  1  0.72199324  0.35474192  0.82581681  1
  H+  H40  1  0.90311949  0.12026252  0.99277656  1
  H+  H41  1  0.64486044  0.86706594  0.65656388  1
  H+  H42  1  0.52782840  0.64356594  0.67732332  1
  H+  H43  1  0.09539049  0.16646036  0.09868877  1
  H+  H44  1  0.88145997  0.26920754  0.32132777  1
  H+  H45  1  0.59124992  0.73571372  0.98607684  1
  H+  H46  1  -0.02825822  0.85981306  0.33044137  1
  H+  H47  1  0.07123619  0.63563512  0.09433309  1
  H+  H48  1  0.10745676  0.37466047  0.14364596  1
  H+  H49  1  0.27325986  0.39083162  0.33404351  1
  H+  H50  1  0.29531553  0.65120284  0.15303956  1
  H+  H51  1  0.12578052  0.14808599  0.48940473  1
  H+  H52  1  0.90073595  1.02210894  0.16379299  1
  H+  H53  1  0.13223845  0.87742465  0.83280643  1
  H+  H54  1  0.73221570  0.63056521  0.17169420  1
  H+  H55  1  0.39822199  0.62295618  0.17489846  1
  H+  H56  1  0.35831509  -0.00568395  0.32512765  1
  H+  H57  1  0.87128599  0.63506996  0.00482548  1
  H+  H58  1  0.50791517  0.87095243  0.83997025  1
  H+  H59  1  0.35744557  0.13936204  0.67906294  1
  H+  H60  1  0.62806357  0.26782796  -0.00768812  1
  H+  H61  1  0.70623754  0.47978095  0.11447418  1
  H+  H62  1  0.48520918  0.38598521  0.33698158  1
  H+  H63  1  0.08387756  0.42093989  0.43316357  1
  H+  H64  1  0.61325439  0.49263398  0.83027293  1
  H+  H65  1  0.77398137  0.64615028  0.33711830  1
  H+  H66  1  0.10799587  0.75426460  0.17585891  1
  H+  H67  1  0.39704252  0.11859806  0.53025832  1
  H+  H68  1  0.60279166  0.38545327  -0.00493879  1
  H+  H69  1  0.38702308  0.72122001  0.49740810  1
  H+  H70  1  0.24200976  0.12097644  0.51733150  1
  H+  H71  1  0.90797834  0.32962418  0.89466884  1
  H+  H72  1  0.63316046  0.77000834  0.83357956  1
  H+  H73  1  0.82075287  0.40668252  0.06473678  1
  H+  H74  1  0.38430717  0.13883117  0.83859764  1
  H+  H75  1  0.13010205  0.04098926  0.65802767  1
  H+  H76  1  0.74337666  0.36346057  0.51042255  1
  H+  H77  1  -0.00332431  0.96257139  0.70557786  1
  H+  H78  1  0.51889317  0.58149645  0.02269049  1
  H+  H79  1  0.66319820  0.37529814  0.51833902  1
  H+  H80  1  0.36759936  -0.02419741  0.49753109  1
  H+  H81  1  0.36808944  0.40133125  0.33569067  1
  H+  H82  1  0.09713090  0.62715266  0.48213693  1
  H+  H83  1  0.86015382  0.71824322  0.49097984  1
  H+  H84  1  0.37669684  0.52508234  0.32766043  1
  H+  H85  1  0.14885124  0.37430653  0.66088753  1
  H+  H86  1  0.16186823  0.62828649  0.17586738  1
  H+  H87  1  0.27521631  0.88206102  0.66924674  1
  H+  H88  1  0.47800103  0.64027695  0.02087916  1
  H+  H89  1  0.46908768  0.10524825  0.67589394  1
  H+  H90  1  0.02781502  0.08411589  0.71199552  1
  H+  H91  1  0.88937113  0.77619787  0.83909417  1
  H+  H92  1  0.45241346  0.89369711  0.17126775  1
  H+  H93  1  0.39170974  0.77887623  0.99196767  1
  H+  H94  1  0.13926081  0.26991057  0.32233939  1
  H+  H95  1  0.64821102  0.11872299  0.65136248  1
  H+  H96  1  0.11740659  0.84866372  0.16968272  1
  H+  H97  1  0.96934623  0.11030422  0.83887848  1
  H+  H98  1  0.02134971  0.38138629  0.33873794  1
  H+  H99  1  0.33002749  0.90664931  0.40140416  1
  H+  H100  1  0.01458342  0.89792582  0.67633578  1
  H+  H101  1  0.72656593  0.35610125  0.17120620  1
  H+  H102  1  0.13712719  0.61994033  0.84090421  1
  H+  H103  1  0.61765575  0.73244012  0.67924910  1
  H+  H104  1  0.60658057  0.20653612  0.82085458  1
  H+  H105  1  0.36850627  0.63740452  0.67429973  1
  H+  H106  1  0.48532864  0.62162133  0.18236386  1
  H+  H107  1  0.47273487  0.38894259  0.99345308  1
  H+  H108  1  0.87025674  0.73405470  0.15955353  1
  H+  H109  1  0.87832135  0.27590461  0.65784472  1
  H+  H110  1  0.86163239  -0.02201288  0.83035209  1
  H+  H111  1  0.91696018  1.03875771  -0.00648172  1
  H+  H112  1  0.11583517  0.72837421  0.66570449  1
  H+  H113  1  0.27457112  0.39337604  0.15651655  1
  H+  H114  1  0.01476974  0.38631678  0.67475071  1
  H+  H115  1  0.13463745  0.86142209  0.49683345  1
  H+  H116  1  0.38077490  0.73904972  0.14817681  1
  H+  H117  1  0.61815646  0.61009160  0.49214914  1
  H+  H118  1  0.15170694  0.12090452  0.99601229  1
  H+  H119  1  0.11841233  0.23301510  0.48890980  1
  H+  H120  1  -0.00995137  0.86121577  -0.01110752  1
  H+  H121  1  0.11736764  0.48253255  0.49181943  1
  H+  H122  1  0.64091392  0.63689946  0.32780102  1
  H+  H123  1  0.61668579  0.22317607  0.16329369  1
  H+  H124  1  0.78513658  0.88104639  0.50229172  1
  H+  H125  1  0.93390550  0.51112944  0.63914711  1
  H+  H126  1  0.60865548  0.87687448  1.00253802  1
  H+  H127  1  0.43331044  0.35792260  0.56294942  1
  H+  H128  1  0.87868147  0.35692595  0.83422856  1
  H+  H129  1  0.64148210  0.35877931  0.16511914  1
  H+  H130  1  0.14970169  0.03655451  0.49965086  1
  H+  H131  1  0.34638653  0.18154944  0.58229102  1
  H+  H132  1  0.12548281  0.48550625  0.06599262  1
  H+  H133  1  0.66201937  0.62256016  0.99372196  1
  H+  H134  1  0.73470513  0.86816937  0.66536002  1
  H+  H135  1  0.36704426  0.44668304  1.00045019  1
  H+  H136  1  0.76114641  0.11945057  0.34128282  1
  H+  H137  1  0.62542089  0.23009451  0.50769579  1
  H+  H138  1  0.47861122  0.88064000  0.31069356  1
  H+  H139  1  0.66550906  0.23331905  0.30104723  1
  H+  H140  1  0.47026239  0.62720951  0.85450111  1
  H+  H141  1  0.39471628  0.29719342  0.33847705  1
  H+  H142  1  0.37800976  0.40698882  0.67955727  1
  H+  H143  1  0.27965742  0.88720444  0.49400571  1
  H+  H144  1  0.20047958  0.65183192  0.52901403  1
  H+  H145  1  0.13495557  0.23620904  0.01081982  1
  H+  H146  1  0.96155693  0.60656121  0.17239466  1
  H+  H147  1  0.37492655  0.21801049  0.16733518  1
  H+  H148  1  0.86177590  0.63047559  0.48752011  1
  H+  H149  1  0.17001275  0.54796395  0.16723148  1
  H+  H150  1  0.52734219  0.87689578  0.66083892  1
  H+  H151  1  0.11283594  0.70855231  1.00517331  1
  H+  H152  1  0.63629257  0.10011270  0.83503875  1
  H+  H153  1  0.66318028  0.78292531  0.17012209  1
  H+  H154  1  0.87833464  0.61711603  0.17291044  1
  H+  H155  1  0.13762974  0.60688834  0.66455397  1
  H+  H156  1  0.88483816  0.86394031  0.84035905  1
  H+  H157  1  0.62687472  0.42745292  0.34225623  1
  H+  H158  1  0.88086931  0.77779224  0.32548007  1
  H+  H159  1  0.11173733  0.46943144  0.33825962  1
  H+  H160  1  0.10621852  0.14351250  0.83405529  1
  H+  H161  1  0.08266261  0.66988397  0.76469976  1
  H+  H162  1  0.64146811  0.98924692  0.16041572  1
  H+  H163  1  0.37715166  0.21292694  -0.00002304  1
  H+  H164  1  0.14849467  0.02995530  0.99301463  1
  H+  H165  1  0.28203332  0.13321423  1.00315922  1
  H+  H166  1  0.79936520  0.89101136  0.15690019  1
  H+  H167  1  0.87257055  0.48102572  0.33954442  1
  H+  H168  1  0.73093609  0.62291931  0.83519461  1
  H+  H169  1  0.22778763  0.60099778  0.98966733  1
  H+  H170  1  0.38928109  0.85504485  0.65632483  1
  H+  H171  1  0.85654852  0.63336055  0.67493603  1
  H+  H172  1  0.63810927  0.11166912  0.50989052  1
  H+  H173  1  0.11143527  0.72262171  0.33528001  1
  H+  H174  1  0.37111810  0.73124642  0.32677599  1
  H+  H175  1  0.85732304  0.22066812  0.82272563  1
  H+  H176  1  0.72672248  0.90573858  0.37800167  1
  H+  H177  1  0.10793163  0.73286702  0.82119979  1
  H+  H178  1  0.65011432  0.84403743  0.51129103  1
  H+  H179  1  0.36699876  -0.02706949  1.01298574  1
  H+  H180  1  0.77027223  0.64082085  0.67777978  1
  H+  H181  1  0.11751068  0.97098659  0.16022986  1
  H+  H182  1  0.37206221  0.62914780  0.32706260  1
  H+  H183  1  0.67641332  0.59512577  0.89626116  1
  H+  H184  1  0.61633119  0.13694847  1.00865568  1
  H+  H185  1  0.36326698  -0.02923327  0.67591443  1
  H+  H186  1  0.88949955  0.11181950  0.15651747  1
  H+  H187  1  0.52489941  0.64567620  0.34730415  1
  H+  H188  1  0.13848425  0.36570394  0.50376545  1
  H+  H189  1  0.64746881  0.54022946  0.66503232  1
  H+  H190  1  0.06838368  0.90849092  0.41771643  1
  H+  H191  1  0.97109193  0.59681133  0.99169716  1
  H+  H192  1  0.81490406  0.91050846  0.00238246  1
  H+  H193  1  0.72719547  0.58090254  0.49788312  1
  H+  H194  1  0.36423101  0.47907492  0.16153364  1
  H+  H195  1  0.74251741  0.40902931  0.31889874  1
  H+  H196  1  0.89667365  0.02748785  0.33640190  1
  H+  H197  1  0.85678381  0.89082111  0.34537374  1
  H+  H198  1  0.88623496  0.36055764  0.32569040  1
  H+  H199  1  0.15036534  0.38225669  0.84480623  1
  H+  H200  1  0.14263868  0.86520623  0.65029493  1
  H+  H201  1  0.38785360  0.36230147  0.50253750  1
  H+  H202  1  0.77773286  0.12009014  0.15062659  1
  H+  H203  1  0.13991957  0.61211109  0.32631997  1
  H+  H204  1  0.43265842  0.83473323  0.56209287  1
  H+  H205  1  0.61205483  0.97047755  0.83608384  1
  H+  H206  1  0.14175833  0.11599550  0.32803282  1
  H+  H207  1  0.88534347  0.61730544  0.32923694  1
  H+  H208  1  0.92651003  0.83403873  0.93031130  1
  H+  H209  1  0.02623855  0.64231725  0.66882939  1
  H+  H210  1  0.36741478  0.10756742  0.81258528  1
  H+  H211  1  0.71274420  0.12798151  0.22559646  1
  H+  H212  1  0.57298377  0.89186397  0.16959956  1
  H+  H213  1  1.02035933  0.39015801  0.82723245  1
  H+  H214  1  0.67314330  0.08225905  0.57148488  1
  H+  H215  1  -0.02006890  0.86224242  0.50102324  1
  H+  H216  1  0.33298686  0.41960071  0.43194092  1
  H+  H217  1  0.86555156  0.63753175  0.82823857  1
  H+  H218  1  0.86182508  0.14157068  0.66473993  1
  H+  H219  1  0.28898240  0.40669207  0.67857878  1
  H+  H220  1  0.12477761  0.88897925  0.00693424  1
  H+  H221  1  0.48490294  0.06879953  0.84450126  1
  H+  H222  1  0.97578788  0.37051820  0.16823070  1
  H+  H223  1  0.99120901  0.11933820  0.16060360  1
  H+  H224  1  0.02346754  0.89924216  0.83474103  1
  H+  H225  1  0.35679884  0.26609218  0.82238376  1
  H+  H226  1  0.77456416  0.88742142  0.82143499  1
  H+  H227  1  0.68726697  0.79924442  0.99324525  1
  H+  H228  1  0.11654614  0.13227976  0.16068848  1
  H+  H229  1  0.76329258  0.37831668  1.00336539  1
  H+  H230  1  0.61234457  -0.03126446  0.65996999  1
  H+  H231  1  0.47158872  0.09920849  0.36508677  1
  H+  H232  1  0.39659803  0.10540945  0.17006141  1
  H+  H233  1  0.38564577  0.53568893  0.85396303  1
  H+  H234  1  0.86933450  0.38197196  0.49061474  1
  H+  H235  1  0.89759541  0.11462248  0.32661492  1
  H+  H236  1  0.52890186  0.13030202  0.16338981  1
  H+  H237  1  0.88524767  0.76475115  0.65903270  1
  H+  H238  1  0.97419893  0.60825230  0.83636890  1
  H+  H239  1  0.87429337  0.88243187  0.50070525  1
  H+  H240  1  0.26384668  0.86961231  0.34397894  1
  H+  H241  1  0.37173584  -0.04317593  0.83348850  1
  H+  H242  1  0.22685144  0.36449117  0.50174945  1
  H+  H243  1  0.36861578  0.88402612  0.01278006  1
  H+  H244  1  0.27634849  0.64119235  0.33139534  1
  H+  H245  1  0.88988248  -0.00230577  0.67363391  1
  H+  H246  1  0.25517093  0.17278266  0.81644361  1
  H+  H247  1  0.83827179  0.66987313  0.76904985  1
  H+  H248  1  0.37216778  0.33321390  1.00629702  1
  H+  H249  1  0.98131436  0.36580829  0.50685775  1
  H+  H250  1  0.89147153  0.85659028  0.65341832  1
  H+  H251  1  0.62902353  0.92191445  0.44826393  1
  H+  H252  1  0.73457374  0.11397641  0.65461424  1
  H+  H253  1  0.54690345  0.89411392  0.49547929  1
  H+  H254  1  0.89422498  0.89464590  1.00147949  1
  H+  H255  1  0.44261631  0.36119336  0.17310565  1
  H+  H256  1  0.17640317  0.58655719  0.26840501  1
  H+  H257  1  0.87293286  0.13748967  0.48646841  1
  H+  H258  1  0.13510571  0.35694962  0.99980434  1
  H+  H259  1  0.40600898  0.86406542  0.50191067  1
  H+  H260  1  0.24308482  0.85263801  0.98597094  1
  H+  H261  1  1.04461446  0.14913190  1.00461730  1
  H+  H262  1  0.35449934  0.44477934  0.78105328  1
  H+  H263  1  0.62793870  0.23917770  0.29299444  1
  H+  H264  1  0.89468033  0.27415409  0.50400198  1
  H+  H265  1  0.87590103  0.72742901  0.00161837  1
  H+  H266  1  0.39037061  0.09838556  0.99257057  1
  H+  H267  1  0.61803339  0.48099163  -0.00543897  1
  H+  H268  1  0.38566312  0.76459943  0.65637922  1
  H+  H269  1  0.64920426  0.54018069  0.16958705  1
  H+  H270  1  0.03888625  0.97314098  0.45225343  1
  H+  H271  1  0.64761151  0.41626455  0.67973377  1
  H+  H272  1  0.72670168  0.10342957  0.83560233  1
  H+  H273  1  0.10731308  0.48166775  0.82640363  1
  H+  H274  1  0.63430422  0.32578475  0.79331935  1
  H+  H275  1  0.96956571  0.12161423  0.65180363  1
  H+  H276  1  0.60717948  0.01314800  0.26114014  1
  H+  H277  1  0.40541839  0.60632601  0.51187999  1
  H+  H278  1  0.89686797  0.02412999  0.50270789  1
  H+  H279  1  0.61295853  0.87839090  0.83311364  1
  H+  H280  1  0.39872072  0.53409113  0.66745749  1
  H+  H281  1  0.86625587  0.39900876  0.16055318  1
  H+  H282  1  -0.02855374  0.60934860  0.49792638  1
  H+  H283  1  0.49399814  0.38023997  0.66256759  1
  H+  H284  1  -0.01506614  0.11575963  0.49864778  1
  H+  H285  1  0.10590355  0.13975275  0.67060083  1
  H+  H286  1  0.78497852  0.13828461  0.49053049  1
  H+  H287  1  0.27569422  0.63026062  0.67604532  1
  H+  H288  1  0.68047261  0.82001262  0.57123276  1
  H+  H289  1  0.58507711  0.66488028  0.40429771  1
  H+  H290  1  0.16515589  0.84246558  0.88873407  1
  H+  H291  1  0.58232197  0.15238219  0.76055470  1
  H+  H292  1  0.63093014  0.86129134  0.35635323  1
  H+  H293  1  0.91023716  0.58522428  0.26911054  1
  H+  H294  1  0.66894313  0.60294081  0.26841573  1
  H+  H295  1  0.67676902  0.25173227  0.68115997  1
  H+  H296  1  0.61563462  0.50705398  0.34753049  1
  H+  H297  1  0.81679757  0.35029064  0.66316764  1
  H+  H298  1  0.33533410  0.67023791  0.77017091  1
  H+  H299  1  0.82962548  0.16183349  0.39333041  1
  H+  H300  1  0.48056146  0.10187919  0.99990788  1
  H+  H301  1  0.41547638  0.58855942  0.26727992  1
  H+  H302  1  0.42252111  0.83448820  0.90039527  1
  H+  H303  1  0.16300780  0.57142682  0.93492765  1
  H+  H304  1  0.30854352  0.89803518  0.09143670  1
  H+  H305  1  0.57597650  0.66907480  0.77187300  1
  H+  H306  1  0.07359359  0.93731853  0.77342060  1
  H+  H307  1  0.87949453  0.51074882  0.99251956  1
  H+  H308  1  0.07788319  0.17799325  0.77770248  1
  H+  H309  1  0.02913517  0.13492945  0.33642931  1
  H+  H310  1  0.18003646  0.35305224  0.90366843  1
  H+  H311  1  0.42037747  0.07991838  0.61170871  1
  H+  H312  1  0.62689841  0.70278561  0.50164936  1
  H+  H313  1  0.66389594  0.82530547  0.89347565  1
  H+  H314  1  0.48826392  0.59502460  0.51284752  1
  H+  H315  1  0.61456896  0.43802619  0.08574027  1
  H+  H316  1  0.91175475  0.57205927  0.55739993  1
  H+  H317  1  0.67920431  0.37739372  0.26268885  1
  H+  H318  1  0.16148914  0.33309865  0.22852329  1
  H+  H319  1  0.42966826  0.58668428  0.60499268  1
  H+  H320  1  0.65757362  0.32288021  0.93131238  1
  H+  H321  1  0.02077254  0.80664756  0.38538469  1
  H+  H322  1  0.47611328  0.36076845  0.84286714  1
  H+  H323  1  0.62266426  0.46038833  0.43966835  1
  H+  H324  1  0.16782751  0.83418786  0.59047088  1
  H+  H325  1  0.58743603  0.16524728  0.06935897  1
  H+  H326  1  0.17587155  0.57960949  0.57751135  1
  H+  H327  1  0.31802531  0.20503263  0.75421501  1
  H+  H328  1  0.40361464  0.84260688  0.23115764  1
  H+  H329  1  0.17076564  0.07872369  0.23278435  1
  H+  H330  1  0.09049561  0.91412562  0.06565715  1
  H+  H331  1  0.38388194  0.86129382  0.32594330  1
  H+  H332  1  0.02555773  0.88365471  0.16073010  1
  H+  H333  1  0.09239922  0.17065860  0.39418461  1
  H+  H334  1  0.43718657  0.32994680  0.24032622  1
  H+  H335  1  0.23478623  0.38706588  0.00339723  1
  H+  H336  1  0.38007955  0.24223713  0.52524717  1
  H+  H337  1  0.16811117  0.09377593  0.59536688  1
  H+  H338  1  0.84493495  0.92166805  0.41078626  1
  H+  H339  1  0.34143886  0.16366776  0.10551041  1
  H+  H340  1  0.32237672  0.05264113  0.30292580  1
  H+  H341  1  0.81780593  0.40463151  0.76077298  1
  H+  H342  1  0.90872565  0.33560143  0.59883817  1
  H+  H343  1  0.77732620  0.13295006  0.99966787  1
  H+  H344  1  0.57524220  0.16220122  0.45318245  1
  H+  H345  1  0.86468384  0.22318210  0.00203798  1
  H+  H346  1  0.91329019  0.57257959  0.89488506  1
  H+  H347  1  0.07634765  0.66354330  0.42262432  1
  H+  H348  1  0.57092439  0.66674141  0.10877211  1
  H+  H349  1  0.48326610  0.11319315  0.52327624  1
  H+  H350  1  0.13078258  0.51376392  0.66660991  1
  H+  H351  1  0.56347270  0.17306761  0.35165860  1
  H+  H352  1  0.21230495  0.77807794  0.93936191  1
  H+  H353  1  0.02008657  0.63429123  0.33442258  1
  H+  H354  1  0.37247965  0.17121822  0.34410357  1
  H+  H355  1  0.41936874  0.06991835  0.22785714  1
  H+  H356  1  0.59955793  0.43122670  0.73603285  1
  H+  H357  1  0.13478835  0.35654479  0.32526750  1
  H+  H358  1  0.91348069  0.08357012  0.89860657  1
  H+  H359  1  0.83476629  0.15220670  0.08984801  1
  H+  H360  1  0.39391784  0.63104705  0.94214813  1
  H+  H361  1  0.33271144  0.44669283  0.06740735  1
  H+  H362  1  0.59506920  0.91745677  0.06281452  1
  H+  H363  1  0.83240919  0.66896457  0.39664443  1
  H+  H364  1  0.40997372  0.33566564  0.89855306  1
  H+  H365  1  0.83948987  0.67556246  0.09852208  1
  H+  H366  1  0.07443718  0.41416557  0.73443597  1
  H+  H367  1  0.11235632  0.61966307  0.00400744  1
  H+  H368  1  0.60882271  0.64195120  0.83051751  1
  H+  H369  1  0.72400268  0.37817139  0.60764508  1
  H+  H370  1  0.83115426  0.16584194  0.72721908  1
  H+  H371  1  0.18232784  0.34886582  0.60277097  1
  H+  H372  1  0.83634233  0.41513004  0.39536800  1
  H+  H373  1  0.84294941  0.49869039  0.64227310  1
  H+  H374  1  0.27009470  0.14334963  0.66761008  1
  H+  H375  1  0.35137570  0.66727700  0.05375409  1
  H+  H376  1  0.86508768  0.92482130  0.09916341  1
  H+  H377  1  0.92367610  0.82306724  0.56270343  1
  H+  H378  1  0.42989335  0.03999605  0.90718878  1
  H+  H379  1  0.15875251  0.83078501  0.27092971  1
  H+  H380  1  0.91459292  0.08858284  0.59037789  1
  H+  H381  1  0.92850875  0.35641729  0.23298608  1
  H+  H382  1  0.66854494  0.08238817  0.93272029  1
  H+  H383  1  0.32733686  0.90886803  0.76125298  1
  O2-  O384  1  0.08750061  0.16308987  0.14420254  1
  O2-  O385  1  0.09061907  0.17219012  0.47318871  1
  O2-  O386  1  0.06750248  0.16469999  0.82123708  1
  O2-  O387  1  0.06598305  0.38373664  0.11775055  1
  O2-  O388  1  0.08387979  0.42219973  0.47883261  1
  O2-  O389  1  0.07976907  0.42168874  0.81074865  1
  O2-  O390  1  0.06301229  0.62068878  0.13915232  1
  O2-  O391  1  0.07580658  0.66517696  0.46917468  1
  O2-  O392  1  0.08113269  0.67127018  0.80992478  1
  O2-  O393  1  0.08585062  0.91117191  0.14324561  1
  O2-  O394  1  0.07001134  0.94356989  0.46357744  1
  O2-  O395  1  0.08324647  0.93238882  0.81766265  1
  O2-  O396  1  0.33792353  0.15851144  0.15026509  1
  O2-  O397  1  0.35042806  0.17762535  0.53810380  1
  O2-  O398  1  0.30194800  0.22392879  0.79280763  1
  O2-  O399  1  0.33393101  0.42341648  0.14002060  1
  O2-  O400  1  0.33037074  0.41257449  0.47683970  1
  O2-  O401  1  0.35373124  0.44492458  0.82606717  1
  O2-  O402  1  0.35422395  0.67876180  0.13479764  1
  O2-  O403  1  0.35918549  0.65954731  0.48709491  1
  O2-  O404  1  0.33275808  0.67327779  0.81547891  1
  O2-  O405  1  0.29560581  0.89117595  0.13838328  1
  O2-  O406  1  0.33984760  0.91718970  0.47946151  1
  O2-  O407  1  0.32093677  0.90483790  0.80755885  1
  O2-  O408  1  0.59088637  0.16191035  0.14865092  1
  O2-  O409  1  0.59147974  0.16751738  0.49695853  1
  O2-  O410  1  0.57880892  0.14676995  0.80510534  1
  O2-  O411  1  0.64568553  0.45252343  0.12558255  1
  O2-  O412  1  0.64536994  0.45971703  0.48171320  1
  O2-  O413  1  0.58261260  0.43024683  0.81732992  1
  O2-  O414  1  0.58508089  0.67647703  0.15263913  1
  O2-  O415  1  0.59101924  0.64510318  0.48321336  1
  O2-  O416  1  0.57677524  0.67120682  0.81775862  1
  O2-  O417  1  0.61791451  0.93124280  0.14201178  1
  O2-  O418  1  0.61111456  0.93011121  0.49025645  1
  O2-  O419  1  0.57847583  0.90785372  0.82369181  1
  O2-  O420  1  0.83676137  0.14582974  0.13520811  1
  O2-  O421  1  0.84308271  0.16948205  0.47310637  1
  O2-  O422  1  0.82764816  0.16070833  0.80639640  1
  O2-  O423  1  0.82628713  0.41763875  0.14194706  1
  O2-  O424  1  0.83542328  0.40860718  0.47516968  1
  O2-  O425  1  0.82403114  0.40958064  0.80548159  1
  O2-  O426  1  0.83504344  0.67372973  0.14375158  1
  O2-  O427  1  0.82885537  0.65868370  0.47414569  1
  O2-  O428  1  0.83800575  0.67109178  0.81470581  1
  O2-  O429  1  0.86272524  0.92641625  0.14432089  1
  O2-  O430  1  0.84612176  0.91619899  0.48843930  1
  O2-  O431  1  0.83700647  0.91894189  0.81145008  1
  O2-  O432  1  0.16905459  0.07695391  0.18745768  1
  O2-  O433  1  0.17818929  0.09368823  0.52037911  1
  O2-  O434  1  0.17693100  0.10150823  0.85438437  1
  O2-  O435  1  0.16147316  0.33346264  0.18288941  1
  O2-  O436  1  0.16650375  0.33322988  0.51777200  1
  O2-  O437  1  0.18938976  0.36264286  0.85957553  1
  O2-  O438  1  0.19732775  0.60357837  0.18964868  1
  O2-  O439  1  0.18263076  0.59106380  0.53190609  1
  O2-  O440  1  0.16498550  0.58776603  0.85611404  1
  O2-  O441  1  0.14552975  0.81506846  0.18548634  1
  O2-  O442  1  0.16237310  0.83073696  0.51328959  1
  O2-  O443  1  0.16277709  0.84479628  0.84382042  1
  O2-  O444  1  0.42863397  0.07641293  0.18353869  1
  O2-  O445  1  0.42241221  0.08011423  0.53686735  1
  O2-  O446  1  0.43944213  0.01948818  0.86737671  1
  O2-  O447  1  0.44341459  0.31619741  0.19726957  1
  O2-  O448  1  0.42339006  0.33928444  0.51996232  1
  O2-  O449  1  0.42259589  0.31335209  0.86100849  1
  O2-  O450  1  0.42325604  0.59099209  0.19513677  1
  O2-  O451  1  0.42824333  0.56939390  0.52851236  1
  O2-  O452  1  0.41020867  0.59798783  0.86951262  1
  O2-  O453  1  0.39855736  0.84467061  0.18497119  1
  O2-  O454  1  0.44086507  0.83927644  0.51677668  1
  O2-  O455  1  0.42949045  0.83278426  0.85557760  1
  O2-  O456  1  0.67179546  0.08967707  0.19522061  1
  O2-  O457  1  0.66945070  0.08003013  0.52296699  1
  O2-  O458  1  0.66709126  0.07263312  0.85353319  1
  O2-  O459  1  0.66498677  0.32567091  0.18496846  1
  O2-  O460  1  0.68742340  0.34011640  0.53403768  1
  O2-  O461  1  0.65760251  0.32160908  0.83255744  1
  O2-  O462  1  0.67131561  0.59874045  0.18622791  1
  O2-  O463  1  0.66591671  0.54178509  0.51001299  1
  O2-  O464  1  0.67063380  0.59458057  0.85125332  1
  O2-  O465  1  0.70534531  0.84349456  0.18102943  1
  O2-  O466  1  0.68054085  0.81484893  0.52580151  1
  O2-  O467  1  0.66697901  0.83210683  0.84879298  1
  O2-  O468  1  0.92743850  0.08639001  0.17342187  1
  O2-  O469  1  0.92402595  0.08650023  0.51355059  1
  O2-  O470  1  0.90714268  0.07862392  0.85353098  1
  O2-  O471  1  0.93657040  0.38251784  0.19188469  1
  O2-  O472  1  0.92028931  0.33326934  0.52137039  1
  O2-  O473  1  0.90919482  0.32741412  0.84952481  1
  O2-  O474  1  0.90299060  0.58181690  0.18920055  1
  O2-  O475  1  0.91092977  0.57538754  0.51230732  1
  O2-  O476  1  0.91284409  0.57476629  0.84952948  1
  O2-  O477  1  0.92931429  0.83326284  0.19023089  1
  O2-  O478  1  0.92075751  0.82303172  0.51723578  1
  O2-  O479  1  0.91808572  0.83641800  0.85543851  1
  O2-  O480  1  0.17477963  0.08616163  0.31492481  1
  O2-  O481  1  0.17000501  0.09881889  0.64123345  1
  O2-  O482  1  0.18130001  0.09034758  0.97883595  1
  O2-  O483  1  0.16775554  0.33089682  0.30731797  1
  O2-  O484  1  0.18923623  0.35573091  0.64737110  1
  O2-  O485  1  0.17612102  0.33912629  0.98859551  1
  O2-  O486  1  0.17439414  0.58499143  0.31372935  1
  O2-  O487  1  0.16663940  0.57515631  0.65134214  1
  O2-  O488  1  0.16582962  0.57111131  0.98040218  1
  O2-  O489  1  0.16366372  0.82821474  0.31551167  1
  O2-  O490  1  0.17086691  0.83401077  0.63620770  1
  O2-  O491  1  0.19125307  0.81106544  0.96148596  1
  O2-  O492  1  0.37675815  0.05382769  0.30899773  1
  O2-  O493  1  0.41200079  0.07797503  0.65762055  1
  O2-  O494  1  0.42082232  0.06613098  0.98311294  1
  O2-  O495  1  0.42674111  0.35441314  0.31795487  1
  O2-  O496  1  0.43373157  0.35562057  0.64864320  1
  O2-  O497  1  0.41439870  0.37144820  0.97674309  1
  O2-  O498  1  0.40833724  0.58799168  0.31348986  1
  O2-  O499  1  0.42849788  0.59442055  0.65016522  1
  O2-  O500  1  0.41520533  0.66411543  0.98152048  1
  O2-  O501  1  0.41726223  0.83808342  0.30380629  1
  O2-  O502  1  0.41733650  0.82446120  0.63912347  1
  O2-  O503  1  0.41968774  0.84084858  0.98032486  1
  O2-  O504  1  0.63192040  0.04664007  0.34560403  1
  O2-  O505  1  0.67408762  0.08433351  0.63665608  1
  O2-  O506  1  0.66994963  0.08431546  0.97819781  1
  O2-  O507  1  0.69627157  0.41469357  0.29885323  1
  O2-  O508  1  0.74448077  0.40711915  0.64902500  1
  O2-  O509  1  0.65589312  0.32791972  0.97560756  1
  O2-  O510  1  0.67192176  0.60619922  0.31342463  1
  O2-  O511  1  0.68014467  0.60240069  0.65610268  1
  O2-  O512  1  0.68514133  0.58917726  0.97508841  1
  O2-  O513  1  0.66960831  0.89870369  0.38778662  1
  O2-  O514  1  0.67792339  0.83542982  0.64697951  1
  O2-  O515  1  0.63633242  0.79434403  0.97384198  1
  O2-  O516  1  0.93068309  0.08568921  0.31804414  1
  O2-  O517  1  0.90947184  0.08997396  0.63590690  1
  O2-  O518  1  0.94024388  0.09770653  0.97709418  1
  O2-  O519  1  0.91729362  0.33084487  0.31046827  1
  O2-  O520  1  0.89970597  0.33630257  0.64388027  1
  O2-  O521  1  0.90949793  0.32961822  0.97641820  1
  O2-  O522  1  0.91726934  0.58820775  0.31418629  1
  O2-  O523  1  0.90455630  0.54423337  0.63574998  1
  O2-  O524  1  0.91089750  0.57129489  0.97697708  1
  O2-  O525  1  0.91392155  0.83890292  0.31109884  1
  O2-  O526  1  0.91852828  0.82336014  0.63973982  1
  O2-  O527  1  0.92853671  0.83265748  0.97623047  1
  O2-  O528  1  0.10344801  0.17376574  0.02262018  1
  O2-  O529  1  0.09259359  0.16690983  0.34880706  1
  O2-  O530  1  0.05867701  0.14109048  0.69361770  1
  O2-  O531  1  0.10778953  0.47727152  0.10903331  1
  O2-  O532  1  0.08162402  0.41040917  0.35505074  1
  O2-  O533  1  0.07506782  0.41497608  0.68862544  1
  O2-  O534  1  0.07997673  0.64859267  0.01948378  1
  O2-  O535  1  0.08108315  0.66156433  0.35005600  1
  O2-  O536  1  0.08541187  0.66975842  0.68387875  1
  O2-  O537  1  0.09323264  0.91737811  0.01984014  1
  O2-  O538  1  0.05762538  0.86474812  0.36992315  1
  O2-  O539  1  0.04595266  0.95206839  0.70058534  1
  O2-  O540  1  0.34270957  0.15661608  0.01866471  1
  O2-  O541  1  0.33866640  0.19247058  0.36448207  1
  O2-  O542  1  0.33128117  0.17636401  0.68295236  1
  O2-  O543  1  0.32820250  0.45992192  0.02331604  1
  O2-  O544  1  0.33320475  0.42804482  0.34957464  1
  O2-  O545  1  0.34878908  0.43716419  0.69594428  1
  O2-  O546  1  0.34361587  0.67051519  0.00860014  1
  O2-  O547  1  0.34010094  0.67032633  0.34106841  1
  O2-  O548  1  0.33631022  0.66621658  0.68960396  1
  O2-  O549  1  0.33305323  0.91039200  0.02681689  1
  O2-  O550  1  0.32623499  0.90076786  0.35594827  1
  O2-  O551  1  0.33276295  0.90913279  0.68890891  1
  O2-  O552  1  0.58430962  0.16541751  0.02373028  1
  O2-  O553  1  0.53156288  0.12426013  0.37920236  1
  O2-  O554  1  0.62119891  0.19624574  0.67454245  1
  O2-  O555  1  0.57963239  0.42200030  0.01068999  1
  O2-  O556  1  0.59159900  0.44784688  0.36484258  1
  O2-  O557  1  0.60252958  0.42971731  0.69093755  1
  O2-  O558  1  0.53219831  0.63988416  0.03206735  1
  O2-  O559  1  0.58527351  0.67665849  0.36008998  1
  O2-  O560  1  0.58682181  0.67333472  0.69643498  1
  O2-  O561  1  0.58653524  0.91382202  0.01801026  1
  O2-  O562  1  0.58498430  0.97974006  0.29929041  1
  O2-  O563  1  0.58896921  0.90857978  0.67248584  1
  O2-  O564  1  0.83796500  0.16196496  0.01484525  1
  O2-  O565  1  0.82289506  0.15817777  0.34822138  1
  O2-  O566  1  0.83004246  0.16984701  0.68173904  1
  O2-  O567  1  0.82328475  0.40565548  0.01898476  1
  O2-  O568  1  0.83978052  0.41877880  0.35013834  1
  O2-  O569  1  0.76593392  0.34993143  0.68479329  1
  O2-  O570  1  0.84261300  0.66782448  0.01852820  1
  O2-  O571  1  0.83538809  0.67292762  0.35115595  1
  O2-  O572  1  0.83461673  0.66885059  0.69180952  1
  O2-  O573  1  0.87201387  0.93214188  0.01941387  1
  O2-  O574  1  0.83480668  0.92488397  0.36641704  1
  O2-  O575  1  0.89271697  0.95043292  0.69574624  1
