# generated using pymatgen
data_H2O
_symmetry_space_group_name_H-M   'P 1'
_cell_length_a   17.99142749
_cell_length_b   17.97916434
_cell_length_c   21.99220975
_cell_angle_alpha   90.03210608
_cell_angle_beta   89.97534908
_cell_angle_gamma   119.97943021
_symmetry_Int_Tables_number   1
_chemical_formula_structural   H2O
_chemical_formula_sum   'H384 O192'
_cell_volume   6162.04026601
_cell_formula_units_Z   192
loop_
 _symmetry_equiv_pos_site_id
 _symmetry_equiv_pos_as_xyz
  1  'x, y, z'
loop_
 _atom_type_symbol
 _atom_type_oxidation_number
  H+  1.0
  O2-  -2.0
loop_
 _atom_site_type_symbol
 _atom_site_label
 _atom_site_symmetry_multiplicity
 _atom_site_fract_x
 _atom_site_fract_y
 _atom_site_fract_z
 _atom_site_occupancy
  H+  H0  1  0.38234878  0.01626992  0.32847401  1
  H+  H1  1  0.85512466  0.47194838  0.33538104  1
  H+  H2  1  1.01258698  0.37959921  0.15862651  1
  H+  H3  1  0.39425163  0.37005638  0.67607409  1
  H+  H4  1  0.83925786  0.90562038  0.09857389  1
  H+  H5  1  0.36399778  0.89680210  0.49314566  1
  H+  H6  1  0.35500721  0.71777565  0.34149092  1
  H+  H7  1  0.73222235  0.86749205  0.17298863  1
  H+  H8  1  0.62611661  0.10979347  0.65778120  1
  H+  H9  1  0.60818609  0.97510240  0.15992043  1
  H+  H10  1  0.34176535  0.48610235  0.01827401  1
  H+  H11  1  0.49060555  0.85758421  0.99088896  1
  H+  H12  1  0.11261222  0.38925957  0.48833793  1
  H+  H13  1  0.85134755  0.53894986  0.64338227  1
  H+  H14  1  0.83395298  0.16340309  0.42834733  1
  H+  H15  1  0.88410291  0.86192249  0.49834853  1
  H+  H16  1  0.41423944  0.63271530  0.93744019  1
  H+  H17  1  0.79146200  0.04729726  0.71478544  1
  H+  H18  1  0.60979337  0.71146078  0.49061037  1
  H+  H19  1  0.38176230  0.11386535  0.16168010  1
  H+  H20  1  0.76540269  0.88653879  0.81877200  1
  H+  H21  1  0.17412909  0.08623774  0.26431180  1
  H+  H22  1  0.40236042  0.03767314  0.67160177  1
  H+  H23  1  0.35845323  0.46481217  0.44670284  1
  H+  H24  1  0.53040126  0.39093496  0.67457813  1
  H+  H25  1  0.87080006  0.12837718  0.14877794  1
  H+  H26  1  0.04377082  0.61982696  0.74803260  1
  H+  H27  1  0.71055290  0.36451691  0.32829192  1
  H+  H28  1  0.38928987  0.79971162  0.83875999  1
  H+  H29  1  0.07881588  0.90901604  0.07595459  1
  H+  H30  1  0.13301628  0.76373916  0.32058370  1
  H+  H31  1  0.61332331  0.13334898  0.82935989  1
  H+  H32  1  0.98332796  0.85780944  0.32506968  1
  H+  H33  1  0.49779441  0.12775738  0.51153197  1
  H+  H34  1  0.47957108  0.10880308  0.83265316  1
  H+  H35  1  0.27646240  0.12838050  0.33785476  1
  H+  H36  1  0.99103528  0.10493349  0.14583509  1
  H+  H37  1  0.91566315  0.32927039  0.90497007  1
  H+  H38  1  0.85675600  0.63624506  0.49065218  1
  H+  H39  1  0.62421977  0.27662233  0.32446888  1
  H+  H40  1  0.22888117  0.38251881  0.50455265  1
  H+  H41  1  0.81217091  0.92716846  0.32224385  1
  H+  H42  1  0.36278015  0.37613922  0.33429716  1
  H+  H43  1  0.62822827  0.10749254  0.98890942  1
  H+  H44  1  0.63432546  0.61331358  0.50862811  1
  H+  H45  1  0.37628031  0.51160799  0.34268837  1
  H+  H46  1  0.11965653  -0.02213394  0.16650942  1
  H+  H47  1  0.37600344  0.10462231  0.98359304  1
  H+  H48  1  0.41638794  0.42030412  0.52488265  1
  H+  H49  1  0.35139024  0.86482802  0.15765473  1
  H+  H50  1  0.91193772  0.27944980  0.64203212  1
  H+  H51  1  0.58864027  0.16723090  0.76886736  1
  H+  H52  1  0.72385742  0.35709627  0.84493144  1
  H+  H53  1  1.03229904  0.17803592  0.96928628  1
  H+  H54  1  1.02201996  0.88599661  0.49205627  1
  H+  H55  1  0.15685749  0.76558316  0.71971274  1
  H+  H56  1  0.10041698  0.10813525  0.06324775  1
  H+  H57  1  0.31112772  0.69935674  0.09075646  1
  H+  H58  1  0.74240895  0.85469398  0.98888104  1
  H+  H59  1  0.73133879  0.11252251  0.50263011  1
  H+  H60  1  0.63200959  1.01796603  0.32072262  1
  H+  H61  1  0.98293729  0.84243929  0.86238042  1
  H+  H62  1  0.88706864  0.11120775  0.49185252  1
  H+  H63  1  0.85974723  0.46010195  0.16259257  1
  H+  H64  1  0.63001439  0.60875199  0.65476904  1
  H+  H65  1  0.10480690  0.20591186  0.82355597  1
  H+  H66  1  0.22787482  0.86478578  0.17174098  1
  H+  H67  1  0.27358376  0.88115517  0.00161139  1
  H+  H68  1  0.12640148  0.52143604  0.16624727  1
  H+  H69  1  0.86153626  0.72599082  0.33597487  1
  H+  H70  1  0.85156975  0.89776493  0.66495748  1
  H+  H71  1  0.85930532  0.47294095  0.49104287  1
  H+  H72  1  0.35741100  0.87697931  0.33118421  1
  H+  H73  1  0.87865682  0.48145792  0.01106419  1
  H+  H74  1  0.86729927  0.79633538  0.00895996  1
  H+  H75  1  0.46921440  0.82624320  0.17224361  1
  H+  H76  1  0.26743690  0.13309185  0.00801526  1
  H+  H77  1  0.20945740  0.60537739  0.14643772  1
  H+  H78  1  0.36028444  0.87646176  1.00166288  1
  H+  H79  1  0.47638143  0.54449558  0.03811219  1
  H+  H80  1  0.19246377  0.75582954  0.72394459  1
  H+  H81  1  0.72327094  0.11029494  0.84774840  1
  H+  H82  1  0.26739129  0.63804593  0.67947047  1
  H+  H83  1  0.16814353  0.78566296  0.53124013  1
  H+  H84  1  0.45593873  0.85520224  0.51258542  1
  H+  H85  1  0.29390343  0.91836502  0.68676507  1
  H+  H86  1  0.11147093  0.47737992  0.83687433  1
  H+  H87  1  0.88196871  0.45928674  0.68530317  1
  H+  H88  1  0.09681692  0.61002682  0.48566283  1
  H+  H89  1  0.37870532  0.60233646  0.34162548  1
  H+  H90  1  0.18396337  0.79996816  0.49897897  1
  H+  H91  1  0.13066478  0.00580075  0.85959059  1
  H+  H92  1  0.10249495  0.25199558  0.92706649  1
  H+  H93  1  0.59126610  0.73584252  0.82285482  1
  H+  H94  1  0.25945040  0.63126429  0.49883543  1
  H+  H95  1  0.11114387  0.63169840  0.32260368  1
  H+  H96  1  0.51558040  0.63055229  0.66600407  1
  H+  H97  1  0.97145483  0.60914062  0.31908394  1
  H+  H98  1  0.59314134  0.38341129  0.34064490  1
  H+  H99  1  0.23139585  0.36881141  0.31803204  1
  H+  H100  1  0.37472154  0.51852940  0.50647699  1
  H+  H101  1  0.21577074  0.34135512  0.84363651  1
  H+  H102  1  0.88930170  0.36271365  0.50053368  1
  H+  H103  1  0.74152568  0.31585897  0.17871401  1
  H+  H104  1  0.12623543  0.59709192  0.66335068  1
  H+  H105  1  0.26562401  0.13292422  0.49362671  1
  H+  H106  1  0.46632212  0.37290880  0.16606791  1
  H+  H107  1  0.28133619  0.38713405  0.68841576  1
  H+  H108  1  0.63145097  0.73378870  0.15002711  1
  H+  H109  1  0.35985697  0.56105489  0.84635135  1
  H+  H110  1  0.13541411  0.87678977  0.17509705  1
  H+  H111  1  0.50463077  0.61437470  0.34130700  1
  H+  H112  1  0.85518882  0.47073793  0.83271415  1
  H+  H113  1  0.88788392  0.26162351  0.16830803  1
  H+  H114  1  0.22393144  0.85344816  0.32396283  1
  H+  H115  1  0.88549196  0.09211140  -0.00812393  1
  H+  H116  1  0.38941422  0.37270179  0.99642750  1
  H+  H117  1  0.12958158  0.19663941  0.09322998  1
  H+  H118  1  0.63518460  0.35807461  0.50775211  1
  H+  H119  1  0.73146893  0.36236903  0.66291272  1
  H+  H120  1  0.61515004  0.38432165  0.82755098  1
  H+  H121  1  0.86159574  0.65787807  0.67554948  1
  H+  H122  1  0.37196550  0.11273169  0.33969220  1
  H+  H123  1  0.49342597  0.63192382  0.01349197  1
  H+  H124  1  0.72791953  0.62263324  0.31844597  1
  H+  H125  1  0.85733350  0.72682394  0.49313856  1
  H+  H126  1  0.77303583  0.13142656  1.00081306  1
  H+  H127  1  0.33204233  0.17489843  0.09708036  1
  H+  H128  1  0.94649525  0.09347574  0.21192821  1
  H+  H129  1  0.62515846  0.46999385  0.48907221  1
  H+  H130  1  0.11965465  0.97557083  0.33675329  1
  H+  H131  1  0.52046773  0.62542976  0.50072258  1
  H+  H132  1  0.86773189  0.13585975  0.33027857  1
  H+  H133  1  0.84656584  0.59111249  0.15034799  1
  H+  H134  1  0.86630667  0.22582177  0.48707874  1
  H+  H135  1  0.37955810  0.22852758  0.82667273  1
  H+  H136  1  0.88538544  0.10910484  0.84699296  1
  H+  H137  1  0.60082866  0.47036906  0.15928347  1
  H+  H138  1  0.57549230  0.41292401  0.10006120  1
  H+  H139  1  0.87828518  0.78770896  0.66207808  1
  H+  H140  1  0.21630995  0.62958226  0.85067931  1
  H+  H141  1  0.89162639  0.02305722  0.64227107  1
  H+  H142  1  0.62322351  0.88881329  0.00849791  1
  H+  H143  1  0.61776933  0.35319449  -0.00908569  1
  H+  H144  1  0.86513091  0.35074720  0.31714544  1
  H+  H145  1  0.85919038  0.72312133  0.84024569  1
  H+  H146  1  0.12406549  0.88879892  0.67878674  1
  H+  H147  1  0.72415170  0.61446086  0.84236824  1
  H+  H148  1  0.94880845  0.59187275  0.66619512  1
  H+  H149  1  0.64926475  0.62424252  0.16646194  1
  H+  H150  1  0.77427827  0.88404976  0.47971563  1
  H+  H151  1  0.13606132  0.86921184  0.99591400  1
  H+  H152  1  0.62196138  0.23179653  0.67582815  1
  H+  H153  1  0.28755417  0.06241038  0.48919945  1
  H+  H154  1  0.10155563  0.62956616  0.16051145  1
  H+  H155  1  0.88598085  0.35974740  0.84557014  1
  H+  H156  1  0.09724950  0.18293973  0.38522211  1
  H+  H157  1  0.53147368  0.40171051  0.50673856  1
  H+  H158  1  0.14196906  0.51879888  0.66361980  1
  H+  H159  1  0.92069858  0.04620885  0.31054652  1
  H+  H160  1  0.14955970  0.35970523  0.67732983  1
  H+  H161  1  1.02661294  0.88513266  0.16827602  1
  H+  H162  1  0.37885215  0.13141081  0.82198829  1
  H+  H163  1  0.88412840  0.62782423  -0.00625223  1
  H+  H164  1  0.26544027  0.93854749  0.50806256  1
  H+  H165  1  0.35605065  0.23752904  0.15481242  1
  H+  H166  1  1.03822110  0.12709428  0.66914336  1
  H+  H167  1  0.36832783  0.47955656  0.68441650  1
  H+  H168  1  0.65001586  0.77405941  0.99407712  1
  H+  H169  1  0.63371678  0.86563562  0.84181298  1
  H+  H170  1  0.17264588  0.93452389  0.51162290  1
  H+  H171  1  0.70308333  0.09095449  0.66385024  1
  H+  H172  1  0.86722247  0.36863086  0.67143252  1
  H+  H173  1  -0.03101113  0.60765010  0.49416560  1
  H+  H174  1  0.91422767  0.83516405  0.91090426  1
  H+  H175  1  0.86961444  0.26419297  0.32026903  1
  H+  H176  1  0.64469452  0.36801821  0.66240524  1
  H+  H177  1  0.07029249  0.41235102  0.09764276  1
  H+  H178  1  0.76152561  0.89415751  0.65868717  1
  H+  H179  1  0.13127925  0.34871942  0.83950589  1
  H+  H180  1  0.62970467  0.61231338  0.31759333  1
  H+  H181  1  0.13803629  0.10274305  0.15829460  1
  H+  H182  1  0.37939194  0.01685525  0.98478526  1
  H+  H183  1  0.14435469  0.11115200  0.66428696  1
  H+  H184  1  0.11790707  0.88514384  0.33764914  1
  H+  H185  1  0.14581508  0.29017452  0.49411622  1
  H+  H186  1  0.77239118  0.12354153  0.33548781  1
  H+  H187  1  0.35704840  0.22198111  1.00269895  1
  H+  H188  1  0.30607065  0.45351214  0.16531812  1
  H+  H189  1  0.14976969  0.12242640  0.32215508  1
  H+  H190  1  0.62200111  0.14068938  0.49029780  1
  H+  H191  1  0.86268618  0.22723387  0.84021993  1
  H+  H192  1  0.22670779  0.61581334  0.31897158  1
  H+  H193  1  0.57462290  0.90387075  0.55521147  1
  H+  H194  1  0.63724208  0.52203700  0.65781385  1
  H+  H195  1  0.59269927  0.42215345  0.73173849  1
  H+  H196  1  0.87813139  1.01707255  0.83496959  1
  H+  H197  1  0.89073959  0.36098403  -0.00549183  1
  H+  H198  1  0.08293817  0.14796432  0.73577807  1
  H+  H199  1  0.01459185  0.11902623  0.82492857  1
  H+  H200  1  0.76618080  0.65195782  0.00657444  1
  H+  H201  1  0.48037784  0.35563840  0.83899709  1
  H+  H202  1  0.63407367  0.26750955  0.84076702  1
  H+  H203  1  0.96187710  0.60744883  0.84428939  1
  H+  H204  1  0.39022777  -0.00410471  0.49021740  1
  H+  H205  1  0.15100849  0.27149213  0.67686096  1
  H+  H206  1  0.38636698  0.34706466  0.83851860  1
  H+  H207  1  0.46753561  0.36877840  0.32346458  1
  H+  H208  1  0.91351371  0.06491526  0.93124637  1
  H+  H209  1  0.84163968  0.14140773  0.69179655  1
  H+  H210  1  0.61062618  0.25113184  -0.01101179  1
  H+  H211  1  0.01324934  0.52682556  0.72548154  1
  H+  H212  1  0.11549388  0.14958265  0.48392752  1
  H+  H213  1  0.39016254  0.39328808  0.16946323  1
  H+  H214  1  0.43947873  0.37917446  0.58172162  1
  H+  H215  1  0.38866789  0.55038405  0.15812193  1
  H+  H216  1  0.35395688  0.64159278  0.50475486  1
  H+  H217  1  0.56585673  0.15493319  0.05153167  1
  H+  H218  1  0.13393107  0.01959699  1.01040290  1
  H+  H219  1  0.51224115  0.87830164  0.67272609  1
  H+  H220  1  0.63248086  0.60772956  0.83902501  1
  H+  H221  1  0.72224022  0.59444303  0.16932415  1
  H+  H222  1  0.11190472  0.39599189  0.96742523  1
  H+  H223  1  0.63532331  0.85186721  0.49898739  1
  H+  H224  1  0.41005307  0.34901968  0.26122479  1
  H+  H225  1  0.89769384  0.86293234  0.17035264  1
  H+  H226  1  0.87216060  0.60565668  0.84220220  1
  H+  H227  1  0.36958589  0.14136541  0.67509885  1
  H+  H228  1  0.61487721  -0.01915749  0.82449342  1
  H+  H229  1  0.53039442  0.14595675  0.67765481  1
  H+  H230  1  0.73635974  0.62284499  0.50809499  1
  H+  H231  1  0.12490777  1.03095766  0.50414662  1
  H+  H232  1  0.89896736  0.86479273  0.32217273  1
  H+  H233  1  0.24111245  0.34077713  1.05272267  1
  H+  H234  1  0.97027737  0.60143928  0.16952646  1
  H+  H235  1  0.59377347  0.86903763  0.33730342  1
  H+  H236  1  0.03543745  0.81663604  0.70042763  1
  H+  H237  1  0.36255659  0.45139335  0.84342966  1
  H+  H238  1  0.38558993  0.61344874  0.66941626  1
  H+  H239  1  0.62324404  0.23101577  0.49175527  1
  H+  H240  1  0.38434534  0.86714908  0.67058773  1
  H+  H241  1  0.51046649  0.12966865  -0.01117920  1
  H+  H242  1  1.01805894  0.64727316  1.00667021  1
  H+  H243  1  0.60713400  0.13127461  0.33640879  1
  H+  H244  1  0.18284397  0.33831385  0.14534633  1
  H+  H245  1  0.12896600  0.24139731  0.32454824  1
  H+  H246  1  0.12355270  0.39834238  0.33659606  1
  H+  H247  1  0.12434087  0.50977262  0.50271589  1
  H+  H248  1  0.61128379  0.47066868  1.00134137  1
  H+  H249  1  0.43567232  0.84236020  0.90742664  1
  H+  H250  1  0.35485021  0.72859859  0.67801679  1
  H+  H251  1  0.69173567  0.17110494  0.19401130  1
  H+  H252  1  0.31059061  0.61988677  0.04783008  1
  H+  H253  1  0.27726687  0.13619739  0.67539103  1
  H+  H254  1  0.35449976  0.67336759  0.83208178  1
  H+  H255  1  0.59875750  -0.03140081  0.66792296  1
  H+  H256  1  0.41602949  0.76181530  0.97644153  1
  H+  H257  1  0.51899469  0.38387844  0.00246948  1
  H+  H258  1  0.39203172  0.28020021  0.66748202  1
  H+  H259  1  0.14403289  0.02302288  0.65854679  1
  H+  H260  1  0.61324329  -0.02327771  0.50732484  1
  H+  H261  1  0.73562983  0.11931502  0.17061912  1
  H+  H262  1  0.46117836  0.84921184  0.31820830  1
  H+  H263  1  0.61387017  0.47303504  0.82853707  1
  H+  H264  1  0.12133981  0.08843928  0.85076449  1
  H+  H265  1  0.46153010  0.60802202  0.84356365  1
  H+  H266  1  0.92630154  0.12304492  0.62997201  1
  H+  H267  1  0.46584297  0.68060624  0.54058819  1
  H+  H268  1  0.11054660  0.73230741  0.00671149  1
  H+  H269  1  0.92412558  0.83011581  0.22929011  1
  H+  H270  1  0.59088412  0.11648660  0.13729035  1
  H+  H271  1  0.61976964  0.89272725  0.15977632  1
  H+  H272  1  0.61274410  0.59450816  0.99654823  1
  H+  H273  1  0.63187566  1.01977264  -0.00540801  1
  H+  H274  1  0.50251967  0.11969643  0.14013386  1
  H+  H275  1  0.69000602  0.82829372  0.33548316  1
  H+  H276  1  0.03538620  0.38849362  0.67537208  1
  H+  H277  1  0.96636442  0.87559268  0.65987990  1
  H+  H278  1  0.36381622  0.97887482  0.79114413  1
  H+  H279  1  0.77265111  0.38253801  0.49321609  1
  H+  H280  1  0.12395813  0.61462893  0.00188970  1
  H+  H281  1  0.86872749  0.37600173  0.15772057  1
  H+  H282  1  0.62936427  0.76800684  0.65065990  1
  H+  H283  1  0.10276498  0.64095507  0.84021886  1
  H+  H284  1  0.87297922  -0.02550929  0.15198762  1
  H+  H285  1  0.81907460  0.92354843  0.75756174  1
  H+  H286  1  0.90963640  0.83616172  0.56149045  1
  H+  H287  1  0.88262039  0.61040105  0.32244944  1
  H+  H288  1  0.92956860  0.34122907  0.58634604  1
  H+  H289  1  0.82930422  0.40532266  0.77590073  1
  H+  H290  1  0.02803645  0.14839617  0.47458513  1
  H+  H291  1  0.01502430  0.89047091  0.02023177  1
  H+  H292  1  0.21855503  0.92144563  0.59856369  1
  H+  H293  1  1.00123433  0.13806695  0.30973726  1
  H+  H294  1  0.88389211  0.95957373  -0.00196101  1
  H+  H295  1  0.83444093  0.15696824  0.09298890  1
  H+  H296  1  0.33723359  0.40963773  0.77686000  1
  H+  H297  1  0.66568015  0.83002909  0.89764915  1
  H+  H298  1  0.08581528  0.41800957  0.73974407  1
  H+  H299  1  0.17746582  0.35035557  0.25623090  1
  H+  H300  1  0.86342856  0.21812114  0.00123399  1
  H+  H301  1  0.32132314  0.66274203  0.40328983  1
  H+  H302  1  0.84596618  0.41568067  0.06646624  1
  H+  H303  1  0.49256749  0.88051693  0.83858348  1
  H+  H304  1  0.07142962  0.66263601  0.10410717  1
  H+  H305  1  0.66923064  0.08521955  0.26516674  1
  H+  H306  1  0.14496066  0.28423345  1.02898373  1
  H+  H307  1  0.86295356  0.97556776  0.47915323  1
  H+  H308  1  0.76915993  0.54029439  0.10557495  1
  H+  H309  1  0.65657521  0.58203273  0.93686928  1
  H+  H310  1  0.32336006  0.69073064  0.76901493  1
  H+  H311  1  0.40692423  0.12450903  0.51581261  1
  H+  H312  1  0.17551603  0.59115591  0.25466355  1
  H+  H313  1  0.34299008  0.16700326  0.76168272  1
  H+  H314  1  0.57603269  0.64700786  0.39447186  1
  H+  H315  1  0.98053277  0.36472238  0.49709532  1
  H+  H316  1  0.20575232  0.61132687  1.02267571  1
  H+  H317  1  0.16473888  0.59471823  0.91292688  1
  H+  H318  1  0.58086713  0.91776649  0.76468810  1
  H+  H319  1  0.32730072  0.89861695  0.09794687  1
  H+  H320  1  0.65529801  0.07281586  0.90126793  1
  H+  H321  1  0.09472233  0.72496486  0.82539465  1
  H+  H322  1  0.90765317  0.57310877  0.22870343  1
  H+  H323  1  0.82254688  0.66374808  0.39363824  1
  H+  H324  1  0.43039070  0.09116650  0.60799267  1
  H+  H325  1  0.67021489  0.08711538  0.56235080  1
  H+  H326  1  0.15197687  0.07825813  0.95306282  1
  H+  H327  1  0.15917835  0.08876745  0.56384142  1
  H+  H328  1  0.08601950  0.42324790  0.42803666  1
  H+  H329  1  0.11969575  0.48455319  0.33493387  1
  H+  H330  1  0.82787262  0.67490663  0.77569780  1
  H+  H331  1  0.40950280  0.07124078  0.88680947  1
  H+  H332  1  0.82183194  0.15555717  0.78711244  1
  H+  H333  1  0.11383708  0.48124519  -0.00935109  1
  H+  H334  1  0.15102013  0.57059710  0.56335641  1
  H+  H335  1  0.47373512  0.10869041  0.33291652  1
  H+  H336  1  0.35341464  0.62440705  0.13660987  1
  H+  H337  1  0.39945423  0.83321699  0.60604310  1
  H+  H338  1  0.22968014  0.11418150  0.16928350  1
  H+  H339  1  0.92672894  0.07766502  0.54360248  1
  H+  H340  1  0.62434326  0.85471369  0.65179534  1
  H+  H341  1  0.18896361  0.83304004  0.63205287  1
  H+  H342  1  0.97716406  0.35689112  0.98605202  1
  H+  H343  1  0.84769295  0.92748458  0.38924803  1
  H+  H344  1  0.14844938  0.39610151  0.16956969  1
  H+  H345  1  0.64376662  0.24672255  0.17197363  1
  H+  H346  1  0.41185902  0.72171386  0.17958587  1
  H+  H347  1  0.66685893  0.82356994  0.55558918  1
  H+  H348  1  0.36479117  0.76836074  0.51103751  1
  H+  H349  1  0.08222582  0.91784419  0.43245511  1
  H+  H350  1  0.58099355  0.65637337  0.10180884  1
  H+  H351  1  0.76997711  0.64944797  0.67564642  1
  H+  H352  1  0.32499708  0.14195413  0.40331555  1
  H+  H353  1  0.40367926  0.80348949  0.25943137  1
  H+  H354  1  0.55788211  0.40301472  0.40022183  1
  H+  H355  1  0.58054399  0.66449801  0.72141884  1
  H+  H356  1  0.37556249  0.02186610  0.16264983  1
  H+  H357  1  0.58660434  0.91421566  0.06682061  1
  H+  H358  1  0.10214120  0.69948004  0.47864018  1
  H+  H359  1  0.58163562  0.16320475  0.39658720  1
  H+  H360  1  0.90761687  0.31960419  0.22965272  1
  H+  H361  1  0.91722090  0.59223251  0.55656008  1
  H+  H362  1  0.16834007  0.83588814  0.23651511  1
  H+  H363  1  0.09027395  0.88779868  0.78365141  1
  H+  H364  1  0.33634552  0.91372603  0.39214317  1
  H+  H365  1  0.19994135  0.87844875  0.82158037  1
  H+  H366  1  0.41611548  0.59415473  0.60422392  1
  H+  H367  1  0.82408784  0.66672935  0.06377704  1
  H+  H368  1  0.66977543  0.59198819  0.24707004  1
  H+  H369  1  0.60459952  0.74392096  0.32412136  1
  H+  H370  1  0.36019346  0.45903270  0.08325997  1
  H+  H371  1  0.66955959  0.33149556  0.56652617  1
  H+  H372  1  0.82781790  0.41333180  0.39484659  1
  H+  H373  1  0.90847333  0.58867661  0.93743797  1
  H+  H374  1  0.41198519  0.33587409  0.93623760  1
  H+  H375  1  0.66472659  0.83032492  0.22882853  1
  H+  H376  1  0.67036698  0.58591989  0.57358684  1
  H+  H377  1  0.51457450  0.70707802  0.77775635  1
  H+  H378  1  0.56624477  0.90561771  0.39320806  1
  H+  H379  1  0.65224188  0.32214102  0.92888645  1
  H+  H380  1  0.07699064  0.65054859  0.38467191  1
  H+  H381  1  0.16085590  0.84599129  0.93234256  1
  H+  H382  1  0.02328545  0.38793104  0.83444064  1
  H+  H383  1  0.29962113  0.36305092  0.39351819  1
  O2-  O384  1  0.09333561  0.13371936  0.10116295  1
  O2-  O385  1  0.08978737  0.18106471  0.46356340  1
  O2-  O386  1  0.07508011  0.14498960  0.80944754  1
  O2-  O387  1  0.07288944  0.41811960  0.14205044  1
  O2-  O388  1  0.07885786  0.41810386  0.47435413  1
  O2-  O389  1  0.08386963  0.41909895  0.81874705  1
  O2-  O390  1  0.06572768  0.65537152  0.14876786  1
  O2-  O391  1  0.06708184  0.63949325  0.46574748  1
  O2-  O392  1  0.06773716  0.66233311  0.81848870  1
  O2-  O393  1  0.09027766  0.91516666  0.15396748  1
  O2-  O394  1  0.08190610  0.92340245  0.47769051  1
  O2-  O395  1  0.09673524  0.89059435  0.82908759  1
  O2-  O396  1  0.33053157  0.17612068  0.14244231  1
  O2-  O397  1  0.31304485  0.12399264  0.47888883  1
  O2-  O398  1  0.35005255  0.16706049  0.80851714  1
  O2-  O399  1  0.36623026  0.48297114  0.15097021  1
  O2-  O400  1  0.34868246  0.45864315  0.49065185  1
  O2-  O401  1  0.33166135  0.39587553  0.82206774  1
  O2-  O402  1  0.27547403  0.63867062  0.08050816  1
  O2-  O403  1  0.32090442  0.66779202  0.48634320  1
  O2-  O404  1  0.32562762  0.70230678  0.81494574  1
  O2-  O405  1  0.32367768  0.89697902  0.14338952  1
  O2-  O406  1  0.34957958  0.93793392  0.47317207  1
  O2-  O407  1  0.32493504  0.92194305  0.77227251  1
  O2-  O408  1  0.56150682  0.14528653  0.11986133  1
  O2-  O409  1  0.59040455  0.17008882  0.47655495  1
  O2-  O410  1  0.58389903  0.16494855  0.81446941  1
  O2-  O411  1  0.56803233  0.41073252  0.14453514  1
  O2-  O412  1  0.58440014  0.40864962  0.48452411  1
  O2-  O413  1  0.58434947  0.41364811  0.81155541  1
  O2-  O414  1  0.62896579  0.68266731  0.13102618  1
  O2-  O415  1  0.58000136  0.64828781  0.48228382  1
  O2-  O416  1  0.54557739  0.68375792  0.79974949  1
  O2-  O417  1  0.58493917  0.91737988  0.14267339  1
  O2-  O418  1  0.57770455  0.91186004  0.51111402  1
  O2-  O419  1  0.58179110  0.91863439  0.81028359  1
  O2-  O420  1  0.83631444  0.15596723  0.13857181  1
  O2-  O421  1  0.83430302  0.16421819  0.47420896  1
  O2-  O422  1  0.82892203  0.16343314  0.83137277  1
  O2-  O423  1  0.83274012  0.40135513  0.14448056  1
  O2-  O424  1  0.83318740  0.41225777  0.47775189  1
  O2-  O425  1  0.82692727  0.40836926  0.82066250  1
  O2-  O426  1  0.79935334  0.59557902  0.12643988  1
  O2-  O427  1  0.82282265  0.66508875  0.47939108  1
  O2-  O428  1  0.82412713  0.66472499  0.82018676  1
  O2-  O429  1  0.83701566  0.91139889  0.14316040  1
  O2-  O430  1  0.83449927  0.91404719  0.46455591  1
  O2-  O431  1  0.82352464  0.92405013  0.80225797  1
  O2-  O432  1  0.16854501  0.08022955  0.18400138  1
  O2-  O433  1  0.15596555  0.09153125  0.51887333  1
  O2-  O434  1  0.14956483  0.06374133  0.87557414  1
  O2-  O435  1  0.18988388  0.37631128  0.17996480  1
  O2-  O436  1  0.16658082  0.34783883  0.51194738  1
  O2-  O437  1  0.15329354  0.31041190  0.85211448  1
  O2-  O438  1  0.16276943  0.58344248  0.17717546  1
  O2-  O439  1  0.15138630  0.57200882  0.51828091  1
  O2-  O440  1  0.15813911  0.59310409  0.86736297  1
  O2-  O441  1  0.16911199  0.84405635  0.19024620  1
  O2-  O442  1  0.22982797  0.95717983  0.53177926  1
  O2-  O443  1  0.14404361  0.84453077  0.84271176  1
  O2-  O444  1  0.41310186  0.08303633  0.17157160  1
  O2-  O445  1  0.43857268  0.09620421  0.53060542  1
  O2-  O446  1  0.41598920  0.07730169  0.84144504  1
  O2-  O447  1  0.40520729  0.34886768  0.18009637  1
  O2-  O448  1  0.46171810  0.41186517  0.54345003  1
  O2-  O449  1  0.41983669  0.31945659  0.85390609  1
  O2-  O450  1  0.40403767  0.63931463  0.16156741  1
  O2-  O451  1  0.43009025  0.61863602  0.53696451  1
  O2-  O452  1  0.41018990  0.56977449  0.86898153  1
  O2-  O453  1  0.41292482  0.78193905  0.18751496  1
  O2-  O454  1  0.39593710  0.82982612  0.52665144  1
  O2-  O455  1  0.43308650  0.85490859  0.85981757  1
  O2-  O456  1  0.68040333  0.10973475  0.18864865  1
  O2-  O457  1  0.67011416  0.08269689  0.51708266  1
  O2-  O458  1  0.65968850  0.07619591  0.85537182  1
  O2-  O459  1  0.69439584  0.26258306  0.19730959  1
  O2-  O460  1  0.66975506  0.33079522  0.52128018  1
  O2-  O461  1  0.66182201  0.32755265  0.85770704  1
  O2-  O462  1  0.66689032  0.58400370  0.18845658  1
  O2-  O463  1  0.67334782  0.59010293  0.52574705  1
  O2-  O464  1  0.66205584  0.57968852  0.85637410  1
  O2-  O465  1  0.67010159  0.83904120  0.18435726  1
  O2-  O466  1  0.66678561  0.82156619  0.51007974  1
  O2-  O467  1  0.65798653  0.82820434  0.85263612  1
  O2-  O468  1  0.93550662  0.08162779  0.16744899  1
  O2-  O469  1  0.91837883  0.07860483  0.49908366  1
  O2-  O470  1  0.91442003  0.07523337  0.85475544  1
  O2-  O471  1  0.91701381  0.32189611  0.18350681  1
  O2-  O472  1  0.92042929  0.33297170  0.51555013  1
  O2-  O473  1  0.91803330  0.33051948  0.85840768  1
  O2-  O474  1  0.90736630  0.56784238  0.18345133  1
  O2-  O475  1  0.90996727  0.58545521  0.51201663  1
  O2-  O476  1  0.90073446  0.57368919  0.85742578  1
  O2-  O477  1  0.93165817  0.83643821  0.18448903  1
  O2-  O478  1  0.91108415  0.83000918  0.51658933  1
  O2-  O479  1  0.92111238  0.81675916  0.87009696  1
  O2-  O480  1  0.17611502  0.08683689  0.30969513  1
  O2-  O481  1  0.17539963  0.08258071  0.64483966  1
  O2-  O482  1  0.15971181  0.08094335  0.99840947  1
  O2-  O483  1  0.17177255  0.34146224  0.30123395  1
  O2-  O484  1  0.18513840  0.33359161  0.66804080  1
  O2-  O485  1  0.18197731  0.30087424  1.06626353  1
  O2-  O486  1  0.16871580  0.58989122  0.29986574  1
  O2-  O487  1  0.16546304  0.57869049  0.64701126  1
  O2-  O488  1  0.16025714  0.58900329  0.99031478  1
  O2-  O489  1  0.16402130  0.82611794  0.30748187  1
  O2-  O490  1  0.20756934  0.89311158  0.64075206  1
  O2-  O491  1  0.16821685  0.84331250  0.97660977  1
  O2-  O492  1  0.41078850  0.07951005  0.32027946  1
  O2-  O493  1  0.42799461  0.09601858  0.65344865  1
  O2-  O494  1  0.40562256  0.07472883  0.96574925  1
  O2-  O495  1  0.40711165  0.34350011  0.30626283  1
  O2-  O496  1  0.42578504  0.34232412  0.65791939  1
  O2-  O497  1  0.41392608  0.33735766  0.98138386  1
  O2-  O498  1  0.41156606  0.57288213  0.33164817  1
  O2-  O499  1  0.41488754  0.58448294  0.65160608  1
  O2-  O500  1  0.41620553  0.65843600  0.97772774  1
  O2-  O501  1  0.40080144  0.81687558  0.30424036  1
  O2-  O502  1  0.40729210  0.83275830  0.65118156  1
  O2-  O503  1  0.43231273  0.82316901  0.97061744  1
  O2-  O504  1  0.66611887  0.07976913  0.31068193  1
  O2-  O505  1  0.64959411  0.07332697  0.64090541  1
  O2-  O506  1  0.66046364  0.07828014  0.97613873  1
  O2-  O507  1  0.64925672  0.33849593  0.31717668  1
  O2-  O508  1  0.67195313  0.33454349  0.64730959  1
  O2-  O509  1  0.64366807  0.31676672  0.97513128  1
  O2-  O510  1  0.66937798  0.59394068  0.29853423  1
  O2-  O511  1  0.66582791  0.58286012  0.64115064  1
  O2-  O512  1  0.65598106  0.57938373  0.98210243  1
  O2-  O513  1  0.63693899  0.80746315  0.31255285  1
  O2-  O514  1  0.65722146  0.82818039  0.63465911  1
  O2-  O515  1  0.68103001  0.83209128  0.97733013  1
  O2-  O516  1  0.94103526  0.10363684  0.29297614  1
  O2-  O517  1  0.93952480  0.07735591  0.62349013  1
  O2-  O518  1  0.91826251  0.06486583  0.97673663  1
  O2-  O519  1  0.89340104  0.32017970  0.29965977  1
  O2-  O520  1  0.93147788  0.33956159  0.63343551  1
  O2-  O521  1  0.91420311  0.32460485  0.97675349  1
  O2-  O522  1  0.90970651  0.57795227  0.30663318  1
  O2-  O523  1  0.90398691  0.59450036  0.64062414  1
  O2-  O524  1  0.91446427  0.59666583  0.98233405  1
  O2-  O525  1  0.92252846  0.82727050  0.31034977  1
  O2-  O526  1  0.90762825  0.84664037  0.64340859  1
  O2-  O527  1  0.90199935  0.85780522  0.99407059  1
  O2-  O528  1  0.07851334  0.23842161  -0.03151192  1
  O2-  O529  1  0.09966174  0.18007379  0.33983259  1
  O2-  O530  1  0.09410783  0.15572956  0.69029548  1
  O2-  O531  1  0.08439475  0.41719540  -0.00469672  1
  O2-  O532  1  0.09810885  0.42956371  0.35695658  1
  O2-  O533  1  0.09279888  0.42026452  0.69439877  1
  O2-  O534  1  0.07816976  0.67280308  0.02243522  1
  O2-  O535  1  0.07899065  0.65997181  0.34004295  1
  O2-  O536  1  0.02450291  0.58258239  0.71030039  1
  O2-  O537  1  0.07549161  0.90970834  0.03058783  1
  O2-  O538  1  0.08801143  0.91568925  0.35290237  1
  O2-  O539  1  0.07135049  0.87909854  0.70168560  1
  O2-  O540  1  0.33099520  0.16173569  0.01689787  1
  O2-  O541  1  0.33374672  0.14850906  0.35802651  1
  O2-  O542  1  0.33703053  0.16850025  0.69232012  1
  O2-  O543  1  0.35620186  0.44442838  0.03713465  1
  O2-  O544  1  0.32442125  0.40014870  0.35827013  1
  O2-  O545  1  0.34371638  0.42136448  0.70296021  1
  O2-  O546  1  0.33695435  0.58471858  0.00393816  1
  O2-  O547  1  0.32353398  0.65819999  0.35834818  1
  O2-  O548  1  0.32589094  0.67101180  0.69818560  1
  O2-  O549  1  0.33362942  0.90870925  0.01788198  1
  O2-  O550  1  0.32971715  0.90985327  0.34712470  1
  O2-  O551  1  0.35065221  0.93606643  0.70688075  1
  O2-  O552  1  0.57092023  0.16183235  0.00466315  1
  O2-  O553  1  0.57335610  0.15756213  0.35166242  1
  O2-  O554  1  0.59159307  0.17119171  0.69129910  1
  O2-  O555  1  0.58093878  0.40898845  0.01435673  1
  O2-  O556  1  0.55860521  0.40962054  0.35581236  1
  O2-  O557  1  0.59314491  0.42309031  0.68628213  1
  O2-  O558  1  0.52415618  0.60301804  0.02957576  1
  O2-  O559  1  0.57115427  0.64788131  0.34972671  1
  O2-  O560  1  0.57970136  0.66097986  0.67662060  1
  O2-  O561  1  0.58695108  0.91332940  0.02077393  1
  O2-  O562  1  0.56896318  0.90601901  0.34892519  1
  O2-  O563  1  0.57460857  0.90884784  0.68429561  1
  O2-  O564  1  0.83317376  0.15681550  0.01506744  1
  O2-  O565  1  0.83213150  0.15547493  0.35193521  1
  O2-  O566  1  0.78886847  0.10030565  0.71223631  1
  O2-  O567  1  0.85277567  0.42021089  0.02129997  1
  O2-  O568  1  0.82268946  0.41150798  0.34992914  1
  O2-  O569  1  0.83988753  0.39902861  0.69206144  1
  O2-  O570  1  0.82630027  0.68709486  0.02130528  1
  O2-  O571  1  0.82431622  0.66426167  0.34865289  1
  O2-  O572  1  0.82950300  0.68523224  0.69163740  1
  O2-  O573  1  0.85100019  0.89789085  0.01377215  1
  O2-  O574  1  0.86236124  0.93489928  0.34445284  1
  O2-  O575  1  0.82153917  0.93068345  0.67431007  1
