# generated using pymatgen
data_H2O
_symmetry_space_group_name_H-M   'P 1'
_cell_length_a   17.97779487
_cell_length_b   17.97759745
_cell_length_c   21.98488605
_cell_angle_alpha   90.02925285
_cell_angle_beta   89.97529133
_cell_angle_gamma   119.99981686
_symmetry_Int_Tables_number   1
_chemical_formula_structural   H2O
_chemical_formula_sum   'H384 O192'
_cell_volume   6153.52060135
_cell_formula_units_Z   192
loop_
 _symmetry_equiv_pos_site_id
 _symmetry_equiv_pos_as_xyz
  1  'x, y, z'
loop_
 _atom_type_symbol
 _atom_type_oxidation_number
  H+  1.0
  O2-  -2.0
loop_
 _atom_site_type_symbol
 _atom_site_label
 _atom_site_symmetry_multiplicity
 _atom_site_fract_x
 _atom_site_fract_y
 _atom_site_fract_z
 _atom_site_occupancy
  H+  H0  1  0.36604180  0.23097560  0.66513476  1
  H+  H1  1  0.87604702  0.77253018  0.65139740  1
  H+  H2  1  0.96079333  0.80138812  0.49231251  1
  H+  H3  1  0.19307063  0.33215220  0.70686926  1
  H+  H4  1  0.34860237  0.62455053  0.15640809  1
  H+  H5  1  0.71445253  0.09767407  0.18141138  1
  H+  H6  1  0.14887810  0.37477200  0.46528697  1
  H+  H7  1  0.49699382  0.88075373  0.15226542  1
  H+  H8  1  0.14796087  0.85310234  0.84453857  1
  H+  H9  1  0.60331414  0.62667420  0.34279979  1
  H+  H10  1  0.62256688  0.74697225  0.65428173  1
  H+  H11  1  0.36277983  0.73201518  0.49947812  1
  H+  H12  1  0.95548632  0.85974668  0.62977556  1
  H+  H13  1  0.02649825  0.88192454  -0.00694018  1
  H+  H14  1  1.05049532  0.93114161  0.19796540  1
  H+  H15  1  0.02147038  0.62613047  0.49538812  1
  H+  H16  1  0.46127035  0.09571743  0.84325260  1
  H+  H17  1  0.52578220  0.88586653  0.67338367  1
  H+  H18  1  0.02526613  0.64711345  0.15829591  1
  H+  H19  1  0.36599182  0.78262384  -0.01321963  1
  H+  H20  1  0.48363823  0.35392949  -0.01032401  1
  H+  H21  1  0.34351318  0.40264258  0.11719697  1
  H+  H22  1  0.88072900  0.52586739  0.50505367  1
  H+  H23  1  0.66075827  0.09116292  0.59909890  1
  H+  H24  1  0.60715078  0.13427561  0.83123160  1
  H+  H25  1  0.48261470  0.37113945  0.65202137  1
  H+  H26  1  0.57221321  0.60497142  0.81625197  1
  H+  H27  1  0.83313614  0.18516127  0.08725240  1
  H+  H28  1  0.56140636  0.63487185  0.03616825  1
  H+  H29  1  0.70043414  0.87285649  0.46740913  1
  H+  H30  1  0.65980920  0.60234745  0.98230765  1
  H+  H31  1  0.72464108  0.36116969  0.17417200  1
  H+  H32  1  0.70848137  0.85529743  0.34047357  1
  H+  H33  1  0.89048665  0.76217865  0.32106182  1
  H+  H34  1  0.71991090  0.35795871  0.32920904  1
  H+  H35  1  0.89859371  0.62338507  0.50413087  1
  H+  H36  1  1.01007154  0.39718067  0.15696023  1
  H+  H37  1  0.13702555  0.35780187  0.33638903  1
  H+  H38  1  0.66604723  0.32948676  0.23472230  1
  H+  H39  1  0.60982532  0.90496250  0.83399804  1
  H+  H40  1  0.14009328  0.85516427  0.65013653  1
  H+  H41  1  0.85732729  0.88483879  0.66942258  1
  H+  H42  1  0.62028487  0.48939972  0.66826398  1
  H+  H43  1  0.90455450  0.37086252  0.83467403  1
  H+  H44  1  0.85392842  0.12375778  0.49754630  1
  H+  H45  1  0.62808181  0.10340240  0.33318029  1
  H+  H46  1  0.53478405  0.65497431  0.65590530  1
  H+  H47  1  0.36281516  0.97384405  0.34051508  1
  H+  H48  1  0.12733439  0.99789886  0.24038641  1
  H+  H49  1  0.68313287  0.32508027  0.78756947  1
  H+  H50  1  0.09689327  0.12621864  0.67447826  1
  H+  H51  1  0.40814074  0.83946097  0.90596603  1
  H+  H52  1  0.46479843  0.17676260  1.02757105  1
  H+  H53  1  0.37616992  0.22969163  0.17126290  1
  H+  H54  1  0.38023629  0.39783569  0.66145812  1
  H+  H55  1  0.61217960  0.23073851  0.01558320  1
  H+  H56  1  0.59750859  0.96318427  0.35148522  1
  H+  H57  1  0.37390511  0.37222287  0.17650298  1
  H+  H58  1  0.38256156  0.27108142  0.32975702  1
  H+  H59  1  0.73863146  0.62375404  0.22116015  1
  H+  H60  1  0.61139950  0.22371863  0.49627337  1
  H+  H61  1  0.84369640  0.87943039  0.53490015  1
  H+  H62  1  0.38860669  1.02112068  0.50499121  1
  H+  H63  1  0.81981738  0.68628511  0.48955170  1
  H+  H64  1  0.39435271  0.49806397  0.49612839  1
  H+  H65  1  0.14318745  0.88183531  0.19498710  1
  H+  H66  1  0.63930998  0.28067517  0.66484829  1
  H+  H67  1  0.86498686  0.88427883  -0.03970527  1
  H+  H68  1  0.06061662  0.42758183  0.39538402  1
  H+  H69  1  0.55736579  0.48812169  0.17573929  1
  H+  H70  1  0.13752222  0.76858558  0.33758037  1
  H+  H71  1  0.66377893  0.09756373  0.90443327  1
  H+  H72  1  0.97754344  0.35994172  0.66273208  1
  H+  H73  1  1.00899441  0.12969352  0.66462165  1
  H+  H74  1  0.77449592  0.88300973  -0.03718422  1
  H+  H75  1  0.35285051  0.48081773  0.81769639  1
  H+  H76  1  0.94525287  0.30111993  0.00584474  1
  H+  H77  1  0.59515782  0.76943495  0.16549286  1
  H+  H78  1  0.13847949  0.16487571  0.14171839  1
  H+  H79  1  0.11143571  0.73817498  0.16446467  1
  H+  H80  1  0.88277963  1.02017624  -0.00778447  1
  H+  H81  1  0.17871304  0.09229901  1.04913057  1
  H+  H82  1  -0.03273085  0.10343470  0.01770957  1
  H+  H83  1  0.80242313  0.62593379  0.82334463  1
  H+  H84  1  0.16673408  0.08723830  0.73674402  1
  H+  H85  1  0.76005158  0.11531800  0.49885641  1
  H+  H86  1  0.56525340  0.83834311  0.70828471  1
  H+  H87  1  0.90187400  0.02267976  0.51152926  1
  H+  H88  1  0.02946852  0.38360333  0.82306860  1
  H+  H89  1  0.47160351  0.10818014  0.32926471  1
  H+  H90  1  0.09973259  0.48575413  0.15160778  1
  H+  H91  1  0.89806947  0.27951458  0.83660704  1
  H+  H92  1  0.77465665  0.14359875  0.83307655  1
  H+  H93  1  0.52109386  0.13418481  0.49484008  1
  H+  H94  1  0.10384227  0.47138358  0.33406850  1
  H+  H95  1  0.39176300  0.11948887  0.65723181  1
  H+  H96  1  0.24806712  0.62421272  0.55959619  1
  H+  H97  1  0.38308764  0.86860539  0.83497191  1
  H+  H98  1  0.41097098  0.88407549  0.49742127  1
  H+  H99  1  0.79616364  0.63480729  0.99720754  1
  H+  H100  1  0.60965715  0.38049750  0.16285129  1
  H+  H101  1  0.12473012  0.73457634  0.00687108  1
  H+  H102  1  0.14545881  0.76852181  0.65593480  1
  H+  H103  1  0.73772311  0.62826767  0.66291799  1
  H+  H104  1  0.67112918  0.65371929  0.09952956  1
  H+  H105  1  0.88112235  0.52508815  0.16587718  1
  H+  H106  1  0.11881732  0.70236426  0.49521106  1
  H+  H107  1  0.62064195  0.11787782  0.99610141  1
  H+  H108  1  0.87550180  0.02317605  0.65875703  1
  H+  H109  1  0.12633004  0.36154108  0.98988352  1
  H+  H110  1  0.88908437  0.49053183  0.82717511  1
  H+  H111  1  0.27402702  0.37924942  0.34780698  1
  H+  H112  1  0.65070958  0.63430179  0.66088499  1
  H+  H113  1  0.35584548  0.12854836  0.33984657  1
  H+  H114  1  0.13490390  0.85693519  0.33710701  1
  H+  H115  1  0.62620262  0.65582416  0.49335747  1
  H+  H116  1  0.61154341  0.22106177  0.16705742  1
  H+  H117  1  0.85685232  -0.02785560  0.20366653  1
  H+  H118  1  0.51432964  0.37525217  0.33923437  1
  H+  H119  1  0.63683986  0.62532948  0.12198259  1
  H+  H120  1  0.13770968  0.86329772  0.98942450  1
  H+  H121  1  0.27281873  0.88436566  0.34451265  1
  H+  H122  1  0.77996939  0.61718852  0.34472664  1
  H+  H123  1  0.76775700  0.20539700  0.11842146  1
  H+  H124  1  0.38481068  0.10725693  0.17820592  1
  H+  H125  1  0.35853519  0.13054353  0.49465332  1
  H+  H126  1  0.57770080  0.16197591  0.73568384  1
  H+  H127  1  0.62031969  0.39977737  0.66939711  1
  H+  H128  1  -0.02538759  0.85299905  0.32769957  1
  H+  H129  1  0.83384335  0.98036127  0.17799378  1
  H+  H130  1  0.76147730  0.38889940  0.49305225  1
  H+  H131  1  0.82506813  0.41181312  0.40208971  1
  H+  H132  1  0.71962993  0.82966012  0.17340913  1
  H+  H133  1  0.12977341  0.21188238  0.50439086  1
  H+  H134  1  0.94904562  0.58932424  0.89666941  1
  H+  H135  1  0.93360951  0.80210982  0.17159061  1
  H+  H136  1  0.64118444  0.04073940  0.99777262  1
  H+  H137  1  0.62552241  0.11053905  0.51140432  1
  H+  H138  1  0.03380043  0.63571515  0.66781199  1
  H+  H139  1  0.87744581  0.28239520  0.17183333  1
  H+  H140  1  0.89237682  0.39861859  1.01320731  1
  H+  H141  1  0.86949995  0.62034225  0.33313800  1
  H+  H142  1  0.62269088  0.35030333  0.50087046  1
  H+  H143  1  0.86339016  0.39493017  0.16278095  1
  H+  H144  1  0.27481447  0.91175854  0.98955704  1
  H+  H145  1  0.10932040  0.96831173  0.34375245  1
  H+  H146  1  0.14605752  0.51316935  0.83865125  1
  H+  H147  1  0.34836812  0.71506649  0.34843466  1
  H+  H148  1  0.13781364  0.35832993  0.83285903  1
  H+  H149  1  0.16292279  0.29867486  0.18427351  1
  H+  H150  1  0.61000081  0.73522005  0.48412191  1
  H+  H151  1  0.22812026  0.35969616  0.83442502  1
  H+  H152  1  0.84867179  0.24831332  0.51684473  1
  H+  H153  1  0.10271979  0.22932746  0.00012724  1
  H+  H154  1  0.40261221  0.62474860  0.64873548  1
  H+  H155  1  0.35154231  0.71489709  0.16002629  1
  H+  H156  1  0.25526430  0.34061000  0.52256970  1
  H+  H157  1  0.43699860  0.85112620  0.59401819  1
  H+  H158  1  0.59675561  0.44151541  0.48693160  1
  H+  H159  1  0.47120224  0.10307640  0.17892126  1
  H+  H160  1  0.04246600  0.89106944  0.83042838  1
  H+  H161  1  0.37708321  0.85261917  0.32946088  1
  H+  H162  1  0.87586954  0.13726173  1.01411560  1
  H+  H163  1  0.34519785  0.66475072  0.72687989  1
  H+  H164  1  0.73575186  0.87737108  0.64491627  1
  H+  H165  1  0.63462851  0.12851439  0.66411176  1
  H+  H166  1  0.84252636  0.42729630  0.73335069  1
  H+  H167  1  0.13606246  0.62182177  0.17353841  1
  H+  H168  1  0.11674134  0.63343924  0.34266080  1
  H+  H169  1  0.62431139  0.37646342  0.00553076  1
  H+  H170  1  0.35810868  -0.03701332  0.16850399  1
  H+  H171  1  0.61524181  0.79451884  0.83190038  1
  H+  H172  1  0.02350866  0.13442672  0.35250361  1
  H+  H173  1  0.12574044  0.09725589  0.50504563  1
  H+  H174  1  0.00795908  0.61471593  0.83502624  1
  H+  H175  1  0.39026510  1.02911204  0.65963241  1
  H+  H176  1  0.39460695  0.36905769  0.84105306  1
  H+  H177  1  0.46288752  0.84864193  0.33226829  1
  H+  H178  1  0.85504642  0.84883352  0.15569793  1
  H+  H179  1  0.21959884  0.60655042  0.32877837  1
  H+  H180  1  0.58319173  0.97225476  0.16097259  1
  H+  H181  1  0.13100886  0.39438861  0.48684366  1
  H+  H182  1  0.67019496  0.57983539  0.39815510  1
  H+  H183  1  0.37343518  0.11310759  0.00365902  1
  H+  H184  1  0.86181186  0.46792749  0.34215277  1
  H+  H185  1  0.11028837  0.96838386  0.67441864  1
  H+  H186  1  0.87191854  0.64132979  0.66598985  1
  H+  H187  1  0.49157181  0.65231562  0.00285021  1
  H+  H188  1  0.11710757  0.13162133  0.86118235  1
  H+  H189  1  0.60996426  0.22112876  0.34049522  1
  H+  H190  1  0.66771863  0.82743603  0.23624447  1
  H+  H191  1  0.89474574  0.77218252  0.97608571  1
  H+  H192  1  0.11397046  0.22270682  0.34640332  1
  H+  H193  1  0.12930959  0.60975860  -0.00830389  1
  H+  H194  1  0.37141630  0.89627278  0.66622841  1
  H+  H195  1  0.93388417  0.18526389  0.17939131  1
  H+  H196  1  0.60850911  0.12992090  0.16811480  1
  H+  H197  1  0.74960775  0.36307062  0.99211425  1
  H+  H198  1  -0.00524720  0.60864429  0.33014086  1
  H+  H199  1  0.37958280  0.87896681  -0.02132758  1
  H+  H200  1  0.69634550  0.98139371  0.05317916  1
  H+  H201  1  0.49508340  0.73880515  0.77175258  1
  H+  H202  1  0.80722291  0.16558444  -0.00694984  1
  H+  H203  1  0.62385953  0.77497015  0.99208459  1
  H+  H204  1  0.99617281  0.61643463  0.99267487  1
  H+  H205  1  0.34146039  0.42327713  0.76041255  1
  H+  H206  1  0.64671148  0.87288371  0.99611618  1
  H+  H207  1  0.72982375  0.58128237  0.20831625  1
  H+  H208  1  0.87925337  0.11100632  0.34499604  1
  H+  H209  1  0.83834221  0.42163644  0.09968558  1
  H+  H210  1  0.88351158  0.48132223  0.00392311  1
  H+  H211  1  0.63628610  0.03743267  0.84492134  1
  H+  H212  1  0.16357361  0.58336893  0.26628104  1
  H+  H213  1  0.36551698  0.13711402  0.81871088  1
  H+  H214  1  0.89644669  0.63683816  0.82143785  1
  H+  H215  1  0.37653685  0.23120411  0.82017207  1
  H+  H216  1  0.05769359  0.52763703  0.46986006  1
  H+  H217  1  0.46730191  0.34219647  0.18543177  1
  H+  H218  1  0.96962814  0.35671297  0.32763840  1
  H+  H219  1  0.73220872  0.12858821  0.66123786  1
  H+  H220  1  0.36166672  0.97118901  0.82155185  1
  H+  H221  1  0.13450681  0.71980830  0.82016555  1
  H+  H222  1  0.59525574  0.21597243  0.82803152  1
  H+  H223  1  0.36851942  0.84612561  0.17640991  1
  H+  H224  1  0.12029164  0.22792097  0.84341226  1
  H+  H225  1  0.52310797  0.13878925  0.67309437  1
  H+  H226  1  0.23211673  0.11447756  0.68331256  1
  H+  H227  1  0.26800667  0.12709889  0.49524952  1
  H+  H228  1  0.14199187  0.03192974  0.87257971  1
  H+  H229  1  0.65451292  0.51027138  0.83402570  1
  H+  H230  1  0.38337043  0.26842944  0.50418324  1
  H+  H231  1  1.02804777  0.43798390  0.49876525  1
  H+  H232  1  0.40260697  0.53530020  0.65093829  1
  H+  H233  1  0.34102829  0.91711734  0.43191257  1
  H+  H234  1  0.49178675  0.66714655  0.16562158  1
  H+  H235  1  0.52586167  0.39124045  0.82406553  1
  H+  H236  1  0.69293096  0.57539991  0.51273658  1
  H+  H237  1  0.84971647  0.38945272  0.49440186  1
  H+  H238  1  0.28505128  0.88030811  0.49274337  1
  H+  H239  1  1.05467112  0.17156642  0.16202952  1
  H+  H240  1  0.60932341  1.01508919  0.51984313  1
  H+  H241  1  0.71623998  0.10194768  0.33514557  1
  H+  H242  1  0.48688544  0.60780110  0.49840666  1
  H+  H243  1  0.29450103  0.40283390  0.65918846  1
  H+  H244  1  0.13501566  0.60600447  0.63637587  1
  H+  H245  1  0.40801053  0.52925334  0.17988695  1
  H+  H246  1  0.34797598  0.17723909  0.72774361  1
  H+  H247  1  0.92771391  0.83818755  0.23744604  1
  H+  H248  1  0.89606602  0.85244022  0.82219226  1
  H+  H249  1  0.13088332  0.09938422  0.32683618  1
  H+  H250  1  0.11915124  0.11073708  1.00909684  1
  H+  H251  1  0.55947492  0.60452804  0.84910567  1
  H+  H252  1  0.17726376  0.33531848  0.27818052  1
  H+  H253  1  0.79578039  0.40566012  0.82932147  1
  H+  H254  1  0.11338872  0.38187892  0.67004970  1
  H+  H255  1  0.40146802  0.78922766  0.65254451  1
  H+  H256  1  0.27381829  0.37020233  0.01722884  1
  H+  H257  1  0.82928620  0.97312757  0.37722936  1
  H+  H258  1  0.62497552  0.46427675  0.00509784  1
  H+  H259  1  0.86491268  0.68408597  0.42742716  1
  H+  H260  1  0.64994170  0.88051891  0.63940194  1
  H+  H261  1  0.38164055  0.04992125  0.89365775  1
  H+  H262  1  0.13640408  0.63119797  0.81963163  1
  H+  H263  1  0.02078767  0.13552116  0.84446950  1
  H+  H264  1  0.47941490  0.87799577  0.84381437  1
  H+  H265  1  0.23603103  0.85351631  0.83784910  1
  H+  H266  1  0.37219998  0.63565680  0.98472707  1
  H+  H267  1  0.90495674  0.76702624  0.82204085  1
  H+  H268  1  0.85858097  0.22727330  0.67615207  1
  H+  H269  1  0.21896627  0.61054389  0.17045274  1
  H+  H270  1  0.35631694  0.36099316  0.01452894  1
  H+  H271  1  0.89387141  0.52849103  0.65949341  1
  H+  H272  1  0.92874736  0.90314973  0.50159132  1
  H+  H273  1  0.27901246  0.88876412  0.66795861  1
  H+  H274  1  0.10576932  -0.04011023  0.49828445  1
  H+  H275  1  0.34815824  0.62662330  0.34995532  1
  H+  H276  1  0.86703943  0.39070877  0.67573144  1
  H+  H277  1  0.26706372  0.87912245  0.17039942  1
  H+  H278  1  0.38564309  0.38631475  0.49086958  1
  H+  H279  1  0.25821150  0.64022488  0.00447584  1
  H+  H280  1  0.76630679  0.89167318  0.82705447  1
  H+  H281  1  0.89377337  0.03611949  0.83769644  1
  H+  H282  1  0.85539792  0.22146818  0.34456131  1
  H+  H283  1  0.90736001  0.61481443  -0.01528556  1
  H+  H284  1  0.83869828  0.91794203  0.87311520  1
  H+  H285  1  0.88415947  0.65320822  0.14736061  1
  H+  H286  1  0.37761358  0.51514572  0.33089416  1
  H+  H287  1  0.46416589  0.60529590  0.33157795  1
  H+  H288  1  0.42339191  0.33747209  0.59180976  1
  H+  H289  1  0.11922120  0.51588393  0.99166114  1
  H+  H290  1  0.82971655  0.91530300  0.73008415  1
  H+  H291  1  0.42242075  0.57677538  0.55764291  1
  H+  H292  1  0.25128109  0.13374980  0.13786362  1
  H+  H293  1  0.11036527  0.46840442  0.65799364  1
  H+  H294  1  0.17161874  0.82761745  0.93386299  1
  H+  H295  1  0.87888063  0.35402772  0.33066072  1
  H+  H296  1  0.67193715  0.60488106  0.83941921  1
  H+  H297  1  0.92896732  0.82746691  0.91505251  1
  H+  H298  1  0.41159529  0.32103448  0.26342380  1
  H+  H299  1  0.92298738  0.58638323  0.59925863  1
  H+  H300  1  0.15862455  1.05266216  0.15034941  1
  H+  H301  1  0.30681957  0.65909460  0.45280861  1
  H+  H302  1  0.81583589  0.68393729  0.14107784  1
  H+  H303  1  0.56892592  0.38978023  0.40258843  1
  H+  H304  1  0.25556260  0.37658621  0.19475841  1
  H+  H305  1  0.32388421  0.15623481  0.39887755  1
  H+  H306  1  0.40336682  0.60999027  0.92402813  1
  H+  H307  1  0.62873041  0.35492237  0.32814998  1
  H+  H308  1  0.21920353  0.09906022  0.32617486  1
  H+  H309  1  0.90718169  0.06846602  0.29408473  1
  H+  H310  1  0.89607624  0.12584549  0.83885238  1
  H+  H311  1  0.41332768  0.58413745  0.23818368  1
  H+  H312  1  0.05666078  0.41343351  0.06858393  1
  H+  H313  1  0.66249433  0.33271483  0.56358247  1
  H+  H314  1  0.08638310  0.18617381  0.06536590  1
  H+  H315  1  0.17771102  0.82213378  0.56262008  1
  H+  H316  1  0.08985914  0.16370817  0.43954891  1
  H+  H317  1  0.57855028  0.40294308  0.10146123  1
  H+  H318  1  0.48274007  0.34918532  0.49837378  1
  H+  H319  1  0.90553447  0.32545615  0.60912798  1
  H+  H320  1  0.59632118  0.87465382  0.35088093  1
  H+  H321  1  0.65882164  0.07164104  0.24313949  1
  H+  H322  1  0.63708341  0.36590431  0.82306682  1
  H+  H323  1  0.59842912  0.93306182  0.07299282  1
  H+  H324  1  0.53924908  0.70909281  0.09909290  1
  H+  H325  1  0.98062572  0.11697588  0.50876071  1
  H+  H326  1  0.41755124  0.08200842  0.56435883  1
  H+  H327  1  0.57860911  0.93010789  0.77358579  1
  H+  H328  1  0.44437317  0.63058115  0.82104700  1
  H+  H329  1  0.90571623  0.08272472  0.59870189  1
  H+  H330  1  0.62559036  0.76492998  0.32759709  1
  H+  H331  1  0.08995295  0.41686093  0.76333518  1
  H+  H332  1  0.68752304  0.32629808  0.93469566  1
  H+  H333  1  0.12844105  0.94710308  0.79253400  1
  H+  H334  1  0.58236765  0.42234674  0.76112324  1
  H+  H335  1  0.90875312  0.58865025  0.22356036  1
  H+  H336  1  0.36434595  0.37985153  0.33949079  1
  H+  H337  1  0.08287572  0.65570518  0.40491218  1
  H+  H338  1  0.40274435  0.81496528  0.23302543  1
  H+  H339  1  0.56136061  0.53502493  0.23561442  1
  H+  H340  1  0.82348349  0.16279650  0.40535586  1
  H+  H341  1  0.15545877  0.06834740  0.56398098  1
  H+  H342  1  0.86436827  0.68124611  0.05119091  1
  H+  H343  1  0.90814045  0.33188686  0.23660575  1
  H+  H344  1  0.65216411  0.83867461  0.89750570  1
  H+  H345  1  0.42439403  0.33319613  0.89823027  1
  H+  H346  1  0.73030132  0.36845980  0.66311698  1
  H+  H347  1  0.04533757  0.87878155  0.70331659  1
  H+  H348  1  0.12629890  0.25772089  0.66648434  1
  H+  H349  1  0.14332778  0.84558303  0.50381141  1
  H+  H350  1  0.33654771  0.91099495  0.76107592  1
  H+  H351  1  0.82318493  0.90436645  0.42391974  1
  H+  H352  1  0.10041040  0.65973096  0.72308418  1
  H+  H353  1  0.53545492  0.89715848  0.44935230  1
  H+  H354  1  0.57497456  0.16836511  0.07330680  1
  H+  H355  1  0.41210694  0.07694588  0.26952510  1
  H+  H356  1  0.85062622  0.13372283  0.67108777  1
  H+  H357  1  0.62966531  0.50309691  0.35161174  1
  H+  H358  1  0.19890194  0.31054984  0.58247964  1
  H+  H359  1  0.28236988  0.60659950  0.83056117  1
  H+  H360  1  0.16865154  0.09163514  0.93127361  1
  H+  H361  1  0.30401489  0.65179262  0.66000964  1
  H+  H362  1  0.32038577  0.67223033  0.06249057  1
  H+  H363  1  0.37343244  0.17673094  0.10683331  1
  H+  H364  1  0.84938726  0.66953174  0.72826415  1
  H+  H365  1  0.55553015  0.70573354  0.74413474  1
  H+  H366  1  0.09337067  0.67652254  0.06745633  1
  H+  H367  1  0.79281793  0.27764706  0.55240172  1
  H+  H368  1  0.67315493  0.85150818  0.53753910  1
  H+  H369  1  0.90974580  0.08984749  0.18087033  1
  H+  H370  1  0.40845733  0.25964611  0.98895647  1
  H+  H371  1  0.07640237  0.90653112  0.40266768  1
  H+  H372  1  0.58093654  0.16315575  0.40081898  1
  H+  H373  1  0.16429118  0.33793385  0.93214204  1
  H+  H374  1  0.34775411  0.41557856  0.43139974  1
  H+  H375  1  0.69917928  0.62687737  0.57097368  1
  H+  H376  1  0.81999523  0.87728881  0.09979673  1
  H+  H377  1  0.57591954  0.66222790  0.39868385  1
  H+  H378  1  0.17215576  0.57388478  0.89800189  1
  H+  H379  1  0.16291240  0.83083737  0.24456398  1
  H+  H380  1  0.11020035  0.96994951  0.00861941  1
  H+  H381  1  0.69054511  0.56749458  0.92761883  1
  H+  H382  1  0.95713473  0.53906525  0.27887452  1
  H+  H383  1  0.82704178  0.16568054  0.77093044  1
  O2-  O384  1  0.10928308  0.20020927  0.13933993  1
  O2-  O385  1  0.08569358  0.15650765  0.48513463  1
  O2-  O386  1  0.08772947  0.16243724  0.83797515  1
  O2-  O387  1  0.06404289  0.42764247  0.13312642  1
  O2-  O388  1  0.02766062  0.46568347  0.46074144  1
  O2-  O389  1  0.09205881  0.41295488  0.80828578  1
  O2-  O390  1  0.08666055  0.67910765  0.14649533  1
  O2-  O391  1  0.07968904  0.64432828  0.47833477  1
  O2-  O392  1  0.10588112  0.66034671  0.80255420  1
  O2-  O393  1  0.11437540  0.96598609  0.20152269  1
  O2-  O394  1  0.07868711  0.89885368  0.48210479  1
  O2-  O395  1  0.10675975  0.92514600  0.83304501  1
  O2-  O396  1  0.35074644  0.16794604  0.14884814  1
  O2-  O397  1  0.32776864  0.16066927  0.48012991  1
  O2-  O398  1  0.34710121  0.17504084  0.79908247  1
  O2-  O399  1  0.35265087  0.41267527  0.16175817  1
  O2-  O400  1  0.35604852  0.42064901  0.47787210  1
  O2-  O401  1  0.33405202  0.42090163  0.80529411  1
  O2-  O402  1  0.31968802  0.65557647  0.14112805  1
  O2-  O403  1  0.31294271  0.67373856  0.49658808  1
  O2-  O404  1  0.33973565  0.63177403  0.80862342  1
  O2-  O405  1  0.32663134  0.90183253  0.15571147  1
  O2-  O406  1  0.34529185  0.91725698  0.47795526  1
  O2-  O407  1  0.33609584  0.90888898  0.80671662  1
  O2-  O408  1  0.58026638  0.16089025  0.15099546  1
  O2-  O409  1  0.58282927  0.16246122  0.48150750  1
  O2-  O410  1  0.56975991  0.15627895  0.81321116  1
  O2-  O411  1  0.57653830  0.40651328  0.14626686  1
  O2-  O412  1  0.56906262  0.38193000  0.47394860  1
  O2-  O413  1  0.58624794  0.41895002  0.80656820  1
  O2-  O414  1  0.53297479  0.72332066  0.14252812  1
  O2-  O415  1  0.58458090  0.67087675  0.47591233  1
  O2-  O416  1  0.53319761  0.71719394  0.78329099  1
  O2-  O417  1  0.55174278  0.92391077  0.13255487  1
  O2-  O418  1  0.53347776  0.91056132  0.49339387  1
  O2-  O419  1  0.57711162  0.93370482  0.81875064  1
  O2-  O420  1  0.81070102  0.18947707  0.12898689  1
  O2-  O421  1  0.82020893  0.15178308  0.48477484  1
  O2-  O422  1  0.83387033  0.16917423  0.81572481  1
  O2-  O423  1  0.83313481  0.42406643  0.14490191  1
  O2-  O424  1  0.82309893  0.42177499  0.47794371  1
  O2-  O425  1  0.85292371  0.43027295  0.81052384  1
  O2-  O426  1  0.87292410  0.69714728  0.12756333  1
  O2-  O427  1  0.87534170  0.69880197  0.47166353  1
  O2-  O428  1  0.86084933  0.66207761  0.80604874  1
  O2-  O429  1  0.80164705  0.83465089  0.13209656  1
  O2-  O430  1  0.87993051  0.91489380  0.50156584  1
  O2-  O431  1  0.82976991  0.91602870  0.82753593  1
  O2-  O432  1  0.18782959  0.10775434  0.12738156  1
  O2-  O433  1  0.15459080  0.06393208  0.51978901  1
  O2-  O434  1  0.16230261  0.09139988  0.88599304  1
  O2-  O435  1  0.19459866  0.35086394  0.20949959  1
  O2-  O436  1  0.21209399  0.28985031  0.54504721  1
  O2-  O437  1  0.16818514  0.32853457  0.85041720  1
  O2-  O438  1  0.15933628  0.58478270  0.18781082  1
  O2-  O439  1  0.23555044  0.60261267  0.60284746  1
  O2-  O440  1  0.18161511  0.57426415  0.85308132  1
  O2-  O441  1  0.15907863  0.83647372  0.19951555  1
  O2-  O442  1  0.17741225  0.81915276  0.51706214  1
  O2-  O443  1  0.17592651  0.81884510  0.85383252  1
  O2-  O444  1  0.41149802  0.07316769  0.19489088  1
  O2-  O445  1  0.41702256  0.08238333  0.51890690  1
  O2-  O446  1  0.39803545  0.06335822  0.84826012  1
  O2-  O447  1  0.40800003  0.31025952  0.20073586  1
  O2-  O448  1  0.42062034  0.32978706  0.51641680  1
  O2-  O449  1  0.42798719  0.34106688  0.85254279  1
  O2-  O450  1  0.41687448  0.58656397  0.19272491  1
  O2-  O451  1  0.42525625  0.56888949  0.51221453  1
  O2-  O452  1  0.38570055  0.59249359  0.83839182  1
  O2-  O453  1  0.39935349  0.81328229  0.18787266  1
  O2-  O454  1  0.44391118  0.85495167  0.51332442  1
  O2-  O455  1  0.41653566  0.84203019  0.85576193  1
  O2-  O456  1  0.65587320  0.07273732  0.19742563  1
  O2-  O457  1  0.65054594  0.07602928  0.53069758  1
  O2-  O458  1  0.66809687  0.09864595  0.85840972  1
  O2-  O459  1  0.66461898  0.32720887  0.18914181  1
  O2-  O460  1  0.66275153  0.32757129  0.51874828  1
  O2-  O461  1  0.67098107  0.33540160  0.82903744  1
  O2-  O462  1  0.55306795  0.53722311  0.19216665  1
  O2-  O463  1  0.70760395  0.63317507  0.52519560  1
  O2-  O464  1  0.69611459  0.56917126  0.85197179  1
  O2-  O465  1  0.66698181  0.82757414  0.19075832  1
  O2-  O466  1  0.65376108  0.83532855  0.49509767  1
  O2-  O467  1  0.65569249  0.84938148  0.85229950  1
  O2-  O468  1  0.95068803  0.14628320  0.19747304  1
  O2-  O469  1  0.91877819  0.08316775  0.52151895  1
  O2-  O470  1  0.92804899  0.09621560  0.85172568  1
  O2-  O471  1  0.90946047  0.33998473  0.19125922  1
  O2-  O472  1  0.85171407  0.29916037  0.53859027  1
  O2-  O473  1  0.93521841  0.34077501  0.84778400  1
  O2-  O474  1  0.91231315  0.58771805  0.17895603  1
  O2-  O475  1  0.91817546  0.58499898  0.52174641  1
  O2-  O476  1  0.94746809  0.58918124  0.85091274  1
  O2-  O477  1  0.94113756  0.85404669  0.19247725  1
  O2-  O478  1  0.99439892  0.85905512  0.51241089  1
  O2-  O479  1  0.93341901  0.82933863  0.83424531  1
  O2-  O480  1  0.15730727  0.06508437  0.31334027  1
  O2-  O481  1  0.16833704  0.07871956  0.69296726  1
  O2-  O482  1  0.15380302  0.08109406  1.00711851  1
  O2-  O483  1  0.16838927  0.32778745  0.32484468  1
  O2-  O484  1  0.16865892  0.32375191  0.66604834  1
  O2-  O485  1  0.15898155  0.33335069  0.97706739  1
  O2-  O486  1  0.15954044  0.57902367  0.31176369  1
  O2-  O487  1  0.14247660  0.56257332  0.61197088  1
  O2-  O488  1  0.15514066  0.57533664  0.97582791  1
  O2-  O489  1  0.16794236  0.82904712  0.32240453  1
  O2-  O490  1  0.17596255  0.82910595  0.64018951  1
  O2-  O491  1  0.17232966  0.83388312  0.97886668  1
  O2-  O492  1  0.41059480  0.07686729  0.31562062  1
  O2-  O493  1  0.42356750  0.08943325  0.64399539  1
  O2-  O494  1  0.34003253  0.02705755  0.95791936  1
  O2-  O495  1  0.41417930  0.33033430  0.31331131  1
  O2-  O496  1  0.42186924  0.34063359  0.63776279  1
  O2-  O497  1  0.42412130  0.31822556  0.97392632  1
  O2-  O498  1  0.40348348  0.57632372  0.31734887  1
  O2-  O499  1  0.43103235  0.59364579  0.63153095  1
  O2-  O500  1  0.40915931  0.61291304  0.96855032  1
  O2-  O501  1  0.40318353  0.81763057  0.31582668  1
  O2-  O502  1  0.43168533  0.85034830  0.63936329  1
  O2-  O503  1  0.40103506  0.83993346  0.96657570  1
  O2-  O504  1  0.65590552  0.06948952  0.31997644  1
  O2-  O505  1  0.66853811  0.10072847  0.64591878  1
  O2-  O506  1  0.65920398  0.09764970  0.97924646  1
  O2-  O507  1  0.66043735  0.32566343  0.31261162  1
  O2-  O508  1  0.66907111  0.34048246  0.64917389  1
  O2-  O509  1  0.68801098  0.33266350  0.97880910  1
  O2-  O510  1  0.66688360  0.56919039  0.35451260  1
  O2-  O511  1  0.67862101  0.60260432  0.64454372  1
  O2-  O512  1  0.68958228  0.57084205  0.97335625  1
  O2-  O513  1  0.65544068  0.82656615  0.31526863  1
  O2-  O514  1  0.67974727  0.85141646  0.62259218  1
  O2-  O515  1  0.65998298  0.83251246  0.97321099  1
  O2-  O516  1  0.90743840  0.07518061  0.33819405  1
  O2-  O517  1  0.90220314  0.08384776  0.64427330  1
  O2-  O518  1  0.90307546  0.06897342  1.02091903  1
  O2-  O519  1  0.90778917  0.32337330  0.31367107  1
  O2-  O520  1  0.91405832  0.32986308  0.65399563  1
  O2-  O521  1  0.96867224  0.36364080  0.99882045  1
  O2-  O522  1  0.93859766  0.56951577  0.30627914  1
  O2-  O523  1  0.92573731  0.58923929  0.64482698  1
  O2-  O524  1  0.93738517  0.58256529  0.97348093  1
  O2-  O525  1  0.91657890  0.82281915  0.30861492  1
  O2-  O526  1  0.89257082  0.82936926  0.63273054  1
  O2-  O527  1  0.92119182  0.83185379  0.95938605  1
  O2-  O528  1  0.07357655  0.17198988  0.02086201  1
  O2-  O529  1  0.08557379  0.16208945  0.36248960  1
  O2-  O530  1  0.07037600  0.16247944  0.67741988  1
  O2-  O531  1  0.05862380  0.40541525  0.02015503  1
  O2-  O532  1  0.07098477  0.41344054  0.35357349  1
  O2-  O533  1  0.08285028  0.41338094  0.68118179  1
  O2-  O534  1  0.09342323  0.67331146  0.02207339  1
  O2-  O535  1  0.08431011  0.66171486  0.35896758  1
  O2-  O536  1  0.09634777  0.66236076  0.67774016  1
  O2-  O537  1  0.08424880  0.90648100  0.01143661  1
  O2-  O538  1  0.07875673  0.90641004  0.35759927  1
  O2-  O539  1  0.07568485  0.90541918  0.66568880  1
  O2-  O540  1  0.40673074  0.17001766  0.02566804  1
  O2-  O541  1  0.32228683  0.15617538  0.35362477  1
  O2-  O542  1  0.33883341  0.17140848  0.68155998  1
  O2-  O543  1  0.33036744  0.39066886  0.03594042  1
  O2-  O544  1  0.33643687  0.41101459  0.35963474  1
  O2-  O545  1  0.35242051  0.43159607  0.67701187  1
  O2-  O546  1  0.31885347  0.67959141  0.01741917  1
  O2-  O547  1  0.31595906  0.65498915  0.36469584  1
  O2-  O548  1  0.35898834  0.68219240  0.68375601  1
  O2-  O549  1  0.33848897  0.95394080  -0.01155314  1
  O2-  O550  1  0.33445195  0.91392884  0.35769223  1
  O2-  O551  1  0.33908760  0.92274842  0.68407349  1
  O2-  O552  1  0.56907291  0.17193169  0.02827465  1
  O2-  O553  1  0.57975602  0.16034686  0.35549897  1
  O2-  O554  1  0.58363110  0.16802139  0.69005957  1
  O2-  O555  1  0.59095041  0.40401060  0.01883056  1
  O2-  O556  1  0.57482512  0.40199643  0.35649776  1
  O2-  O557  1  0.58837861  0.42910278  0.68331824  1
  O2-  O558  1  0.54778968  0.68022303  0.02909675  1
  O2-  O559  1  0.57290499  0.65810894  0.35317780  1
  O2-  O560  1  0.59145350  0.69115367  0.67680900  1
  O2-  O561  1  0.63893527  0.94967729  0.03557833  1
  O2-  O562  1  0.56534024  0.90322228  0.36741533  1
  O2-  O563  1  0.57877277  0.89611445  0.69651414  1
  O2-  O564  1  0.86025399  0.18526756  0.01647352  1
  O2-  O565  1  0.82440727  0.16082017  0.36004479  1
  O2-  O566  1  0.82076396  0.16467815  0.68699907  1
  O2-  O567  1  0.85301537  0.42141755  0.02109146  1
  O2-  O568  1  0.82643528  0.40797981  0.35646801  1
  O2-  O569  1  0.83683460  0.42238711  0.68789844  1
  O2-  O570  1  0.85836680  0.67217298  0.00602645  1
  O2-  O571  1  0.84335598  0.65176438  0.35116735  1
  O2-  O572  1  0.84208978  0.67130187  0.68333898  1
  O2-  O573  1  0.83557941  0.91766498  -0.05000438  1
  O2-  O574  1  0.78827029  0.91698806  0.39586013  1
  O2-  O575  1  0.83018613  0.91867598  0.68558383  1
