# generated using pymatgen
data_H2O
_symmetry_space_group_name_H-M   'P 1'
_cell_length_a   17.98035820
_cell_length_b   17.97549697
_cell_length_c   21.97923243
_cell_angle_alpha   89.99430250
_cell_angle_beta   89.99501540
_cell_angle_gamma   119.99480831
_symmetry_Int_Tables_number   1
_chemical_formula_structural   H2O
_chemical_formula_sum   'H384 O192'
_cell_volume   6152.40772931
_cell_formula_units_Z   192
loop_
 _symmetry_equiv_pos_site_id
 _symmetry_equiv_pos_as_xyz
  1  'x, y, z'
loop_
 _atom_type_symbol
 _atom_type_oxidation_number
  H+  1.0
  O2-  -2.0
loop_
 _atom_site_type_symbol
 _atom_site_label
 _atom_site_symmetry_multiplicity
 _atom_site_fract_x
 _atom_site_fract_y
 _atom_site_fract_z
 _atom_site_occupancy
  H+  H0  1  0.90422373  0.57549315  0.27115027  1
  H+  H1  1  0.91357922  0.12914481  0.32867196  1
  H+  H2  1  0.62742419  0.61136539  0.99938241  1
  H+  H3  1  0.86807542  0.48823338  0.65583453  1
  H+  H4  1  0.10592562  0.88010539  0.01027615  1
  H+  H5  1  0.82313311  0.36697742  -0.01873292  1
  H+  H6  1  0.63220857  0.35721593  0.82259294  1
  H+  H7  1  0.84177312  -0.08483895  0.73116238  1
  H+  H8  1  0.87594036  0.60655635  0.50237676  1
  H+  H9  1  0.47821567  0.87450820  0.51794413  1
  H+  H10  1  0.78353462  0.88570179  0.15202671  1
  H+  H11  1  0.64036969  0.86326272  0.51249002  1
  H+  H12  1  0.37301731  0.73682478  0.01464669  1
  H+  H13  1  0.65145782  0.30334142  0.16490155  1
  H+  H14  1  0.88573343  0.52234447  0.50501980  1
  H+  H15  1  0.14586614  0.25602571  0.69290589  1
  H+  H16  1  0.87493222  0.19244206  0.40816281  1
  H+  H17  1  0.79847876  0.89850829  -0.02738462  1
  H+  H18  1  0.74724770  0.38731310  0.16469338  1
  H+  H19  1  0.88146414  0.77308251  0.33367661  1
  H+  H20  1  0.03356791  0.64872359  0.82191564  1
  H+  H21  1  0.86332018  0.14062872  -0.00248233  1
  H+  H22  1  0.62385996  0.51488977  0.50751395  1
  H+  H23  1  0.37602035  0.03394382  0.85147327  1
  H+  H24  1  0.72680889  0.10276657  0.84690310  1
  H+  H25  1  0.27258193  0.88884394  0.50181644  1
  H+  H26  1  0.14630566  0.53051197  0.33312071  1
  H+  H27  1  0.38233010  0.52454073  0.99663098  1
  H+  H28  1  0.89035236  0.53207150  0.82789573  1
  H+  H29  1  0.62280772  0.63845774  0.68255802  1
  H+  H30  1  0.08863938  0.41711223  0.39899974  1
  H+  H31  1  0.14766345  0.39997655  0.00736979  1
  H+  H32  1  0.87252355  0.97238342  0.15453541  1
  H+  H33  1  0.71907224  0.37393590  0.32497461  1
  H+  H34  1  0.63006563  0.14116962  0.82632807  1
  H+  H35  1  0.21398966  0.85852026  0.99042113  1
  H+  H36  1  0.38491695  0.35654417  0.50477036  1
  H+  H37  1  0.14009603  0.26976396  0.32649355  1
  H+  H38  1  0.47628993  0.85379738  0.33668535  1
  H+  H39  1  0.88281234  0.90336753  -0.00106181  1
  H+  H40  1  0.11295198  0.97843273  0.34034147  1
  H+  H41  1  0.77525871  0.14031202  0.49565186  1
  H+  H42  1  0.86268162  0.13091887  0.82314658  1
  H+  H43  1  0.36916415  0.70534701  0.67220392  1
  H+  H44  1  0.29771068  0.26874580  0.62506726  1
  H+  H45  1  0.87267760  0.64705552  0.81932242  1
  H+  H46  1  0.36396719  0.65132997  0.37049203  1
  H+  H47  1  0.34960031  0.37620544  0.68281762  1
  H+  H48  1  0.11688744  0.22853619  0.48924589  1
  H+  H49  1  0.11552256  0.38001538  0.49114022  1
  H+  H50  1  -0.03541976  0.61002632  0.33022297  1
  H+  H51  1  0.82940965  0.16098365  0.72986509  1
  H+  H52  1  0.13624938  0.26770957  0.84231166  1
  H+  H53  1  0.22337105  0.11028388  0.85396721  1
  H+  H54  1  0.10895156  0.65116041  0.16001735  1
  H+  H55  1  1.00696098  0.20653004  0.63185905  1
  H+  H56  1  0.75643300  0.59235364  -0.01633791  1
  H+  H57  1  0.59298885  0.13038001  1.01214860  1
  H+  H58  1  0.35754713  0.61359510  0.15774099  1
  H+  H59  1  0.01717712  0.64510813  0.48637445  1
  H+  H60  1  0.27427590  0.15194526  0.18878822  1
  H+  H61  1  0.58523908  0.21489730  0.99914062  1
  H+  H62  1  0.47873447  0.77030111  0.62165041  1
  H+  H63  1  0.60069254  0.48180938  0.33288209  1
  H+  H64  1  0.10863003  0.38565177  0.83157170  1
  H+  H65  1  0.28064929  0.65107266  0.00807070  1
  H+  H66  1  0.22695809  0.61956819  0.17875333  1
  H+  H67  1  0.47733065  0.12789464  0.18272005  1
  H+  H68  1  0.65971455  0.08976338  0.08927295  1
  H+  H69  1  0.62397657  0.40095828  0.15792773  1
  H+  H70  1  0.11695341  -0.00947138  0.48736544  1
  H+  H71  1  0.89084716  0.61397116  -0.00919686  1
  H+  H72  1  0.97476067  0.45940556  0.28963817  1
  H+  H73  1  0.13562778  0.61866311  0.83927453  1
  H+  H74  1  0.10757633  0.76362217  0.30959186  1
  H+  H75  1  0.60579260  0.72331564  0.49161695  1
  H+  H76  1  0.62636949  0.52319804  0.16596123  1
  H+  H77  1  0.11269205  0.14274932  0.00588065  1
  H+  H78  1  0.89439352  0.77938455  0.65252199  1
  H+  H79  1  0.61163005  0.25117204  0.67305672  1
  H+  H80  1  0.10894876  0.24003363  0.15246512  1
  H+  H81  1  0.72379088  0.85410044  0.81884341  1
  H+  H82  1  0.36507210  0.73901425  0.35650164  1
  H+  H83  1  0.36062115  0.50871144  0.84406075  1
  H+  H84  1  0.38828863  0.87381073  0.52528858  1
  H+  H85  1  0.51547287  0.12817849  0.51331033  1
  H+  H86  1  0.64903170  0.26642381  0.82123093  1
  H+  H87  1  0.08950043  0.08765049  0.69342238  1
  H+  H88  1  0.37073379  0.21748331  0.33901722  1
  H+  H89  1  0.88472766  0.86457927  0.33233410  1
  H+  H90  1  0.14828556  0.37948509  0.17877342  1
  H+  H91  1  0.16895394  0.84678478  0.56688219  1
  H+  H92  1  0.58256977  0.93693335  0.16596131  1
  H+  H93  1  0.85711554  0.25586684  0.97765248  1
  H+  H94  1  0.87374032  0.51936755  -0.02002697  1
  H+  H95  1  0.86190227  0.39132151  0.80705655  1
  H+  H96  1  0.88216685  0.60891533  0.65302056  1
  H+  H97  1  0.60466294  0.89170748  0.01317003  1
  H+  H98  1  0.88874029  0.11612661  0.16778059  1
  H+  H99  1  0.98357068  0.12186524  0.49960604  1
  H+  H100  1  0.60113906  0.12381326  0.66851929  1
  H+  H101  1  0.13826062  1.01628289  0.84679560  1
  H+  H102  1  0.78026869  0.89574643  0.49955325  1
  H+  H103  1  0.14278318  0.11605455  0.49392756  1
  H+  H104  1  0.89350851  0.77884446  0.83820570  1
  H+  H105  1  0.27092116  0.15465112  0.02868952  1
  H+  H106  1  0.64332764  0.77040661  0.16940132  1
  H+  H107  1  0.71982890  0.78336774  0.41732734  1
  H+  H108  1  0.14210293  0.36081383  0.32907510  1
  H+  H109  1  0.47077817  0.60731912  0.50802346  1
  H+  H110  1  0.37519705  0.57303463  0.30215035  1
  H+  H111  1  0.21666680  0.05084819  0.18621015  1
  H+  H112  1  0.60474721  0.73261813  0.00421527  1
  H+  H113  1  0.50682046  0.65641884  1.01061667  1
  H+  H114  1  -0.01023389  0.12221246  0.66558940  1
  H+  H115  1  0.61263816  0.87527807  0.34502248  1
  H+  H116  1  -0.03188827  0.30983184  0.07108294  1
  H+  H117  1  0.12478018  0.13684833  0.33785194  1
  H+  H118  1  0.27559814  0.37508053  0.33807392  1
  H+  H119  1  0.22870135  0.60170438  0.66010549  1
  H+  H120  1  0.88141730  0.51222942  0.17760002  1
  H+  H121  1  0.64416430  0.76827273  0.31852864  1
  H+  H122  1  0.15664170  0.53809345  -0.00568513  1
  H+  H123  1  0.73793841  0.34811461  0.52424103  1
  H+  H124  1  0.83628726  0.92718026  0.40100992  1
  H+  H125  1  0.13411863  0.87776360  0.83254820  1
  H+  H126  1  0.91214575  0.08658225  0.89627225  1
  H+  H127  1  0.32143856  0.66427840  0.45663751  1
  H+  H128  1  0.61392352  0.72185917  0.78043954  1
  H+  H129  1  0.77815000  0.89344336  0.34067932  1
  H+  H130  1  0.03884320  0.40313547  0.33536811  1
  H+  H131  1  0.13868861  1.02485182  0.01215356  1
  H+  H132  1  0.86575139  0.14083698  0.49772402  1
  H+  H133  1  0.62949067  0.52237652  0.66265853  1
  H+  H134  1  0.16673457  0.27969697  0.72171855  1
  H+  H135  1  0.23048824  0.11098909  0.49525765  1
  H+  H136  1  0.37068523  1.11792838  0.01414175  1
  H+  H137  1  0.39254153  0.50556074  0.16441727  1
  H+  H138  1  0.35780236  0.13962338  0.84220926  1
  H+  H139  1  0.07593173  0.92003705  0.43010551  1
  H+  H140  1  0.35447861  0.90330360  0.81028314  1
  H+  H141  1  0.76357110  0.63905117  0.33452439  1
  H+  H142  1  0.37005366  0.12761175  0.34346274  1
  H+  H143  1  0.36729464  0.22104613  0.49402643  1
  H+  H144  1  0.61960692  0.17274004  0.14906042  1
  H+  H145  1  0.50657365  0.11616051  0.67889528  1
  H+  H146  1  0.26617082  0.90242440  0.81991609  1
  H+  H147  1  0.51728008  0.11418385  0.35089633  1
  H+  H148  1  0.84705376  0.61933748  0.16855345  1
  H+  H149  1  0.59397083  0.58353384  -0.02347599  1
  H+  H150  1  0.87221017  0.15142260  0.66869039  1
  H+  H151  1  0.63736086  0.85495484  0.16652966  1
  H+  H152  1  0.37873600  0.47731114  0.68133923  1
  H+  H153  1  0.43159791  0.82010899  0.60052200  1
  H+  H154  1  0.12441666  0.49596553  0.16944942  1
  H+  H155  1  0.89691884  1.03598630  -0.02004631  1
  H+  H156  1  0.02525977  0.38062344  0.49346436  1
  H+  H157  1  0.85698807  0.39318072  0.34282660  1
  H+  H158  1  0.37542937  0.39547006  1.00515169  1
  H+  H159  1  0.24762098  0.90609303  0.65419214  1
  H+  H160  1  0.52126247  0.37150184  0.82977921  1
  H+  H161  1  0.88806023  0.24174458  0.34636150  1
  H+  H162  1  0.36263986  0.60740092  0.84517088  1
  H+  H163  1  0.13682832  0.87206670  0.50677675  1
  H+  H164  1  0.59968158  0.33909627  -0.01289625  1
  H+  H165  1  1.03813158  0.89949730  0.82801542  1
  H+  H166  1  0.67961400  0.33676433  0.70482492  1
  H+  H167  1  0.75897283  0.62072439  0.49463811  1
  H+  H168  1  0.48774386  0.87672641  1.00929601  1
  H+  H169  1  0.65029255  0.06898537  0.16015883  1
  H+  H170  1  0.17083824  0.59827292  0.23941303  1
  H+  H171  1  0.79014476  0.16032193  0.14102170  1
  H+  H172  1  0.63189388  0.89603932  0.67847971  1
  H+  H173  1  0.01839540  0.38743822  0.67655236  1
  H+  H174  1  0.11344725  0.12653518  0.84508083  1
  H+  H175  1  0.35891988  0.23003871  0.83746176  1
  H+  H176  1  0.88039403  0.24368820  0.15482401  1
  H+  H177  1  0.88373372  0.27535454  0.66104840  1
  H+  H178  1  0.12227989  0.69672559  0.73390805  1
  H+  H179  1  0.14709843  0.27843077  0.99203511  1
  H+  H180  1  0.85750705  0.21793877  0.81809438  1
  H+  H181  1  0.84808736  0.71028548  0.16832824  1
  H+  H182  1  0.58919506  0.37209394  0.67368410  1
  H+  H183  1  0.61053021  0.21249641  0.51133688  1
  H+  H184  1  0.34908825  0.24168297  0.66867290  1
  H+  H185  1  0.48262343  0.60822286  0.32579916  1
  H+  H186  1  0.01918880  0.89140172  0.34068281  1
  H+  H187  1  0.57165100  0.18987029  0.09814400  1
  H+  H188  1  0.27128649  0.38252042  0.15922822  1
  H+  H189  1  -0.01401404  0.86538704  0.66309093  1
  H+  H190  1  0.24268256  0.40516313  0.65456654  1
  H+  H191  1  0.36584066  0.88724165  0.35074528  1
  H+  H192  1  0.52559210  0.38215130  0.15742909  1
  H+  H193  1  0.77407752  0.64121822  0.66843717  1
  H+  H194  1  0.89293498  0.37836187  0.16873145  1
  H+  H195  1  1.00465989  0.89501490  0.50072136  1
  H+  H196  1  0.62561539  0.09075932  0.36592442  1
  H+  H197  1  0.87471757  0.84655034  0.17868504  1
  H+  H198  1  0.61005259  0.96679768  0.83331676  1
  H+  H199  1  0.50601762  0.38131149  0.67048165  1
  H+  H200  1  0.74571591  0.76619680  0.43200558  1
  H+  H201  1  0.38286030  0.10848177  0.52312386  1
  H+  H202  1  0.66055221  0.78866598  0.66927180  1
  H+  H203  1  0.39149326  0.37043896  0.84596300  1
  H+  H204  1  0.35440948  0.12553949  0.69088140  1
  H+  H205  1  0.39315902  0.60114908  0.66694237  1
  H+  H206  1  0.90062321  0.88967285  0.51038896  1
  H+  H207  1  0.35246893  0.72094476  0.81683362  1
  H+  H208  1  0.69721463  0.08059052  0.40223614  1
  H+  H209  1  0.34369303  0.16016134  0.43570902  1
  H+  H210  1  0.86726328  0.98891154  0.49824939  1
  H+  H211  1  0.47711771  0.35818183  0.31664677  1
  H+  H212  1  0.71960772  0.10665868  0.00189390  1
  H+  H213  1  0.72228060  0.76571045  0.94837656  1
  H+  H214  1  0.63777480  1.02186573  0.66065972  1
  H+  H215  1  0.63210541  0.84850529  0.82621259  1
  H+  H216  1  -0.03683242  0.60880650  0.17699266  1
  H+  H217  1  0.17435589  0.80732031  0.66244859  1
  H+  H218  1  0.13139998  0.50033329  0.51303678  1
  H+  H219  1  0.15187332  0.40092857  0.65297078  1
  H+  H220  1  0.12095803  0.73985531  0.82693552  1
  H+  H221  1  0.72431031  0.11248988  0.65816237  1
  H+  H222  1  0.87652025  0.89532846  0.66948242  1
  H+  H223  1  0.61119481  0.96240234  0.36133608  1
  H+  H224  1  0.89034408  0.36819364  0.65480573  1
  H+  H225  1  -0.03190446  0.36020074  0.82851040  1
  H+  H226  1  0.47961857  0.36788888  0.99558937  1
  H+  H227  1  0.61186201  0.39851314  0.33056687  1
  H+  H228  1  0.14719129  0.66520894  0.67360167  1
  H+  H229  1  0.21664303  0.10479634  0.68262917  1
  H+  H230  1  0.86011094  -0.02489336  0.82315971  1
  H+  H231  1  0.22922225  0.36154512  0.49953451  1
  H+  H232  1  0.42772930  0.56403936  0.22568500  1
  H+  H233  1  0.36126897  -0.02315180  0.50952778  1
  H+  H234  1  0.52533614  0.38540606  0.49012714  1
  H+  H235  1  0.22793003  0.62410971  0.33867425  1
  H+  H236  1  0.37636930  0.61329060  -0.00382799  1
  H+  H237  1  0.98115826  0.12965264  0.98828701  1
  H+  H238  1  0.67970761  0.33643980  -0.03763217  1
  H+  H239  1  0.39298665  0.08372614  0.91505631  1
  H+  H240  1  0.08190779  0.18187417  0.05946159  1
  H+  H241  1  0.62328397  0.60415520  0.50932280  1
  H+  H242  1  0.89118309  0.27491423  0.50763612  1
  H+  H243  1  0.08950680  0.72867912  0.14404699  1
  H+  H244  1  0.78680114  0.65457909  0.81786574  1
  H+  H245  1  0.95238487  0.34151300  1.06939125  1
  H+  H246  1  0.71930974  0.61115880  0.16636014  1
  H+  H247  1  0.02078932  0.14947031  0.15042180  1
  H+  H248  1  0.73597375  0.37160403  0.81580909  1
  H+  H249  1  0.61976986  0.62194490  0.32017474  1
  H+  H250  1  0.14136731  0.84975119  0.22616898  1
  H+  H251  1  -0.01544261  0.37666983  0.17029591  1
  H+  H252  1  0.78394853  0.39159100  0.65034979  1
  H+  H253  1  0.38437820  0.01563085  0.33596104  1
  H+  H254  1  0.64567291  0.62281432  0.80885960  1
  H+  H255  1  0.87003313  0.38823142  0.49711562  1
  H+  H256  1  0.22994832  0.59611096  0.51610017  1
  H+  H257  1  0.97703035  0.11032070  0.84186310  1
  H+  H258  1  0.47035797  0.86257109  0.81103756  1
  H+  H259  1  0.62751505  0.46504310  1.00138286  1
  H+  H260  1  0.33706443  0.40913932  0.43011312  1
  H+  H261  1  0.27063788  0.91552989  0.16122024  1
  H+  H262  1  0.37886919  0.74246612  0.18667840  1
  H+  H263  1  0.03370371  0.13440137  0.33375663  1
  H+  H264  1  0.11466226  0.85522924  0.31856696  1
  H+  H265  1  1.01998553  0.62643738  1.00048385  1
  H+  H266  1  0.86951108  0.73024450  0.02732956  1
  H+  H267  1  0.35549400  0.89024449  0.00909027  1
  H+  H268  1  0.61654591  0.97611158  0.49655073  1
  H+  H269  1  0.11690742  0.88972659  0.68207424  1
  H+  H270  1  0.40688692  0.83521961  0.75607956  1
  H+  H271  1  0.10547360  0.73382722  0.48754459  1
  H+  H272  1  0.35037542  0.61796619  0.50707542  1
  H+  H273  1  0.46814809  0.82726407  0.18096019  1
  H+  H274  1  0.89380643  0.03151580  0.32513053  1
  H+  H275  1  0.67399980  0.83151958  0.26181472  1
  H+  H276  1  0.86359209  0.88784985  0.82652865  1
  H+  H277  1  0.13299073  0.01212713  0.67536749  1
  H+  H278  1  0.13271035  0.52183907  0.66640861  1
  H+  H279  1  0.89945783  0.85870334  1.08100692  1
  H+  H280  1  0.61248794  0.62567502  0.15026050  1
  H+  H281  1  0.12641845  0.76933954  -0.01174420  1
  H+  H282  1  0.14192588  0.61950067  0.99359741  1
  H+  H283  1  0.36864291  0.45917751  0.33302134  1
  H+  H284  1  0.23572764  0.11069262  0.33594615  1
  H+  H285  1  0.34456001  0.97398993  0.00878581  1
  H+  H286  1  0.63186966  0.10931624  0.50795059  1
  H+  H287  1  0.36358847  0.46877180  0.49072063  1
  H+  H288  1  0.41461101  0.81649986  0.27766346  1
  H+  H289  1  0.41727956  0.57067724  0.56939449  1
  H+  H290  1  0.91912015  0.08683675  0.22713199  1
  H+  H291  1  0.48761330  0.61271978  0.66778886  1
  H+  H292  1  0.58938489  0.91773802  0.76931565  1
  H+  H293  1  0.33230722  0.42345774  0.77426831  1
  H+  H294  1  0.69974279  0.55883991  0.92349796  1
  H+  H295  1  0.24114624  0.36611524  0.99173650  1
  H+  H296  1  0.32829179  0.64972053  0.73338742  1
  H+  H297  1  0.84958216  0.63231957  0.33703090  1
  H+  H298  1  0.07674690  0.41699326  0.73769837  1
  H+  H299  1  0.67601373  0.36203735  0.25978845  1
  H+  H300  1  0.89439882  0.32454794  0.87904996  1
  H+  H301  1  -0.00763106  0.03052825  0.71918175  1
  H+  H302  1  0.93363903  0.35137920  0.97394062  1
  H+  H303  1  0.92061732  0.83623906  0.89861990  1
  H+  H304  1  0.66809479  0.08109028  0.56396550  1
  H+  H305  1  0.26602012  0.38556295  0.83140256  1
  H+  H306  1  0.07499979  0.65903529  0.06199331  1
  H+  H307  1  0.40481457  0.07621800  0.58678152  1
  H+  H308  1  0.18823236  0.09002659  0.27260139  1
  H+  H309  1  0.83318593  0.65439388  0.07389667  1
  H+  H310  1  0.26089698  0.63269104  0.82794520  1
  H+  H311  1  0.08629276  0.91696400  0.74592867  1
  H+  H312  1  0.83677781  0.42700347  0.74817189  1
  H+  H313  1  0.67447585  0.79969788  0.90595572  1
  H+  H314  1  0.39206181  0.03580275  0.17803680  1
  H+  H315  1  0.67276080  0.83043738  0.56861442  1
  H+  H316  1  0.40947978  0.31538241  0.22463678  1
  H+  H317  1  0.57195531  0.67036432  0.09244656  1
  H+  H318  1  0.90184687  0.81611098  0.23855336  1
  H+  H319  1  0.91217395  0.58210641  0.59208647  1
  H+  H320  1  0.17342813  0.33787120  0.23424954  1
  H+  H321  1  0.11429237  0.44175268  0.10920818  1
  H+  H322  1  0.35453302  0.36996226  0.15539359  1
  H+  H323  1  0.84387661  0.17943901  0.05723361  1
  H+  H324  1  0.86769312  0.44127338  0.10767823  1
  H+  H325  1  0.10373027  0.63914595  0.33947014  1
  H+  H326  1  0.61012110  0.05252844  0.24855887  1
  H+  H327  1  0.16675043  0.07630773  0.94928051  1
  H+  H328  1  0.85216718  0.47733262  0.34825781  1
  H+  H329  1  0.93600857  0.10607596  0.56332724  1
  H+  H330  1  0.07292132  0.67367554  0.39599153  1
  H+  H331  1  0.33169782  0.65542917  0.10301867  1
  H+  H332  1  0.97881292  0.87025714  1.04106822  1
  H+  H333  1  0.67333377  0.32332053  0.58133651  1
  H+  H334  1  0.06227319  0.40054182  0.02119450  1
  H+  H335  1  0.33892294  0.41802768  0.06522406  1
  H+  H336  1  0.16330943  0.84082211  0.89159247  1
  H+  H337  1  0.56619187  0.66061797  0.43317855  1
  H+  H338  1  0.82835237  0.41166329  0.44115270  1
  H+  H339  1  0.40642846  0.32112967  0.56476472  1
  H+  H340  1  0.93633146  0.85662899  0.56949615  1
  H+  H341  1  0.77981199  0.39218222  0.03404484  1
  H+  H342  1  0.65558201  0.57999316  0.60268484  1
  H+  H343  1  0.57356167  0.90236054  0.09480165  1
  H+  H344  1  0.08813832  0.17027489  0.42832722  1
  H+  H345  1  0.39382237  0.57535534  0.90967477  1
  H+  H346  1  0.38616650  0.28242228  0.99983846  1
  H+  H347  1  0.32315613  0.92745388  0.10188540  1
  H+  H348  1  0.42860570  0.84536456  0.94864819  1
  H+  H349  1  0.61425122  0.01466190  0.23796397  1
  H+  H350  1  0.68295521  0.66351782  0.87106692  1
  H+  H351  1  0.42022044  0.33912826  0.90483342  1
  H+  H352  1  0.93699041  0.37176482  0.25460845  1
  H+  H353  1  0.17706830  0.35110181  0.56049755  1
  H+  H354  1  0.38415148  0.34758688  0.31907530  1
  H+  H355  1  0.56872113  0.14674302  0.41342079  1
  H+  H356  1  0.58066474  0.90449883  0.44351949  1
  H+  H357  1  0.50982958  0.61513788  0.15587952  1
  H+  H358  1  0.92483138  0.33542167  0.56657536  1
  H+  H359  1  0.58054164  0.42273468  0.43010745  1
  H+  H360  1  0.57008595  0.40031610  0.76592076  1
  H+  H361  1  0.16176409  0.56346006  0.57848815  1
  H+  H362  1  0.35116583  0.98249503  0.72933651  1
  H+  H363  1  0.59475129  0.16253497  0.76414803  1
  H+  H364  1  0.07491958  0.14027225  0.78357749  1
  H+  H365  1  0.16920508  0.33177477  0.89939613  1
  H+  H366  1  0.41846915  0.07866423  0.27601673  1
  H+  H367  1  0.53750995  0.88050412  0.67469890  1
  H+  H368  1  0.65170027  0.59482706  0.26087906  1
  H+  H369  1  0.66550670  0.07729671  0.90607154  1
  H+  H370  1  0.53864875  0.70965280  0.35689340  1
  H+  H371  1  0.09677345  0.89162303  0.07937782  1
  H+  H372  1  0.81578791  0.65169628  0.43426506  1
  H+  H373  1  0.62708376  1.01364411  0.00904626  1
  H+  H374  1  0.34135533  0.92006531  0.41037206  1
  H+  H375  1  0.45431091  0.10914851  0.00812979  1
  H+  H376  1  0.34183338  0.20603488  0.08251149  1
  H+  H377  1  0.91646610  0.58641349  0.88998503  1
  H+  H378  1  0.58444008  0.41810962  0.06567038  1
  H+  H379  1  0.10827635  0.47558779  0.83191632  1
  H+  H380  1  0.83988568  0.67528458  0.72414429  1
  H+  H381  1  0.32950114  0.16458048  0.75025686  1
  H+  H382  1  0.74768025  0.87875560  0.66204273  1
  H+  H383  1  0.16661363  0.58924997  0.89919840  1
  O2-  O384  1  0.07694128  0.18527721  0.12993457  1
  O2-  O385  1  0.08478624  0.16815532  0.47403014  1
  O2-  O386  1  0.08436324  0.15779908  0.82723472  1
  O2-  O387  1  0.10049420  0.43580285  0.15312072  1
  O2-  O388  1  0.08615874  0.41280477  0.47791405  1
  O2-  O389  1  0.07740836  0.41496676  0.81672398  1
  O2-  O390  1  0.06900791  0.66538971  0.13893906  1
  O2-  O391  1  0.07522080  0.67692773  0.46751535  1
  O2-  O392  1  0.09597579  0.67789667  0.81310390  1
  O2-  O393  1  0.10650291  0.82921624  0.13940655  1
  O2-  O394  1  0.07802690  0.92468067  0.47650565  1
  O2-  O395  1  0.09738632  0.92842069  0.81301586  1
  O2-  O396  1  0.36825563  0.23220661  0.15645025  1
  O2-  O397  1  0.33844160  0.15957633  0.48139478  1
  O2-  O398  1  0.32689845  0.16928297  0.82353289  1
  O2-  O399  1  0.33131968  0.40779143  0.14189370  1
  O2-  O400  1  0.33378675  0.40817679  0.47584240  1
  O2-  O401  1  0.32862676  0.42422810  0.82025284  1
  O2-  O402  1  0.32565196  0.64371068  0.14775850  1
  O2-  O403  1  0.31434651  0.64517191  0.49974756  1
  O2-  O404  1  0.32240148  0.65704597  0.81315839  1
  O2-  O405  1  0.32954782  0.93676291  0.14636625  1
  O2-  O406  1  0.33531991  0.91765764  0.49211613  1
  O2-  O407  1  0.32761917  0.93906079  0.80552177  1
  O2-  O408  1  0.58426243  0.19980387  0.14289365  1
  O2-  O409  1  0.57323139  0.15393532  0.49364023  1
  O2-  O410  1  0.61133948  0.17935162  0.80748858  1
  O2-  O411  1  0.58473474  0.42305715  0.14346747  1
  O2-  O412  1  0.58440907  0.42334417  0.47527796  1
  O2-  O413  1  0.57846770  0.39357277  0.80973659  1
  O2-  O414  1  0.57464389  0.65471951  0.13848412  1
  O2-  O415  1  0.57060333  0.66214905  0.47864014  1
  O2-  O416  1  0.58757619  0.66194458  0.76358515  1
  O2-  O417  1  0.57050758  0.88603955  0.14280203  1
  O2-  O418  1  0.58561603  0.91269227  0.48868909  1
  O2-  O419  1  0.57978058  0.90830897  0.81442465  1
  O2-  O420  1  0.85280678  0.18490855  0.13564585  1
  O2-  O421  1  0.83679371  0.17239680  0.48218181  1
  O2-  O422  1  0.82635668  0.15546059  0.80812283  1
  O2-  O423  1  0.84941393  0.42424984  0.14946047  1
  O2-  O424  1  0.83423038  0.41440355  0.48648271  1
  O2-  O425  1  0.83349321  0.42454709  0.79396189  1
  O2-  O426  1  0.81756792  0.64951834  0.15073155  1
  O2-  O427  1  0.81863224  0.64798913  0.47907025  1
  O2-  O428  1  0.84752569  0.68240188  0.80390864  1
  O2-  O429  1  0.84484572  0.91167568  0.14058827  1
  O2-  O430  1  0.84045456  0.92799960  0.48363913  1
  O2-  O431  1  0.83097250  0.91425358  0.80860979  1
  O2-  O432  1  0.21676508  0.10236580  0.20023387  1
  O2-  O433  1  0.16792896  0.07991787  0.50565720  1
  O2-  O434  1  0.16322579  0.07517249  0.86933525  1
  O2-  O435  1  0.17481691  0.34359679  0.18883216  1
  O2-  O436  1  0.16934416  0.33373389  0.51625007  1
  O2-  O437  1  0.16499823  0.33012523  0.85383065  1
  O2-  O438  1  0.16733783  0.59749066  0.19400226  1
  O2-  O439  1  0.16351400  0.56088087  0.53130408  1
  O2-  O440  1  0.16264491  0.58396553  0.85374157  1
  O2-  O441  1  0.15914877  0.88400543  0.18533390  1
  O2-  O442  1  0.16538414  0.84060796  0.52145781  1
  O2-  O443  1  0.16518520  0.84207560  0.84641736  1
  O2-  O444  1  0.42162392  0.09006248  0.20216078  1
  O2-  O445  1  0.41151786  0.07828063  0.54120045  1
  O2-  O446  1  0.40126199  0.09160158  0.87035645  1
  O2-  O447  1  0.40973067  0.32131603  0.17847363  1
  O2-  O448  1  0.41535144  0.32639416  0.52034664  1
  O2-  O449  1  0.42021656  0.33844324  0.85895344  1
  O2-  O450  1  0.42675592  0.56748427  0.17902985  1
  O2-  O451  1  0.41084628  0.57132163  0.52447843  1
  O2-  O452  1  0.38888998  0.57243910  0.86235429  1
  O2-  O453  1  0.41450391  0.80006750  0.20498872  1
  O2-  O454  1  0.42278809  0.84744671  0.54001470  1
  O2-  O455  1  0.40736846  0.83278526  0.80048738  1
  O2-  O456  1  0.67858041  0.11491021  0.13024657  1
  O2-  O457  1  0.66896479  0.08314221  0.51848386  1
  O2-  O458  1  0.66575684  0.07357746  0.86116191  1
  O2-  O459  1  0.68567834  0.36449907  0.17856426  1
  O2-  O460  1  0.68789153  0.30070612  0.54575801  1
  O2-  O461  1  0.67486282  0.33356440  0.83139642  1
  O2-  O462  1  0.65564909  0.58622672  0.17717892  1
  O2-  O463  1  0.65167172  0.57423473  0.52741155  1
  O2-  O464  1  0.68208671  0.62177804  0.84245894  1
  O2-  O465  1  0.67350559  0.83066435  0.18286672  1
  O2-  O466  1  0.67093370  0.83105637  0.52335905  1
  O2-  O467  1  0.66178749  0.81413501  0.82990272  1
  O2-  O468  1  0.91638705  0.08309372  0.18177788  1
  O2-  O469  1  0.92475065  0.09437323  0.51895904  1
  O2-  O470  1  0.91377954  0.08175369  0.85085143  1
  O2-  O471  1  0.92442588  0.34498947  0.18522507  1
  O2-  O472  1  0.92612915  0.33639515  0.52100642  1
  O2-  O473  1  0.90418597  0.32913311  0.83427373  1
  O2-  O474  1  0.90452172  0.57451026  0.19432145  1
  O2-  O475  1  0.91385431  0.58376617  0.51788092  1
  O2-  O476  1  0.91999741  0.59132316  0.84462292  1
  O2-  O477  1  0.89257773  0.80581760  0.19409876  1
  O2-  O478  1  0.93748642  0.86447249  0.52332444  1
  O2-  O479  1  0.91691669  0.83880537  0.85456691  1
  O2-  O480  1  0.17652553  0.08434323  0.31786454  1
  O2-  O481  1  0.15746962  0.07504744  0.66582007  1
  O2-  O482  1  0.16597304  0.08347484  0.99451961  1
  O2-  O483  1  0.17199009  0.33116622  0.31221853  1
  O2-  O484  1  0.19593848  0.39828295  0.62738603  1
  O2-  O485  1  0.18034862  0.34013906  0.97686455  1
  O2-  O486  1  0.17075591  0.59113133  0.31885072  1
  O2-  O487  1  0.16832844  0.57907334  0.64597723  1
  O2-  O488  1  0.17942135  0.59691489  0.97728174  1
  O2-  O489  1  0.13133316  0.82184303  0.29149589  1
  O2-  O490  1  0.18736119  0.86386535  0.64381378  1
  O2-  O491  1  0.15384889  0.82982404  0.97401549  1
  O2-  O492  1  0.41673186  0.07769975  0.32199362  1
  O2-  O493  1  0.40306525  0.07399102  0.66530199  1
  O2-  O494  1  0.39234535  0.08154220  0.99617949  1
  O2-  O495  1  0.41668131  0.32135491  0.30091856  1
  O2-  O496  1  0.35467589  0.29311481  0.64337252  1
  O2-  O497  1  0.41886319  0.34087654  0.98017247  1
  O2-  O498  1  0.41929139  0.55710226  0.29764111  1
  O2-  O499  1  0.42888320  0.57677966  0.65111285  1
  O2-  O500  1  0.40632356  0.58363111  0.97779214  1
  O2-  O501  1  0.41483776  0.82417547  0.32337091  1
  O2-  O502  1  0.44811765  0.79691472  0.63974358  1
  O2-  O503  1  0.42387264  0.84269456  0.99283484  1
  O2-  O504  1  0.66340293  0.06214876  0.36508860  1
  O2-  O505  1  0.66383624  0.08096784  0.64307965  1
  O2-  O506  1  0.65609801  0.07826547  0.99696026  1
  O2-  O507  1  0.66407419  0.35646483  0.30412707  1
  O2-  O508  1  0.64274750  0.31677488  0.66903451  1
  O2-  O509  1  0.61685599  0.30194550  0.96430099  1
  O2-  O510  1  0.65327192  0.59541426  0.30596691  1
  O2-  O511  1  0.65993487  0.58301306  0.64878288  1
  O2-  O512  1  0.71283946  0.54036959  0.96173850  1
  O2-  O513  1  0.67362502  0.82972454  0.30746551  1
  O2-  O514  1  0.68446902  0.84593278  0.65030447  1
  O2-  O515  1  0.68727789  0.79308638  0.94967475  1
  O2-  O516  1  0.92920987  0.08983635  0.30710922  1
  O2-  O517  1  0.96225166  0.14683780  0.63749189  1
  O2-  O518  1  0.92003590  0.09950075  0.97356122  1
  O2-  O519  1  0.95013503  0.39815413  0.29756274  1
  O2-  O520  1  0.91980796  0.33485820  0.64452758  1
  O2-  O521  1  0.87644307  0.31438712  0.95745871  1
  O2-  O522  1  0.90266070  0.57696273  0.31689823  1
  O2-  O523  1  0.90907022  0.57587281  0.63790409  1
  O2-  O524  1  0.91431860  0.58051223  0.97015619  1
  O2-  O525  1  0.91451951  0.83359798  0.31818325  1
  O2-  O526  1  0.92887708  0.84141500  0.64099775  1
  O2-  O527  1  0.91432710  0.84496036  1.04111899  1
  O2-  O528  1  0.08566749  0.17892154  0.01304947  1
  O2-  O529  1  0.09293593  0.16696551  0.35137494  1
  O2-  O530  1  0.03695673  0.09019096  0.71243346  1
  O2-  O531  1  0.12418992  0.43643947  0.02552117  1
  O2-  O532  1  0.09626744  0.42202125  0.35381195  1
  O2-  O533  1  0.07865089  0.42119531  0.69239969  1
  O2-  O534  1  0.07983701  0.65876064  0.01636268  1
  O2-  O535  1  0.06869098  0.66581505  0.34965195  1
  O2-  O536  1  0.14177706  0.71256681  0.69131109  1
  O2-  O537  1  0.08492745  0.90919588  0.03893480  1
  O2-  O538  1  0.07904562  0.91884022  0.35735958  1
  O2-  O539  1  0.07918408  0.91118246  0.69792997  1
  O2-  O540  1  0.33323186  0.19006137  0.03792590  1
  O2-  O541  1  0.34074836  0.16027208  0.35915243  1
  O2-  O542  1  0.32667910  0.16013550  0.70415493  1
  O2-  O543  1  0.34259523  0.42451110  0.01977062  1
  O2-  O544  1  0.33630148  0.40116265  0.35295647  1
  O2-  O545  1  0.33721770  0.42026874  0.69973689  1
  O2-  O546  1  0.33967674  0.67403599  0.02545547  1
  O2-  O547  1  0.33002064  0.67906686  0.37706408  1
  O2-  O548  1  0.33211821  0.64554119  0.68834794  1
  O2-  O549  1  0.31568478  0.91143732  0.01949618  1
  O2-  O550  1  0.33923501  0.92047203  0.36525727  1
  O2-  O551  1  0.35741563  0.98209527  0.68420222  1
  O2-  O552  1  0.56115811  0.15981180  0.02421935  1
  O2-  O553  1  0.57549740  0.13809501  0.36968021  1
  O2-  O554  1  0.57079516  0.15148801  0.68797509  1
  O2-  O555  1  0.57952635  0.41213336  0.02043294  1
  O2-  O556  1  0.57448946  0.42183918  0.34748278  1
  O2-  O557  1  0.56503882  0.40979822  0.68529902  1
  O2-  O558  1  0.55780644  0.69965917  0.03380075  1
  O2-  O559  1  0.54875476  0.66136922  0.35272411  1
  O2-  O560  1  0.59710804  0.67524748  0.69721328  1
  O2-  O561  1  0.57774557  0.92135698  0.03219578  1
  O2-  O562  1  0.57769075  0.89665491  0.36521611  1
  O2-  O563  1  0.59521905  0.92036574  0.69268188  1
  O2-  O564  1  0.83050778  0.16942320  0.01261051  1
  O2-  O565  1  0.90660382  0.20722853  0.36882139  1
  O2-  O566  1  0.83114293  0.16862656  0.68454527  1
  O2-  O567  1  0.79819469  0.40411467  -0.00836938  1
  O2-  O568  1  0.82348250  0.41606587  0.36283409  1
  O2-  O569  1  0.83893631  0.42287273  0.67148036  1
  O2-  O570  1  0.84377750  0.66676982  0.02911482  1
  O2-  O571  1  0.82229698  0.66573249  0.35190839  1
  O2-  O572  1  0.83617571  0.67268884  0.67881549  1
  O2-  O573  1  0.86127383  0.93347940  -0.02789879  1
  O2-  O574  1  0.83831586  0.92682291  0.35571994  1
  O2-  O575  1  0.84775831  0.92592984  0.68639380  1
