# generated using pymatgen
data_H2O
_symmetry_space_group_name_H-M   'P 1'
_cell_length_a   17.99209303
_cell_length_b   17.99661608
_cell_length_c   21.99830335
_cell_angle_alpha   90.00027339
_cell_angle_beta   90.01529012
_cell_angle_gamma   119.99228507
_symmetry_Int_Tables_number   1
_chemical_formula_structural   H2O
_chemical_formula_sum   'H384 O192'
_cell_volume   6169.16085530
_cell_formula_units_Z   192
loop_
 _symmetry_equiv_pos_site_id
 _symmetry_equiv_pos_as_xyz
  1  'x, y, z'
loop_
 _atom_type_symbol
 _atom_type_oxidation_number
  H+  1.0
  O2-  -2.0
loop_
 _atom_site_type_symbol
 _atom_site_label
 _atom_site_symmetry_multiplicity
 _atom_site_fract_x
 _atom_site_fract_y
 _atom_site_fract_z
 _atom_site_occupancy
  H+  H0  1  0.13887717  0.59293601  0.50530042  1
  H+  H1  1  0.61457399  0.72287536  0.00813853  1
  H+  H2  1  0.38410326  0.26814855  0.85245305  1
  H+  H3  1  0.36249162  0.20696505  0.15120865  1
  H+  H4  1  0.37906023  0.26354178  -0.00667443  1
  H+  H5  1  0.85622598  0.89056654  0.84680159  1
  H+  H6  1  0.27847336  0.62826685  0.50012977  1
  H+  H7  1  0.39159181  0.10149840  0.15178159  1
  H+  H8  1  0.64216938  0.10527193  -0.00970367  1
  H+  H9  1  0.46914693  0.11805461  0.83022681  1
  H+  H10  1  0.85706653  0.89039833  0.15003433  1
  H+  H11  1  0.38643149  0.85370074  0.83965548  1
  H+  H12  1  0.84150950  -0.03003166  0.83758765  1
  H+  H13  1  0.36330698  0.48218958  0.15526731  1
  H+  H14  1  0.39342831  0.02066133  0.98888338  1
  H+  H15  1  0.07118396  0.91015223  0.38222514  1
  H+  H16  1  0.26867344  0.12754882  0.15452748  1
  H+  H17  1  0.02629787  0.63220683  0.17750546  1
  H+  H18  1  0.47922976  0.85055213  0.99423145  1
  H+  H19  1  0.88609734  0.35400685  0.51143695  1
  H+  H20  1  0.39047649  0.28596659  0.32272243  1
  H+  H21  1  0.37294038  0.39591003  0.67331901  1
  H+  H22  1  0.87086394  0.22763653  0.67887380  1
  H+  H23  1  0.84499863  0.87858202  0.67659620  1
  H+  H24  1  0.89504288  1.03181467  -0.00727733  1
  H+  H25  1  0.39135358  0.86240105  0.17106538  1
  H+  H26  1  -0.01560618  0.60782839  0.83598183  1
  H+  H27  1  0.86990229  0.09146329  0.50078371  1
  H+  H28  1  0.63297221  0.35818029  0.16594871  1
  H+  H29  1  0.86681524  0.13560503  0.67599984  1
  H+  H30  1  0.62943327  0.86087760  0.83005161  1
  H+  H31  1  0.62192185  0.22936725  0.50873717  1
  H+  H32  1  0.66031638  0.18140134  0.34069574  1
  H+  H33  1  0.86526670  0.47209269  0.69428889  1
  H+  H34  1  0.62118187  0.39575441  0.65373288  1
  H+  H35  1  0.84842717  0.75588032  0.64211618  1
  H+  H36  1  0.85789289  0.01725423  0.31531197  1
  H+  H37  1  0.38333263  0.51964823  0.84335228  1
  H+  H38  1  0.54519280  0.36621078  0.34421066  1
  H+  H39  1  0.17636796  -0.01103326  0.67548176  1
  H+  H40  1  0.60323639  0.71980068  0.17237527  1
  H+  H41  1  0.12083385  0.39657260  0.67081429  1
  H+  H42  1  0.10904919  0.72548002  0.18326928  1
  H+  H43  1  0.36855643  0.14261077  0.83850704  1
  H+  H44  1  0.36758596  0.97718870  0.82378988  1
  H+  H45  1  0.63393423  0.62147719  0.85272973  1
  H+  H46  1  0.39735109  0.61602372  0.51249273  1
  H+  H47  1  -0.01948841  0.35873489  0.84353144  1
  H+  H48  1  0.70375813  0.86195485  0.66345566  1
  H+  H49  1  0.37862579  0.60840833  0.84480539  1
  H+  H50  1  0.27338935  0.64265562  0.16069283  1
  H+  H51  1  0.35036814  0.59167973  0.99529287  1
  H+  H52  1  0.06699210  0.17164388  0.81196799  1
  H+  H53  1  0.14158428  0.52946822  0.17457268  1
  H+  H54  1  0.65034874  0.02786557  0.17595928  1
  H+  H55  1  0.62701649  -0.01864215  0.49807840  1
  H+  H56  1  1.04024182  0.15991395  0.15984048  1
  H+  H57  1  0.62360242  0.48698836  0.86587759  1
  H+  H58  1  0.60252521  0.72526031  0.83160381  1
  H+  H59  1  0.87233035  0.01666981  0.66267597  1
  H+  H60  1  0.07135692  0.83953192  0.69033176  1
  H+  H61  1  0.66254761  0.82671815  0.56922859  1
  H+  H62  1  0.96308742  0.36747232  0.33520053  1
  H+  H63  1  0.61524270  0.64195503  0.68294061  1
  H+  H64  1  0.22551133  0.60976958  -0.00545659  1
  H+  H65  1  0.39995347  0.85680810  0.51946485  1
  H+  H66  1  0.63573589  0.28251223  0.68470257  1
  H+  H67  1  0.35950058  0.88580211  0.49728783  1
  H+  H68  1  0.46677247  0.61479118  0.17526815  1
  H+  H69  1  0.82107616  0.95380754  0.13434900  1
  H+  H70  1  0.53143062  0.89117126  0.15842643  1
  H+  H71  1  0.14246123  0.60875863  0.84105857  1
  H+  H72  1  0.75540731  0.86505672  0.48742396  1
  H+  H73  1  0.15923102  0.05118034  0.52114810  1
  H+  H74  1  0.83187242  0.40576135  0.77823938  1
  H+  H75  1  0.38535538  1.04181680  0.67262017  1
  H+  H76  1  0.37584289  0.15311972  0.48907383  1
  H+  H77  1  0.38231713  0.16565162  0.67603970  1
  H+  H78  1  0.76570865  0.60076391  0.16536301  1
  H+  H79  1  0.85812171  0.72066351  0.48387507  1
  H+  H80  1  0.65642911  0.04549046  0.33018542  1
  H+  H81  1  0.34238674  0.41841167  0.77103663  1
  H+  H82  1  0.67436193  0.07660132  0.57618921  1
  H+  H83  1  0.76979547  0.66446164  0.86254806  1
  H+  H84  1  0.89338401  0.52077943  0.84115926  1
  H+  H85  1  0.37331254  0.88143695  0.31839062  1
  H+  H86  1  0.72963216  0.61338598  0.51177397  1
  H+  H87  1  0.00012081  0.88552379  0.47911348  1
  H+  H88  1  0.11474188  0.63555876  0.67362317  1
  H+  H89  1  0.49220627  0.87150405  0.67545759  1
  H+  H90  1  0.15068517  0.28756474  0.16910786  1
  H+  H91  1  0.14653542  0.37129981  0.84295171  1
  H+  H92  1  0.61382615  0.47664457  0.51684861  1
  H+  H93  1  0.98577706  0.62976795  0.46731210  1
  H+  H94  1  0.12734205  1.02122867  -0.00415520  1
  H+  H95  1  0.23115633  0.61818955  0.66244066  1
  H+  H96  1  0.09931113  0.88791341  0.31820388  1
  H+  H97  1  0.95577507  0.86494714  0.32103699  1
  H+  H98  1  0.83241533  0.43846166  0.01291370  1
  H+  H99  1  0.72988305  0.36339760  0.67446272  1
  H+  H100  1  0.62503977  0.76765188  0.66324812  1
  H+  H101  1  0.78670459  0.14447986  0.16838310  1
  H+  H102  1  0.85255422  0.36243804  1.00712674  1
  H+  H103  1  0.11066844  0.72342113  0.67594319  1
  H+  H104  1  0.20752536  0.86666321  0.67104006  1
  H+  H105  1  0.65007548  0.02779591  0.67373025  1
  H+  H106  1  0.06379009  0.19551635  0.50566558  1
  H+  H107  1  0.48162425  0.16528550  0.32918940  1
  H+  H108  1  0.71548818  0.85726389  0.83874344  1
  H+  H109  1  0.49441945  0.12992139  0.51180339  1
  H+  H110  1  0.24426975  0.38548717  0.65416663  1
  H+  H111  1  0.97884508  0.61681184  0.32952806  1
  H+  H112  1  0.11726130  0.47315157  0.82960724  1
  H+  H113  1  0.12324782  0.72427680  0.83055852  1
  H+  H114  1  0.11464115  0.47518066  0.00578400  1
  H+  H115  1  0.34386387  1.00680869  0.30107101  1
  H+  H116  1  0.68605611  0.60522774  0.61178304  1
  H+  H117  1  -0.05771412  0.82877527  0.65306399  1
  H+  H118  1  0.97877642  0.61359196  0.68972118  1
  H+  H119  1  0.85540187  0.72117101  0.33130813  1
  H+  H120  1  0.40047663  0.53113433  0.33058000  1
  H+  H121  1  0.61132383  0.21704401  0.16119973  1
  H+  H122  1  0.64454218  0.11058335  0.51808722  1
  H+  H123  1  0.86768449  0.45233718  0.16427366  1
  H+  H124  1  0.34684056  0.90316073  0.67301845  1
  H+  H125  1  0.62953736  0.72044932  0.34628044  1
  H+  H126  1  0.62982369  0.48097108  0.14661119  1
  H+  H127  1  0.59835451  0.62956876  0.16716244  1
  H+  H128  1  0.86697339  0.84998586  0.49059376  1
  H+  H129  1  0.23823640  0.36168891  0.32984106  1
  H+  H130  1  0.95072617  0.07757958  0.50070672  1
  H+  H131  1  0.72275588  0.60090368  0.32805126  1
  H+  H132  1  0.02258199  0.14301769  -0.00110016  1
  H+  H133  1  0.16728816  0.16970127  0.65975167  1
  H+  H134  1  0.86128331  0.66644646  0.14899200  1
  H+  H135  1  0.21719455  0.12023343  0.32786736  1
  H+  H136  1  0.65624180  0.82968020  0.92979863  1
  H+  H137  1  0.40260803  0.04318968  0.52100519  1
  H+  H138  1  0.97598673  0.88205835  0.96345864  1
  H+  H139  1  0.84041780  0.95355042  0.47637518  1
  H+  H140  1  0.28257626  0.39179107  0.83058793  1
  H+  H141  1  0.36776703  0.71898141  0.50051889  1
  H+  H142  1  0.28759559  0.15418034  0.48902953  1
  H+  H143  1  0.58411437  0.41417525  0.09290737  1
  H+  H144  1  0.14862913  0.11776357  0.84078393  1
  H+  H145  1  0.86278840  0.22739072  0.83078063  1
  H+  H146  1  0.60093573  0.46328414  0.00216544  1
  H+  H147  1  0.28408570  0.39052143  0.15894261  1
  H+  H148  1  0.86959746  0.64230312  0.71410871  1
  H+  H149  1  0.63416420  1.02764109  0.83082794  1
  H+  H150  1  0.86204266  0.63352877  0.47295882  1
  H+  H151  1  0.49599638  0.37990314  0.64459982  1
  H+  H152  1  0.71440068  0.60128926  1.00001262  1
  H+  H153  1  0.17580176  0.34052011  0.90374282  1
  H+  H154  1  0.88637896  0.61230533  0.33134679  1
  H+  H155  1  0.11572241  0.38337321  0.49217205  1
  H+  H156  1  0.12390713  0.89577740  0.52002432  1
  H+  H157  1  0.13984128  0.85825153  0.84601406  1
  H+  H158  1  0.48012475  0.61640382  0.66942238  1
  H+  H159  1  0.18386722  0.83428412  0.89884259  1
  H+  H160  1  0.27963335  0.14120459  0.84314909  1
  H+  H161  1  0.09047841  0.48217642  0.34414599  1
  H+  H162  1  0.75029758  0.37353780  0.35484517  1
  H+  H163  1  0.52135939  0.15721077  0.70611939  1
  H+  H164  1  0.91486124  0.56851910  0.98369252  1
  H+  H165  1  0.69161325  0.85099395  0.23893870  1
  H+  H166  1  0.63067100  0.44937461  0.33799900  1
  H+  H167  1  0.61766439  0.88814659  0.16361727  1
  H+  H168  1  0.87444765  0.14762535  1.01572595  1
  H+  H169  1  0.97677428  0.36564305  0.99656744  1
  H+  H170  1  0.13501172  0.02130448  0.84419001  1
  H+  H171  1  0.83860897  0.46210177  0.34803715  1
  H+  H172  1  0.04296027  0.84175605  0.02828140  1
  H+  H173  1  0.44144406  0.79416466  0.31299663  1
  H+  H174  1  0.48579428  0.37345454  0.51217893  1
  H+  H175  1  0.47252019  0.35628645  0.99516909  1
  H+  H176  1  0.33282213  0.12786376  0.32272701  1
  H+  H177  1  0.12896164  0.02626029  0.32139144  1
  H+  H178  1  0.82959168  0.38881000  0.10701021  1
  H+  H179  1  0.14937005  0.37525610  0.17310617  1
  H+  H180  1  0.14148280  0.26245505  0.67003742  1
  H+  H181  1  0.87040427  0.14656161  0.34610791  1
  H+  H182  1  0.37595285  0.39862162  0.49685787  1
  H+  H183  1  0.47376616  0.27207625  0.18479276  1
  H+  H184  1  0.63101375  0.59394971  0.33125948  1
  H+  H185  1  0.02351498  0.37903888  0.50190871  1
  H+  H186  1  0.25085676  0.38556120  0.49950829  1
  H+  H187  1  0.06059875  0.98021368  0.45817230  1
  H+  H188  1  0.38180217  0.10249160  0.98379814  1
  H+  H189  1  0.89158059  0.27235942  0.99948737  1
  H+  H190  1  0.64014431  0.86171163  0.50841086  1
  H+  H191  1  0.23093915  0.60752848  0.84031457  1
  H+  H192  1  0.61852670  0.20781020  0.00391482  1
  H+  H193  1  0.53646047  0.39675331  0.86577669  1
  H+  H194  1  0.64308740  0.61677036  0.51669262  1
  H+  H195  1  0.98040755  0.36591955  0.66480746  1
  H+  H196  1  0.38741052  0.36282474  0.84947057  1
  H+  H197  1  0.45371648  0.25754249  0.21570716  1
  H+  H198  1  0.01934723  0.88450146  0.85629699  1
  H+  H199  1  0.89504823  0.35639675  0.17642547  1
  H+  H200  1  0.62195422  0.48660566  0.65542009  1
  H+  H201  1  0.29151265  0.88507212  0.00520620  1
  H+  H202  1  0.59900850  0.37191977  0.00109122  1
  H+  H203  1  0.83511019  0.16608192  0.44086969  1
  H+  H204  1  0.36725892  0.71725380  0.00671560  1
  H+  H205  1  0.89481137  0.73772469  0.72650848  1
  H+  H206  1  -0.00260079  0.10719999  0.34200543  1
  H+  H207  1  0.38001829  0.49047018  0.50120684  1
  H+  H208  1  0.03380461  0.90444352  0.16886906  1
  H+  H209  1  0.61538308  0.72439721  0.49736707  1
  H+  H210  1  0.73726484  0.11410096  0.66552824  1
  H+  H211  1  0.36063378  0.63949036  0.16253743  1
  H+  H212  1  0.48256812  0.10513095  0.16280640  1
  H+  H213  1  0.36401086  0.72269746  0.83130584  1
  H+  H214  1  0.56540805  0.90609046  0.33471926  1
  H+  H215  1  0.15645919  0.77813170  -0.01233048  1
  H+  H216  1  0.86274964  0.11226517  0.84377850  1
  H+  H217  1  0.74549773  0.13110946  0.32949098  1
  H+  H218  1  0.12446298  -0.01083810  0.16577688  1
  H+  H219  1  0.22371148  0.86885918  0.28974014  1
  H+  H220  1  0.14077248  0.70601300  0.47768612  1
  H+  H221  1  0.70443171  0.91633232  0.33129301  1
  H+  H222  1  0.14324514  0.12401087  0.16819426  1
  H+  H223  1  0.21268413  0.60395798  0.32939168  1
  H+  H224  1  0.16183570  0.58372096  0.26621038  1
  H+  H225  1  0.48807683  0.61792254  0.51343427  1
  H+  H226  1  0.13012009  0.81404487  0.50981184  1
  H+  H227  1  0.90243556  0.80452666  0.16722490  1
  H+  H228  1  0.16896851  0.09630116  0.23056914  1
  H+  H229  1  0.39459415  0.61700934  0.33069999  1
  H+  H230  1  0.63117835  1.00564594  -0.01490097  1
  H+  H231  1  0.87730914  0.56991214  0.18120892  1
  H+  H232  1  0.90470108  0.58436717  0.64196547  1
  H+  H233  1  0.72584185  0.86566428  -0.01704449  1
  H+  H234  1  0.37298506  0.48450614  0.67782520  1
  H+  H235  1  0.36595562  0.97005068  0.15928736  1
  H+  H236  1  0.15174514  0.25447852  0.83090322  1
  H+  H237  1  0.29698322  0.17660897  0.66852758  1
  H+  H238  1  0.41438501  0.41380811  0.18809094  1
  H+  H239  1  0.11095792  0.13873911  -0.00040141  1
  H+  H240  1  0.88823444  0.26595061  0.51318034  1
  H+  H241  1  0.27792278  0.88775801  0.82491949  1
  H+  H242  1  0.92391987  0.33284626  0.23932482  1
  H+  H243  1  0.92142532  0.57573611  0.41561435  1
  H+  H244  1  0.33106894  0.71464972  0.35126935  1
  H+  H245  1  0.87736773  0.23674242  0.17144226  1
  H+  H246  1  0.77561682  0.13196798  0.50125692  1
  H+  H247  1  0.11589569  0.48152563  0.67684859  1
  H+  H248  1  0.17107050  0.29703157  0.48383670  1
  H+  H249  1  0.86162940  0.46613725  0.49318511  1
  H+  H250  1  0.72344978  0.35665164  0.52173657  1
  H+  H251  1  0.65199891  0.30816949  0.27604760  1
  H+  H252  1  0.94116882  0.09504736  0.83983940  1
  H+  H253  1  0.70597370  0.33659548  0.99590906  1
  H+  H254  1  0.11334874  0.73594483  0.31393130  1
  H+  H255  1  0.71759311  0.84658853  0.17129305  1
  H+  H256  1  0.64430807  0.37034917  0.85905415  1
  H+  H257  1  0.38379500  0.40319074  0.34594837  1
  H+  H258  1  0.47037463  0.13871375  0.35792759  1
  H+  H259  1  0.39653277  0.27430343  0.66147464  1
  H+  H260  1  0.62136324  0.13338577  0.16374111  1
  H+  H261  1  0.15708939  0.07672817  0.93437028  1
  H+  H262  1  1.04212235  0.66307030  0.98641527  1
  H+  H263  1  0.39224491  0.85270589  0.99758228  1
  H+  H264  1  0.59662709  0.25251798  0.80798216  1
  H+  H265  1  0.77795631  0.87069563  0.38904187  1
  H+  H266  1  0.91915111  0.05972255  0.17814810  1
  H+  H267  1  0.71942012  0.67212000  0.20410162  1
  H+  H268  1  0.10208152  0.11787345  0.33882650  1
  H+  H269  1  0.13911923  0.87422154  0.19520730  1
  H+  H270  1  0.73464990  0.62584462  0.67729262  1
  H+  H271  1  0.61572965  0.88166018  0.00445501  1
  H+  H272  1  0.37648146  0.72491474  0.67724088  1
  H+  H273  1  0.60926033  0.38606884  0.51461758  1
  H+  H274  1  -0.12119604  0.78266892  0.87165077  1
  H+  H275  1  0.27295088  0.34493971  1.00729352  1
  H+  H276  1  0.27614515  0.88350845  0.16886426  1
  H+  H277  1  0.51627538  0.63438054  0.83603707  1
  H+  H278  1  0.72593387  0.35763555  0.84458726  1
  H+  H279  1  0.36430812  0.63261925  0.67655395  1
  H+  H280  1  0.16670159  0.87312663  0.99119163  1
  H+  H281  1  0.14013736  0.61878582  0.17932689  1
  H+  H282  1  0.35609810  0.97902201  0.48978014  1
  H+  H283  1  0.14813403  0.84097963  0.61166104  1
  H+  H284  1  0.15185425  0.97671771  0.64566682  1
  H+  H285  1  0.03305251  0.39198342  0.16516702  1
  H+  H286  1  0.53986796  0.89124979  0.49198672  1
  H+  H287  1  0.86626870  0.38402551  0.68126112  1
  H+  H288  1  0.41986287  0.34072038  0.59257787  1
  H+  H289  1  0.86386359  0.89668262  -0.01666389  1
  H+  H290  1  0.83089604  0.91030672  0.04780766  1
  H+  H291  1  0.16974722  0.57836564  0.93335292  1
  H+  H292  1  0.44090726  0.36940201  0.27937646  1
  H+  H293  1  0.72277010  0.11381023  0.83952866  1
  H+  H294  1  0.09461276  0.66558826  0.77092148  1
  H+  H295  1  0.58644086  0.66105743  0.43956521  1
  H+  H296  1  0.93590774  0.55678274  0.56983341  1
  H+  H297  1  0.68060120  0.09031396  0.23502400  1
  H+  H298  1  0.32593441  0.92579861  0.73850264  1
  H+  H299  1  0.11763811  0.65032656  0.32933758  1
  H+  H300  1  0.39246136  0.77365106  0.16921983  1
  H+  H301  1  0.06737394  0.42309694  0.40378017  1
  H+  H302  1  0.43254216  0.10472628  0.61646499  1
  H+  H303  1  0.11202831  0.14103294  0.49901169  1
  H+  H304  1  0.82327443  0.90840884  0.73928453  1
  H+  H305  1  0.13244549  0.26251272  -0.00577357  1
  H+  H306  1  0.08793871  0.41357933  0.77030681  1
  H+  H307  1  0.04844765  0.91159862  0.70212424  1
  H+  H308  1  0.17265157  0.08095511  0.65450092  1
  H+  H309  1  0.08749934  0.42188746  0.10335563  1
  H+  H310  1  0.85900118  0.64816358  -0.00520232  1
  H+  H311  1  0.90993719  0.84797846  0.23129076  1
  H+  H312  1  0.62618445  0.60457786  1.00446929  1
  H+  H313  1  0.41927484  0.07819782  0.89449712  1
  H+  H314  1  0.53155555  0.64146980  0.34082369  1
  H+  H315  1  0.37798757  0.55747705  0.92702153  1
  H+  H316  1  0.60803655  0.18288463  0.44514996  1
  H+  H317  1  0.19221235  0.12731907  0.56886201  1
  H+  H318  1  0.32668752  0.15871422  0.05656706  1
  H+  H319  1  0.41219378  0.82201888  0.89993152  1
  H+  H320  1  0.86397261  0.37997308  0.83763201  1
  H+  H321  1  0.42406735  0.58750405  0.60792278  1
  H+  H322  1  0.61186890  0.93081517  0.39944905  1
  H+  H323  1  0.53001555  0.82124536  0.64573264  1
  H+  H324  1  0.84045710  0.68883153  0.81109696  1
  H+  H325  1  0.92789716  0.60657284  0.91670406  1
  H+  H326  1  0.53260365  0.35086529  0.75576067  1
  H+  H327  1  0.18595049  0.35374252  0.59315939  1
  H+  H328  1  0.08935257  0.17647834  0.09593675  1
  H+  H329  1  0.32860605  0.90400002  0.37399122  1
  H+  H330  1  0.65982316  0.59191839  0.91558776  1
  H+  H331  1  0.81773218  0.62969464  0.05997562  1
  H+  H332  1  0.59058638  0.91705120  0.06405584  1
  H+  H333  1  0.90141456  0.13930523  0.17887041  1
  H+  H334  1  0.33308012  0.65970671  0.06810164  1
  H+  H335  1  0.57363217  0.39258892  0.75995815  1
  H+  H336  1  0.13209812  0.20825390  0.73144185  1
  H+  H337  1  0.91434517  0.09231600  0.93592562  1
  H+  H338  1  0.57858438  0.66705339  0.74146778  1
  H+  H339  1  0.08769609  0.91477738  0.07606871  1
  H+  H340  1  0.92142081  0.32931490  0.90382416  1
  H+  H341  1  0.11024527  0.38400837  0.00693150  1
  H+  H342  1  0.26657883  0.13428896  -0.00163586  1
  H+  H343  1  0.91235828  0.55401136  0.24326052  1
  H+  H344  1  0.41048531  0.32913612  0.92754682  1
  H+  H345  1  0.06465746  0.14842638  0.40272685  1
  H+  H346  1  0.89238643  0.06415784  0.59976554  1
  H+  H347  1  0.17968683  0.33045983  0.27321120  1
  H+  H348  1  0.32850124  0.16819794  0.38760544  1
  H+  H349  1  0.37460725  0.06718106  0.24426855  1
  H+  H350  1  0.88724268  0.53383024  0.57126605  1
  H+  H351  1  0.86895582  0.23618523  0.34696073  1
  H+  H352  1  0.67232236  0.58789005  0.24415697  1
  H+  H353  1  0.44608049  0.82989945  0.57362853  1
  H+  H354  1  0.60558931  0.15522723  0.06580396  1
  H+  H355  1  0.91817780  0.09267585  0.26917212  1
  H+  H356  1  0.85603293  0.84529848  0.32128411  1
  H+  H357  1  0.81875022  0.39824744  0.44215949  1
  H+  H358  1  0.12119218  0.64595454  0.99438202  1
  H+  H359  1  0.91837730  0.33254549  0.60672889  1
  H+  H360  1  0.35259117  0.43618207  0.40252872  1
  H+  H361  1  0.39443828  0.28519812  0.50209670  1
  H+  H362  1  0.17100687  0.58254393  0.60347392  1
  H+  H363  1  0.31330585  0.48476915  0.98294704  1
  H+  H364  1  0.66620588  0.32511818  0.58239903  1
  H+  H365  1  0.86727167  0.35220470  0.33012468  1
  H+  H366  1  0.90087247  0.82625761  0.55150095  1
  H+  H367  1  0.83483739  0.16758421  0.77011709  1
  H+  H368  1  0.13839911  0.50605120  0.51026104  1
  H+  H369  1  0.58137289  0.66805241  0.06885133  1
  H+  H370  1  0.50075345  0.40991357  0.18810206  1
  H+  H371  1  0.10286986  0.71447194  0.41503328  1
  H+  H372  1  0.44269440  0.84494404  0.25426988  1
  H+  H373  1  0.05609322  0.88512231  0.79140701  1
  H+  H374  1  0.65980690  0.06864048  0.91933631  1
  H+  H375  1  0.32682136  0.65751575  0.40666951  1
  H+  H376  1  0.59163140  0.21052649  0.34818130  1
  H+  H377  1  0.34326486  0.91078857  0.06752063  1
  H+  H378  1  0.33656733  0.66302204  0.77101323  1
  H+  H379  1  0.41055060  0.58551185  0.23509718  1
  H+  H380  1  0.65281227  0.31285152  0.93421925  1
  H+  H381  1  0.82676731  0.66500871  0.39295512  1
  H+  H382  1  0.32708834  0.90983531  0.42740803  1
  H+  H383  1  0.84921359  0.18080889  0.07499647  1
  O2-  O384  1  0.09704460  0.17852832  0.14078402  1
  O2-  O385  1  0.06938867  0.15467357  0.47955060  1
  O2-  O386  1  0.12884949  0.19596456  0.81028320  1
  O2-  O387  1  0.09261975  0.42624215  0.14849288  1
  O2-  O388  1  0.08300432  0.41374954  0.48473396  1
  O2-  O389  1  0.08826984  0.41162589  0.81571851  1
  O2-  O390  1  0.08712272  0.66847183  0.16515931  1
  O2-  O391  1  0.10044128  0.72128210  0.46052256  1
  O2-  O392  1  0.09431215  0.66336065  0.81616359  1
  O2-  O393  1  0.09378722  0.92606792  0.15549350  1
  O2-  O394  1  0.05999502  0.92599887  0.46259820  1
  O2-  O395  1  0.07470214  0.90591643  0.83317382  1
  O2-  O396  1  0.32579257  0.15013962  0.13370736  1
  O2-  O397  1  0.34533418  0.18030418  0.47019466  1
  O2-  O398  1  0.34051660  0.17786536  0.83152889  1
  O2-  O399  1  0.34395269  0.42233333  0.14286463  1
  O2-  O400  1  0.34759802  0.43160727  0.48260583  1
  O2-  O401  1  0.34368921  0.41946447  0.81655058  1
  O2-  O402  1  0.33351706  0.67173494  0.14400827  1
  O2-  O403  1  0.33771671  0.66025308  0.48281328  1
  O2-  O404  1  0.33501803  0.66025266  0.81625584  1
  O2-  O405  1  0.33295576  0.90669687  0.14953893  1
  O2-  O406  1  0.32520055  0.91455785  0.47654265  1
  O2-  O407  1  0.33679073  0.91703338  0.80668467  1
  O2-  O408  1  0.58703469  0.15740734  0.14519136  1
  O2-  O409  1  0.59332952  0.17036183  0.48875514  1
  O2-  O410  1  0.54367400  0.20925162  0.78477488  1
  O2-  O411  1  0.59470720  0.41994521  0.13804365  1
  O2-  O412  1  0.58063244  0.41764488  0.50046022  1
  O2-  O413  1  0.59785450  0.42503674  0.87565233  1
  O2-  O414  1  0.57160530  0.66263063  0.15263905  1
  O2-  O415  1  0.58628423  0.66240461  0.48488326  1
  O2-  O416  1  0.57486478  0.66351647  0.81859356  1
  O2-  O417  1  0.59309448  0.92169110  0.14569015  1
  O2-  O418  1  0.59996898  0.92299095  0.47779567  1
  O2-  O419  1  0.59538661  0.92819174  0.78523068  1
  O2-  O420  1  0.84831157  0.17512448  0.15511136  1
  O2-  O421  1  0.83655441  0.16113070  0.48625857  1
  O2-  O422  1  0.82924392  0.16639977  0.81596126  1
  O2-  O423  1  0.83810553  0.39142260  0.15149559  1
  O2-  O424  1  0.82747170  0.40359403  0.48724193  1
  O2-  O425  1  0.83287446  0.40986489  0.82359257  1
  O2-  O426  1  0.81773619  0.60631859  0.14416383  1
  O2-  O427  1  0.82510641  0.66024915  0.46884444  1
  O2-  O428  1  0.83382828  0.70067882  0.85378560  1
  O2-  O429  1  0.81172996  0.89630909  0.12735953  1
  O2-  O430  1  0.80985021  0.89210372  0.46221042  1
  O2-  O431  1  0.82216800  0.91048571  0.82318646  1
  O2-  O432  1  0.17108892  0.09205594  0.18563071  1
  O2-  O433  1  0.18319276  0.11329861  0.52321189  1
  O2-  O434  1  0.16787600  0.08058120  0.86076480  1
  O2-  O435  1  0.18050156  0.34557627  0.18723662  1
  O2-  O436  1  0.18665879  0.34702656  0.50942907  1
  O2-  O437  1  0.18169994  0.34533898  0.85819759  1
  O2-  O438  1  0.17287426  0.58899466  0.19205771  1
  O2-  O439  1  0.17209112  0.56943186  0.52351550  1
  O2-  O440  1  0.17028812  0.57553882  0.85567342  1
  O2-  O441  1  0.16788253  0.84183221  0.21052467  1
  O2-  O442  1  0.15297453  0.86577838  0.53567052  1
  O2-  O443  1  0.17524156  0.83091676  0.85343951  1
  O2-  O444  1  0.41931028  0.07298041  0.17267852  1
  O2-  O445  1  0.43373450  0.10542382  0.52955360  1
  O2-  O446  1  0.41288698  0.07760877  0.84854511  1
  O2-  O447  1  0.46267344  0.41970092  0.21464620  1
  O2-  O448  1  0.42039461  0.34220915  0.52239034  1
  O2-  O449  1  0.41379484  0.33133646  0.86924664  1
  O2-  O450  1  0.40634268  0.58772888  0.18999749  1
  O2-  O451  1  0.42804581  0.58825090  0.53072075  1
  O2-  O452  1  0.40512930  0.57610418  0.86510425  1
  O2-  O453  1  0.42596278  0.83504501  0.18381291  1
  O2-  O454  1  0.43196073  0.82607888  0.52852716  1
  O2-  O455  1  0.40931447  0.81748412  0.85488838  1
  O2-  O456  1  0.68129159  0.08894547  0.18947665  1
  O2-  O457  1  0.67362728  0.07812517  0.52967284  1
  O2-  O458  1  0.66281011  0.08085966  0.85513475  1
  O2-  O459  1  0.65066756  0.32063030  0.18833689  1
  O2-  O460  1  0.66327672  0.32462407  0.53681079  1
  O2-  O461  1  0.66400257  0.32662427  0.85665225  1
  O2-  O462  1  0.68590296  0.60990522  0.19952879  1
  O2-  O463  1  0.67572837  0.59131474  0.53574507  1
  O2-  O464  1  0.67011363  0.59912698  0.87009997  1
  O2-  O465  1  0.66705375  0.82867593  0.19816353  1
  O2-  O466  1  0.66463024  0.82591517  0.52329510  1
  O2-  O467  1  0.65356898  0.82899543  0.85114216  1
  O2-  O468  1  0.94022814  0.11591046  0.19635244  1
  O2-  O469  1  0.88968351  0.04949195  0.51174169  1
  O2-  O470  1  0.88764439  0.07560286  0.86162732  1
  O2-  O471  1  0.93050679  0.33142422  0.19432625  1
  O2-  O472  1  0.91938537  0.32722630  0.52713439  1
  O2-  O473  1  0.91992290  0.32810062  0.85808307  1
  O2-  O474  1  0.91899468  0.55475251  0.19865919  1
  O2-  O475  1  0.92489622  0.58663213  0.45981192  1
  O2-  O476  1  0.92403380  0.58351974  0.84965858  1
  O2-  O477  1  0.92113907  0.86019447  0.18596856  1
  O2-  O478  1  0.90410792  0.82655377  0.50627929  1
  O2-  O479  1  0.91949116  0.85252190  0.88388920  1
  O2-  O480  1  0.15459828  0.08877821  0.31245980  1
  O2-  O481  1  0.20160453  0.14009253  0.63925665  1
  O2-  O482  1  0.15673847  0.08035777  0.98031488  1
  O2-  O483  1  0.18081148  0.31701796  0.31659330  1
  O2-  O484  1  0.18406677  0.35850029  0.63793246  1
  O2-  O485  1  0.16214395  0.32758304  0.97763266  1
  O2-  O486  1  0.15553999  0.58628728  0.31203640  1
  O2-  O487  1  0.16994012  0.58727793  0.64846434  1
  O2-  O488  1  0.16565118  0.57848542  0.97883995  1
  O2-  O489  1  0.16232756  0.84375788  0.27763894  1
  O2-  O490  1  0.14751446  0.82899589  0.65635087  1
  O2-  O491  1  0.19371672  0.84202936  0.97405012  1
  O2-  O492  1  0.33724370  0.05168663  0.28085598  1
  O2-  O493  1  0.42338268  0.10325620  0.66086610  1
  O2-  O494  1  0.41429602  0.07616237  0.96770980  1
  O2-  O495  1  0.43143713  0.34811400  0.32294619  1
  O2-  O496  1  0.42816728  0.34573232  0.63918158  1
  O2-  O497  1  0.41010633  0.32644853  0.97956631  1
  O2-  O498  1  0.42934883  0.59305853  0.31464861  1
  O2-  O499  1  0.41941637  0.58540377  0.65341097  1
  O2-  O500  1  0.36037198  0.54468832  0.97411032  1
  O2-  O501  1  0.44945040  0.84981615  0.30085385  1
  O2-  O502  1  0.47724069  0.82550289  0.64535471  1
  O2-  O503  1  0.41779228  0.81806796  0.98136473  1
  O2-  O504  1  0.68545087  0.10412936  0.31253323  1
  O2-  O505  1  0.67815338  0.07973493  0.64852860  1
  O2-  O506  1  0.66248365  0.06588222  0.96760944  1
  O2-  O507  1  0.62355237  0.32992625  0.24933354  1
  O2-  O508  1  0.66947280  0.33465436  0.65894523  1
  O2-  O509  1  0.64663900  0.31161672  0.97965769  1
  O2-  O510  1  0.66273063  0.56778853  0.31226321  1
  O2-  O511  1  0.67834772  0.60116620  0.65729108  1
  O2-  O512  1  0.65215704  0.57017942  0.98760911  1
  O2-  O513  1  0.75273961  0.91212788  0.31100119  1
  O2-  O514  1  0.64741914  0.82513503  0.64362968  1
  O2-  O515  1  0.66305612  0.83138978  0.97496588  1
  O2-  O516  1  0.90700392  0.07680824  0.31360905  1
  O2-  O517  1  0.90139461  0.07440081  0.64379655  1
  O2-  O518  1  0.92601501  0.09377313  0.98051804  1
  O2-  O519  1  0.90357746  0.32808277  0.31699552  1
  O2-  O520  1  0.91884509  0.33490768  0.65212068  1
  O2-  O521  1  0.91681716  0.33235481  0.98056638  1
  O2-  O522  1  0.91527847  0.57693365  0.32812240  1
  O2-  O523  1  0.91412302  0.58536767  0.68585996  1
  O2-  O524  1  0.93481357  0.62263446  0.96264821  1
  O2-  O525  1  0.89712832  0.82923769  0.30362155  1
  O2-  O526  1  0.88863937  0.81568878  0.63128063  1
  O2-  O527  1  0.91522572  0.84959857  0.95134924  1
  O2-  O528  1  0.08506043  0.17397885  0.01357001  1
  O2-  O529  1  0.05913204  0.13687367  0.35795738  1
  O2-  O530  1  0.12215935  0.20370472  0.68683095  1
  O2-  O531  1  0.08221126  0.41550477  0.02271162  1
  O2-  O532  1  0.05490621  0.42324761  0.36014769  1
  O2-  O533  1  0.08703520  0.42033416  0.69019400  1
  O2-  O534  1  0.10008419  0.68605625  0.00450973  1
  O2-  O535  1  0.08974109  0.68531059  0.34115437  1
  O2-  O536  1  0.08408718  0.66370650  0.69219359  1
  O2-  O537  1  0.08178001  0.90362924  0.03112113  1
  O2-  O538  1  0.06900587  0.91523235  0.33729616  1
  O2-  O539  1  0.02530157  0.85013963  0.70836474  1
  O2-  O540  1  0.32797617  0.16479372  0.01130260  1
  O2-  O541  1  0.31497035  0.16616873  0.34371809  1
  O2-  O542  1  0.35787945  0.20447951  0.68411660  1
  O2-  O543  1  0.24473640  0.37973745  0.00933863  1
  O2-  O544  1  0.35524906  0.43723423  0.35742944  1
  O2-  O545  1  0.34066923  0.42236166  0.69082955  1
  O2-  O546  1  0.33270673  0.65616344  0.02219727  1
  O2-  O547  1  0.32244712  0.65807914  0.36101025  1
  O2-  O548  1  0.33549412  0.66561435  0.69004163  1
  O2-  O549  1  0.35097485  0.91356911  0.02273982  1
  O2-  O550  1  0.32989673  0.89903864  0.32903862  1
  O2-  O551  1  0.31891446  0.93174196  0.69203901  1
  O2-  O552  1  0.61232136  0.15384474  0.02108711  1
  O2-  O553  1  0.64982417  0.22543293  0.36031235  1
  O2-  O554  1  0.57645009  0.19207882  0.72847357  1
  O2-  O555  1  0.56894401  0.40217477  0.01728337  1
  O2-  O556  1  0.60747277  0.38895700  0.34919381  1
  O2-  O557  1  0.58833233  0.42533019  0.64381195  1
  O2-  O558  1  0.58517510  0.66363785  0.02436191  1
  O2-  O559  1  0.59011881  0.66126123  0.35911042  1
  O2-  O560  1  0.58007487  0.66811493  0.69578265  1
  O2-  O561  1  0.58560974  0.91302868  0.01888829  1
  O2-  O562  1  0.62231364  0.93651631  0.35444673  1
  O2-  O563  1  0.59495829  0.92961768  0.72650055  1
  O2-  O564  1  0.84857240  0.18172675  0.02990010  1
  O2-  O565  1  0.84052597  0.17510157  0.36373460  1
  O2-  O566  1  0.84059755  0.16812171  0.69530423  1
  O2-  O567  1  0.81114619  0.37955426  0.02555939  1
  O2-  O568  1  0.81182503  0.40307171  0.36425366  1
  O2-  O569  1  0.83287721  0.40899843  0.70035457  1
  O2-  O570  1  0.81741433  0.65505278  0.02050018  1
  O2-  O571  1  0.82954223  0.66173796  0.34726316  1
  O2-  O572  1  0.84470876  0.68001330  0.72384187  1
  O2-  O573  1  0.83493412  0.92500949  0.00410279  1
  O2-  O574  1  0.75999501  0.84579193  0.34634406  1
  O2-  O575  1  0.81790845  0.90945617  0.69439517  1
