# generated using pymatgen
data_H2O
_symmetry_space_group_name_H-M   'P 1'
_cell_length_a   17.98822093
_cell_length_b   17.99174700
_cell_length_c   22.00491056
_cell_angle_alpha   89.99697914
_cell_angle_beta   90.00461732
_cell_angle_gamma   119.97726416
_symmetry_Int_Tables_number   1
_chemical_formula_structural   H2O
_chemical_formula_sum   'H384 O192'
_cell_volume   6168.94982958
_cell_formula_units_Z   192
loop_
 _symmetry_equiv_pos_site_id
 _symmetry_equiv_pos_as_xyz
  1  'x, y, z'
loop_
 _atom_type_symbol
 _atom_type_oxidation_number
  H+  1.0
  O2-  -2.0
loop_
 _atom_site_type_symbol
 _atom_site_label
 _atom_site_symmetry_multiplicity
 _atom_site_fract_x
 _atom_site_fract_y
 _atom_site_fract_z
 _atom_site_occupancy
  H+  H0  1  0.33105023  0.15805046  0.43393870  1
  H+  H1  1  0.96371645  0.59094888  0.32810964  1
  H+  H2  1  0.64156564  0.68453803  0.76776731  1
  H+  H3  1  0.77442585  0.38407786  0.99659331  1
  H+  H4  1  0.65152605  0.93667483  0.18026450  1
  H+  H5  1  0.37802845  0.11002840  0.83327231  1
  H+  H6  1  0.12856767  0.26552541  0.33328349  1
  H+  H7  1  0.53455048  0.63827345  0.49575164  1
  H+  H8  1  0.64174530  0.10390080  0.98673496  1
  H+  H9  1  0.38134426  0.02299551  0.83622695  1
  H+  H10  1  0.82401679  0.62795640  0.66859046  1
  H+  H11  1  0.62640735  0.32412875  0.18113139  1
  H+  H12  1  0.03930632  0.90239872  0.79908006  1
  H+  H13  1  0.12947791  0.01694888  0.18204129  1
  H+  H14  1  0.22346841  0.35812550  0.51638815  1
  H+  H15  1  0.27592269  0.13776851  0.33925586  1
  H+  H16  1  0.80254496  0.15180891  0.52196805  1
  H+  H17  1  0.45704078  0.60673034  0.16585809  1
  H+  H18  1  0.97566206  0.85441628  0.66029680  1
  H+  H19  1  1.00767385  0.12723661  0.15457493  1
  H+  H20  1  0.13052882  0.83462170  0.64797678  1
  H+  H21  1  0.26140271  0.63306063  0.82668370  1
  H+  H22  1  0.06349447  0.38527953  0.13864940  1
  H+  H23  1  0.35767527  0.88599591  0.82927743  1
  H+  H24  1  0.10381640  0.38331880  0.33997791  1
  H+  H25  1  0.96678326  0.36272710  0.33215539  1
  H+  H26  1  0.23430909  0.85685786  0.51096564  1
  H+  H27  1  0.60880105  0.22424381  0.82206652  1
  H+  H28  1  0.58906458  0.12195557  0.49417307  1
  H+  H29  1  0.43435101  0.81674298  0.19743673  1
  H+  H30  1  0.68681126  0.57024638  1.02061411  1
  H+  H31  1  0.11689359  0.73892183  0.64904832  1
  H+  H32  1  0.45653349  0.52973991  0.30114499  1
  H+  H33  1  0.37102303  0.15136172  0.33459423  1
  H+  H34  1  0.84741551  0.62202165  0.33676500  1
  H+  H35  1  0.35475482  0.10581129  0.65507367  1
  H+  H36  1  0.10911993  0.47626422  0.34085655  1
  H+  H37  1  0.85324783  0.46488123  0.67824663  1
  H+  H38  1  0.63370073  0.62117533  0.32481991  1
  H+  H39  1  0.50558728  0.35342258  0.00528711  1
  H+  H40  1  0.87924699  0.77258102  0.66393321  1
  H+  H41  1  0.37182989  0.09463516  0.50666152  1
  H+  H42  1  0.21174183  0.79869108  0.31799586  1
  H+  H43  1  0.52703069  0.14206558  0.32993934  1
  H+  H44  1  0.46487403  0.35217117  0.50181025  1
  H+  H45  1  0.61209973  0.44977508  0.16187154  1
  H+  H46  1  0.88561487  0.52111156  0.98736445  1
  H+  H47  1  0.22784250  0.35030285  -0.01134730  1
  H+  H48  1  0.08662638  0.70859007  0.34570674  1
  H+  H49  1  0.53164187  0.65434990  0.33815230  1
  H+  H50  1  0.14120620  0.33194040  0.16737212  1
  H+  H51  1  0.44769371  0.59123179  0.82117544  1
  H+  H52  1  0.62988263  0.89917656  0.34486352  1
  H+  H53  1  0.70249380  0.35161867  0.49687026  1
  H+  H54  1  0.38864973  0.51855831  0.67044972  1
  H+  H55  1  0.09924244  0.46076479  0.99025912  1
  H+  H56  1  0.12464740  0.61223269  0.34186475  1
  H+  H57  1  0.11843640  0.60380797  0.98883157  1
  H+  H58  1  0.98088166  0.60178483  0.66409032  1
  H+  H59  1  0.86140306  0.64578766  0.16191837  1
  H+  H60  1  0.12474324  0.35262721  0.83848334  1
  H+  H61  1  0.13241120  0.61549980  0.82675232  1
  H+  H62  1  -0.02576065  0.35073852  0.82912557  1
  H+  H63  1  0.53348818  0.60411499  0.67877537  1
  H+  H64  1  0.47207325  0.35286016  0.17542761  1
  H+  H65  1  0.76293523  0.90016965  0.17012536  1
  H+  H66  1  0.63565070  0.61152127  0.49477246  1
  H+  H67  1  0.84816793  0.23004740  0.15647976  1
  H+  H68  1  0.14162863  1.02047243  0.33250325  1
  H+  H69  1  0.24435059  0.12368630  0.66665204  1
  H+  H70  1  0.90061692  0.11361914  0.51005274  1
  H+  H71  1  0.59190085  0.44002172  -0.00255389  1
  H+  H72  1  0.12434064  0.13515173  0.34660480  1
  H+  H73  1  0.85385638  0.38006240  0.82782103  1
  H+  H74  1  0.71977546  0.14744900  0.14389687  1
  H+  H75  1  0.83826642  0.13667676  0.14502279  1
  H+  H76  1  0.49909606  0.39051782  0.34239762  1
  H+  H77  1  0.65578295  0.61880503  0.84299081  1
  H+  H78  1  0.63395282  1.00953333  0.83383358  1
  H+  H79  1  0.11800243  0.96264880  0.65502115  1
  H+  H80  1  0.36785811  1.01606871  0.66388240  1
  H+  H81  1  0.65348670  0.03557405  0.32626594  1
  H+  H82  1  0.51832963  0.90868193  0.19023953  1
  H+  H83  1  0.01818830  0.39690623  0.49507182  1
  H+  H84  1  0.25080952  0.37773913  0.34492158  1
  H+  H85  1  0.88672730  0.76706255  0.32677732  1
  H+  H86  1  0.11958900  0.23497257  0.67221871  1
  H+  H87  1  0.20152499  0.59393796  0.98116380  1
  H+  H88  1  0.83835702  0.71107660  0.82395710  1
  H+  H89  1  0.27067674  0.12431931  0.49408151  1
  H+  H90  1  0.38323795  0.77215152  0.84326383  1
  H+  H91  1  0.10334218  0.88455873  0.16661396  1
  H+  H92  1  0.62867404  0.25812156  0.33330830  1
  H+  H93  1  0.68979429  0.61613286  0.66870935  1
  H+  H94  1  0.13487275  0.11871442  0.82641218  1
  H+  H95  1  0.36139359  0.12105875  0.00670350  1
  H+  H96  1  0.51856347  0.89124126  0.81983362  1
  H+  H97  1  0.73683371  0.11525945  -0.01443820  1
  H+  H98  1  0.39991355  0.85347043  0.59868112  1
  H+  H99  1  0.38474384  0.92811631  0.33992269  1
  H+  H100  1  0.40235870  0.32090084  0.59719836  1
  H+  H101  1  0.59282622  0.48278593  0.34111206  1
  H+  H102  1  0.11715447  0.48012845  0.67218261  1
  H+  H103  1  0.98328209  0.11757623  0.66241185  1
  H+  H104  1  0.62871041  0.64949874  -0.01093802  1
  H+  H105  1  0.12114687  0.66199132  0.16323940  1
  H+  H106  1  0.91620735  0.58438376  0.92809863  1
  H+  H107  1  0.86154463  0.01635291  0.15134177  1
  H+  H108  1  0.95319226  0.36603819  0.18965513  1
  H+  H109  1  0.64874524  0.77510294  0.99312942  1
  H+  H110  1  0.11942647  0.97056371  0.49906997  1
  H+  H111  1  0.94732397  0.52326752  0.61849168  1
  H+  H112  1  0.84825644  0.46816362  0.50432493  1
  H+  H113  1  0.61598393  0.21978223  0.66838982  1
  H+  H114  1  0.51137843  0.66551359  0.76465849  1
  H+  H115  1  0.12544771  0.14773481  0.67139889  1
  H+  H116  1  0.87573041  0.77819084  -0.01166595  1
  H+  H117  1  0.88930515  0.27276550  0.66130677  1
  H+  H118  1  0.52710880  0.89778212  0.66321333  1
  H+  H119  1  0.12137211  0.89438125  0.81977466  1
  H+  H120  1  0.56864020  0.89495916  1.01559158  1
  H+  H121  1  0.89218246  0.01973715  0.51000069  1
  H+  H122  1  0.61748641  0.88780242  0.50068462  1
  H+  H123  1  0.88763865  0.36880696  0.51362316  1
  H+  H124  1  0.63659644  0.05235410  0.16033123  1
  H+  H125  1  0.61476627  0.21530402  -0.00156326  1
  H+  H126  1  0.91831480  0.82883744  0.56955324  1
  H+  H127  1  0.02844466  0.65302237  0.15540475  1
  H+  H128  1  0.11541242  0.38995521  0.67181966  1
  H+  H129  1  0.62897473  0.34011749  -0.00737446  1
  H+  H130  1  0.60746112  0.47911886  0.48544477  1
  H+  H131  1  0.82317196  0.82615317  0.99849247  1
  H+  H132  1  0.62229817  0.74319208  0.33725161  1
  H+  H133  1  0.63136819  0.71986193  0.14887543  1
  H+  H134  1  0.40565360  0.50335171  0.51602236  1
  H+  H135  1  0.72242900  0.59816141  0.17465857  1
  H+  H136  1  0.67526768  0.87443978  1.01783431  1
  H+  H137  1  1.03493603  0.13315918  0.35745095  1
  H+  H138  1  0.11665244  0.49279588  0.49106824  1
  H+  H139  1  0.34511222  0.45318088  0.82355822  1
  H+  H140  1  0.88129514  0.26326031  0.97720647  1
  H+  H141  1  0.45779942  0.34868834  0.65897390  1
  H+  H142  1  0.62006011  0.00730034  0.50664793  1
  H+  H143  1  0.16361013  0.57676976  0.19055391  1
  H+  H144  1  0.58469063  0.46736163  0.67613109  1
  H+  H145  1  0.88263630  0.27062732  0.33900643  1
  H+  H146  1  0.84399836  0.46058406  0.35508172  1
  H+  H147  1  0.25703247  0.36444289  0.82397290  1
  H+  H148  1  0.46130169  0.09760947  0.51014115  1
  H+  H149  1  0.63752860  0.59661691  0.16369827  1
  H+  H150  1  0.09060518  0.61852129  0.49199367  1
  H+  H151  1  0.38010392  0.62283446  0.17848194  1
  H+  H152  1  0.36967458  0.90569782  0.67359522  1
  H+  H153  1  0.88968808  0.64101636  0.00533104  1
  H+  H154  1  0.87042194  -0.03099258  0.35574661  1
  H+  H155  1  0.65944740  0.74805536  0.82495020  1
  H+  H156  1  0.10410173  0.20657977  0.16460999  1
  H+  H157  1  0.76327082  0.62995645  0.33750301  1
  H+  H158  1  0.37927422  0.25949311  0.50290468  1
  H+  H159  1  0.76174743  0.61568690  0.82411173  1
  H+  H160  1  0.42376903  0.84337152  0.01242193  1
  H+  H161  1  0.48827468  0.59640603  0.97586633  1
  H+  H162  1  0.37807623  0.33749351  0.99492821  1
  H+  H163  1  0.36674752  0.35743098  0.33070962  1
  H+  H164  1  0.09559447  0.46816513  0.82344451  1
  H+  H165  1  0.79927086  0.89242504  0.10531919  1
  H+  H166  1  0.01861218  0.63187000  0.00114338  1
  H+  H167  1  0.22209578  0.36468702  0.66310083  1
  H+  H168  1  0.73448911  0.10247372  0.83535687  1
  H+  H169  1  0.35124678  0.46216670  0.15585299  1
  H+  H170  1  0.72747356  0.87701699  0.84150675  1
  H+  H171  1  0.89190822  0.32013852  0.24428673  1
  H+  H172  1  0.06716239  0.46953187  0.17366940  1
  H+  H173  1  0.36766772  0.45398528  0.00154972  1
  H+  H174  1  0.47540091  0.10497130  0.98511743  1
  H+  H175  1  0.34582562  0.62890167  0.02480100  1
  H+  H176  1  0.85113050  0.37608153  0.67840530  1
  H+  H177  1  0.24646688  0.62429991  0.65376097  1
  H+  H178  1  0.29234091  0.68041546  0.18985033  1
  H+  H179  1  0.49051920  0.52786715  0.55153375  1
  H+  H180  1  0.87026495  0.60826808  0.50670337  1
  H+  H181  1  0.22036749  0.62321361  0.33877581  1
  H+  H182  1  0.61521379  0.13771747  0.34125382  1
  H+  H183  1  0.08753947  0.04717432  0.63572680  1
  H+  H184  1  0.40111617  0.05229787  0.31480023  1
  H+  H185  1  0.81044637  0.65957808  0.73254723  1
  H+  H186  1  0.39144287  0.79203090  0.65403480  1
  H+  H187  1  0.35341141  0.37762595  0.66917317  1
  H+  H188  1  0.10917909  0.22051645  0.82426163  1
  H+  H189  1  0.35355520  0.37319236  0.49389386  1
  H+  H190  1  0.86793657  0.88339786  0.50334890  1
  H+  H191  1  0.51167697  0.37570236  0.82846002  1
  H+  H192  1  0.73617091  0.86704281  0.33226677  1
  H+  H193  1  0.40492996  0.81468107  0.33624086  1
  H+  H194  1  0.64212862  0.77480332  0.51437682  1
  H+  H195  1  0.13924165  0.78456100  0.83217010  1
  H+  H196  1  0.99959680  0.61649734  0.49364415  1
  H+  H197  1  0.88048736  0.25331478  0.82888735  1
  H+  H198  1  0.87526670  0.86524888  0.17604981  1
  H+  H199  1  0.62947119  0.36002741  0.83939467  1
  H+  H200  1  0.13895375  0.35177852  0.98300164  1
  H+  H201  1  0.86919377  0.87956937  0.34792981  1
  H+  H202  1  0.77139421  0.40326019  0.18852608  1
  H+  H203  1  0.23521058  0.12231903  0.82334927  1
  H+  H204  1  -0.02386147  0.11338021  0.83493330  1
  H+  H205  1  0.84772854  0.37373055  0.35149189  1
  H+  H206  1  -0.02624516  0.35181995  -0.02838213  1
  H+  H207  1  0.09933294  0.46383735  0.19339488  1
  H+  H208  1  0.01253881  0.88351558  0.16411330  1
  H+  H209  1  0.61815878  0.98663962  0.66715113  1
  H+  H210  1  0.26989734  0.89014501  0.82957744  1
  H+  H211  1  0.71965722  0.35375976  0.33622483  1
  H+  H212  1  0.11606317  0.21563603  0.00575134  1
  H+  H213  1  0.52091219  0.13774219  0.81958126  1
  H+  H214  1  0.02803145  0.87721690  0.34264957  1
  H+  H215  1  0.78205485  0.13885075  0.35063211  1
  H+  H216  1  0.34365892  0.14864667  0.07129804  1
  H+  H217  1  0.73599419  0.88074467  0.66070325  1
  H+  H218  1  0.37565420  0.64152940  0.67545176  1
  H+  H219  1  0.13780883  0.10653975  0.00631819  1
  H+  H220  1  0.64324368  0.11927783  0.66163247  1
  H+  H221  1  0.85506043  0.88716408  0.82481039  1
  H+  H222  1  0.63415736  0.86280653  0.83674492  1
  H+  H223  1  0.67511069  0.11172534  0.27478879  1
  H+  H224  1  0.22359041  0.87705342  0.17354042  1
  H+  H225  1  0.47890162  0.93767913  0.98435154  1
  H+  H226  1  0.94008587  0.83068679  0.85950066  1
  H+  H227  1  0.87350183  0.77559107  0.17398826  1
  H+  H228  1  0.20613745  0.86428666  0.98852260  1
  H+  H229  1  0.35653342  0.68325177  0.29147525  1
  H+  H230  1  0.86233034  0.88870076  0.67044285  1
  H+  H231  1  0.98027232  0.85860608  0.51113080  1
  H+  H232  1  0.76290545  0.64960641  -0.00806575  1
  H+  H233  1  0.22126250  0.62208600  0.49782884  1
  H+  H234  1  0.16209720  0.33197079  0.60302477  1
  H+  H235  1  0.12468149  0.10132837  0.18154072  1
  H+  H236  1  0.23149897  0.34026568  0.17639006  1
  H+  H237  1  0.11712056  0.87838606  0.34510867  1
  H+  H238  1  0.65226796  -0.01652121  1.00988574  1
  H+  H239  1  0.77513648  0.13597348  0.66978265  1
  H+  H240  1  0.31595042  0.62024588  0.99755468  1
  H+  H241  1  0.86310861  0.38793973  -0.01050850  1
  H+  H242  1  0.34734075  0.62860553  0.82921211  1
  H+  H243  1  0.62233403  0.35163659  0.65815005  1
  H+  H244  1  0.01146845  0.28832193  0.11861812  1
  H+  H245  1  0.71202977  0.35646447  0.66207599  1
  H+  H246  1  0.34050323  0.46617298  0.34390381  1
  H+  H247  1  0.14047838  0.26579846  0.51769466  1
  H+  H248  1  0.14330198  0.10197324  0.50851237  1
  H+  H249  1  0.51234675  0.70760503  0.76075761  1
  H+  H250  1  0.35051210  0.98219361  -0.00448625  1
  H+  H251  1  0.63135759  0.83033489  0.18817840  1
  H+  H252  1  0.33750750  0.88875490  -0.00404791  1
  H+  H253  1  0.97483715  0.11399681  0.99324434  1
  H+  H254  1  0.71993660  0.60491724  0.49809544  1
  H+  H255  1  0.12176604  0.77102230  0.98943829  1
  H+  H256  1  0.35506432  0.68453346  0.49336642  1
  H+  H257  1  0.85763138  0.40314448  0.18327022  1
  H+  H258  1  0.54505697  0.90884725  0.34871399  1
  H+  H259  1  0.58391355  0.15284414  1.05603001  1
  H+  H260  1  0.37246367  0.34462261  0.84111129  1
  H+  H261  1  0.19109840  0.73127860  0.77758472  1
  H+  H262  1  0.86389948  0.12974571  0.82205939  1
  H+  H263  1  0.37760936  0.24803366  0.99650378  1
  H+  H264  1  0.69028032  0.09909303  0.48435420  1
  H+  H265  1  0.35349496  0.22071502  0.81948701  1
  H+  H266  1  0.58935859  0.66770827  0.04569992  1
  H+  H267  1  0.59387160  0.91894226  0.43951578  1
  H+  H268  1  0.22829736  0.10149242  0.01057659  1
  H+  H269  1  0.36259650  -0.04720251  0.51345167  1
  H+  H270  1  0.89352375  0.11344189  0.35234084  1
  H+  H271  1  0.07771431  0.60505875  0.69073215  1
  H+  H272  1  0.88203710  0.24167369  0.50562585  1
  H+  H273  1  0.28869114  0.76847615  0.06433649  1
  H+  H274  1  0.61279292  0.26501692  0.48664837  1
  H+  H275  1  0.97694692  0.36417341  0.66342005  1
  H+  H276  1  0.86078298  0.72593135  0.49320386  1
  H+  H277  1  0.89054659  0.54428136  0.17995845  1
  H+  H278  1  0.05674302  0.64688808  0.40616749  1
  H+  H279  1  0.14126491  0.86247904  0.50800989  1
  H+  H280  1  0.64025955  0.88162458  0.65810366  1
  H+  H281  1  0.39661950  0.58598360  0.98115119  1
  H+  H282  1  0.29601648  0.92790762  0.33365346  1
  H+  H283  1  0.72029786  0.36252718  0.83953965  1
  H+  H284  1  0.03393384  0.12982974  0.50009548  1
  H+  H285  1  0.88409605  0.52316405  0.84124317  1
  H+  H286  1  0.86816005  0.98140977  0.67032733  1
  H+  H287  1  0.39470744  0.07515506  0.59571779  1
  H+  H288  1  0.82081524  0.40343453  0.44846687  1
  H+  H289  1  0.67381747  0.07064514  0.90047298  1
  H+  H290  1  0.16696496  0.06830034  0.56951127  1
  H+  H291  1  0.09804853  0.16480182  0.44311851  1
  H+  H292  1  0.65512809  0.57894944  0.26691078  1
  H+  H293  1  0.32732751  0.71370532  0.03792684  1
  H+  H294  1  0.31477507  0.92941150  0.09651309  1
  H+  H295  1  0.93228161  0.73018764  0.04031629  1
  H+  H296  1  0.87590603  0.07547248  0.20706701  1
  H+  H297  1  0.08465417  0.16552901  0.76211796  1
  H+  H298  1  0.08056429  0.15722789  0.06642088  1
  H+  H299  1  0.60272125  0.38244715  0.47698883  1
  H+  H300  1  0.56306984  0.40549659  0.73256567  1
  H+  H301  1  0.10240980  0.88666016  1.01047302  1
  H+  H302  1  0.58753008  0.68160983  0.43382147  1
  H+  H303  1  0.16414007  0.07790359  0.27176273  1
  H+  H304  1  0.83826967  0.16917960  0.41284611  1
  H+  H305  1  0.57868092  0.38855854  0.10441841  1
  H+  H306  1  0.56142256  0.14979434  0.43321208  1
  H+  H307  1  0.15919293  0.81118170  0.56939009  1
  H+  H308  1  0.83279020  0.92246190  0.76480153  1
  H+  H309  1  0.65609756  0.25087443  0.19974741  1
  H+  H310  1  0.08728745  0.90859751  0.44046596  1
  H+  H311  1  0.35507265  0.72424814  0.13484386  1
  H+  H312  1  0.08134893  0.66660638  0.06020365  1
  H+  H313  1  0.07455015  0.41030661  0.76399014  1
  H+  H314  1  0.33572017  0.21439896  0.66499060  1
  H+  H315  1  0.82954458  0.66787208  0.10213195  1
  H+  H316  1  0.15820873  0.32044783  0.89587247  1
  H+  H317  1  0.14252704  0.57433548  0.88915845  1
  H+  H318  1  0.33162651  0.40026294  0.06395742  1
  H+  H319  1  0.59128984  0.16258227  0.72894459  1
  H+  H320  1  0.61869364  0.95306484  0.11321760  1
  H+  H321  1  0.57923934  0.92317436  0.75974550  1
  H+  H322  1  0.83345774  0.17807890  0.05376309  1
  H+  H323  1  0.92925681  0.61933208  0.22820807  1
  H+  H324  1  0.66077325  0.32020107  0.93012585  1
  H+  H325  1  0.69106486  0.74376809  0.09119090  1
  H+  H326  1  0.07634338  0.42194637  0.42934588  1
  H+  H327  1  0.92519536  0.08485151  0.60256872  1
  H+  H328  1  0.86562501  0.13653912  0.67162058  1
  H+  H329  1  0.67293460  0.84318128  0.59640950  1
  H+  H330  1  0.41160690  0.33480895  0.23324778  1
  H+  H331  1  0.42658652  0.84044319  0.89790980  1
  H+  H332  1  0.89873349  0.52100428  0.27835728  1
  H+  H333  1  0.91584164  0.83131914  0.27019676  1
  H+  H334  1  0.59963536  0.46630548  0.82901472  1
  H+  H335  1  0.43102784  0.57571884  0.61257516  1
  H+  H336  1  0.15688993  0.31983022  0.27126931  1
  H+  H337  1  0.37726696  0.27359657  0.32989777  1
  H+  H338  1  0.41430085  0.08306974  0.92554989  1
  H+  H339  1  0.82486763  0.41068732  0.76942511  1
  H+  H340  1  0.36638428  0.38043623  0.15974931  1
  H+  H341  1  0.09576453  0.68117508  0.75189575  1
  H+  H342  1  0.83508248  0.90813306  0.44352660  1
  H+  H343  1  0.42971979  0.11337607  0.25562069  1
  H+  H344  1  0.17170329  0.64418746  0.64174042  1
  H+  H345  1  0.67024810  0.57572265  0.90281848  1
  H+  H346  1  0.12709693  0.00159939  1.01302995  1
  H+  H347  1  0.68040214  0.85970700  0.27174869  1
  H+  H348  1  0.17455442  0.62114019  0.25311749  1
  H+  H349  1  0.73483449  0.86257864  0.51499152  1
  H+  H350  1  0.33835392  0.67103896  0.73042944  1
  H+  H351  1  0.07077233  0.38573612  0.04063298  1
  H+  H352  1  0.40243053  0.30978161  0.89874403  1
  H+  H353  1  0.41022239  0.56218747  0.88785658  1
  H+  H354  1  0.88279794  0.61018383  0.83868909  1
  H+  H355  1  0.36550790  0.67109782  0.36067358  1
  H+  H356  1  0.88660644  0.02550396  0.83674530  1
  H+  H357  1  0.86487533  0.81476638  0.90194411  1
  H+  H358  1  0.32468103  0.40141390  0.73181979  1
  H+  H359  1  0.90135298  0.57809537  0.56676300  1
  H+  H360  1  0.45049338  0.87881175  0.28079592  1
  H+  H361  1  0.82936134  0.15771036  0.76181099  1
  H+  H362  1  0.07841658  0.91691690  0.07486670  1
  H+  H363  1  0.91201938  0.31599634  0.89754039  1
  H+  H364  1  0.13728426  0.78532164  0.17067838  1
  H+  H365  1  0.14039699  0.02747781  0.82381689  1
  H+  H366  1  0.66309300  0.32097961  0.26927449  1
  H+  H367  1  0.15128194  0.83542714  0.89608520  1
  H+  H368  1  0.32716575  0.75543251  0.49756534  1
  H+  H369  1  0.35041594  0.98668519  0.15495258  1
  H+  H370  1  0.56532605  0.42137876  0.41361657  1
  H+  H371  1  0.33810604  0.93175121  0.73428533  1
  H+  H372  1  0.41499960  0.57126710  0.26225435  1
  H+  H373  1  0.92635777  0.34331740  0.57128747  1
  H+  H374  1  0.16948301  0.57946938  0.55978090  1
  H+  H375  1  0.16925266  0.82601616  0.26516447  1
  H+  H376  1  0.10017935  0.90861341  0.71492456  1
  H+  H377  1  0.86937127  0.14107773  -0.00084716  1
  H+  H378  1  0.32350456  0.41194094  0.43979429  1
  H+  H379  1  0.31868551  0.16187142  0.75682632  1
  H+  H380  1  0.93033528  0.08543731  0.29743964  1
  H+  H381  1  0.91750384  0.08977116  0.93346664  1
  H+  H382  1  0.66916862  0.08556559  0.60041423  1
  H+  H383  1  0.83092657  0.66739197  0.43257770  1
  O2-  O384  1  0.06867338  0.15061415  0.14333506  1
  O2-  O385  1  0.09569664  0.16084914  0.48844458  1
  O2-  O386  1  0.08250234  0.16017252  0.80795881  1
  O2-  O387  1  0.06607478  0.34157546  0.11310828  1
  O2-  O388  1  0.07807127  0.42783851  0.47550138  1
  O2-  O389  1  0.06826037  0.40668959  0.80962088  1
  O2-  O390  1  0.08825999  0.68231684  0.13884473  1
  O2-  O391  1  0.05702192  0.64259258  0.47373085  1
  O2-  O392  1  0.13239479  0.70166122  0.79317056  1
  O2-  O393  1  0.07265611  0.91271578  0.14830978  1
  O2-  O394  1  0.08767469  0.90793532  0.48581536  1
  O2-  O395  1  0.10170832  0.93152602  0.79721250  1
  O2-  O396  1  0.37726019  0.15006656  0.14874593  1
  O2-  O397  1  0.33220006  0.15603014  0.47934813  1
  O2-  O398  1  0.31942356  0.16000663  0.80284611  1
  O2-  O399  1  0.32830087  0.40289723  0.14141842  1
  O2-  O400  1  0.33053479  0.41252249  0.48476224  1
  O2-  O401  1  0.31843874  0.39203081  0.81070437  1
  O2-  O402  1  0.35242447  0.70035100  0.17574138  1
  O2-  O403  1  0.31114198  0.69628784  0.47807498  1
  O2-  O404  1  0.32368823  0.66551198  0.81597321  1
  O2-  O405  1  0.31636455  0.92649349  0.14114144  1
  O2-  O406  1  0.32772198  0.89268439  0.49815295  1
  O2-  O407  1  0.33001658  0.91845524  0.81404117  1
  O2-  O408  1  0.65554441  0.16005089  0.21315426  1
  O2-  O409  1  0.55830403  0.15113411  0.47838341  1
  O2-  O410  1  0.58107397  0.16499128  0.80584532  1
  O2-  O411  1  0.58204866  0.38866331  0.14933068  1
  O2-  O412  1  0.57129132  0.41706973  0.46861883  1
  O2-  O413  1  0.57113925  0.40691018  0.81199411  1
  O2-  O414  1  0.64392387  0.69247659  0.11535618  1
  O2-  O415  1  0.59210217  0.67986338  0.47893242  1
  O2-  O416  1  0.66773386  0.70093084  0.80826958  1
  O2-  O417  1  0.61904623  0.96825477  0.15638968  1
  O2-  O418  1  0.58625792  0.91569963  0.48455124  1
  O2-  O419  1  0.57932406  0.92394056  0.80538518  1
  O2-  O420  1  0.81798148  0.17687831  0.13132414  1
  O2-  O421  1  0.85134351  0.17872846  0.49417646  1
  O2-  O422  1  0.82968319  0.15811476  0.80810460  1
  O2-  O423  1  0.83454343  0.44227065  0.18843510  1
  O2-  O424  1  0.82460353  0.40603514  0.49354043  1
  O2-  O425  1  0.82636702  0.41292676  0.81533531  1
  O2-  O426  1  0.82287768  0.66725195  0.14690803  1
  O2-  O427  1  0.82882281  0.66557679  0.47776307  1
  O2-  O428  1  0.82017722  0.65333953  0.80649970  1
  O2-  O429  1  0.81919658  0.91685467  0.14698755  1
  O2-  O430  1  0.83599582  0.91287038  0.48901168  1
  O2-  O431  1  0.83430808  0.92603419  0.80997965  1
  O2-  O432  1  0.15672439  0.07551571  0.19952348  1
  O2-  O433  1  0.17251117  0.06991657  0.52212990  1
  O2-  O434  1  0.16932914  0.08893301  0.83941336  1
  O2-  O435  1  0.17097360  0.30969813  0.19259032  1
  O2-  O436  1  0.16426516  0.32561214  0.53274482  1
  O2-  O437  1  0.15416531  0.32046403  0.85029349  1
  O2-  O438  1  0.18609737  0.63417498  0.20800768  1
  O2-  O439  1  0.16189996  0.57713453  0.51463665  1
  O2-  O440  1  0.14870163  0.57389958  0.84430123  1
  O2-  O441  1  0.16407167  0.84155339  0.19218524  1
  O2-  O442  1  0.16905288  0.82767722  0.52112500  1
  O2-  O443  1  0.16068274  0.84291591  0.85111336  1
  O2-  O444  1  0.40940385  0.10579440  0.17045506  1
  O2-  O445  1  0.40112564  0.06589919  0.52685505  1
  O2-  O446  1  0.40993777  0.08367320  0.85121523  1
  O2-  O447  1  0.41345843  0.33780739  0.18830136  1
  O2-  O448  1  0.40549764  0.32042619  0.51797908  1
  O2-  O449  1  0.40331639  0.31349211  0.85339090  1
  O2-  O450  1  0.40095190  0.58094686  0.18547655  1
  O2-  O451  1  0.45535318  0.55227105  0.53829925  1
  O2-  O452  1  0.39392987  0.56147329  0.84416675  1
  O2-  O453  1  0.46077736  0.87705337  0.20965413  1
  O2-  O454  1  0.35781073  0.84152495  0.53119715  1
  O2-  O455  1  0.41589913  0.83474181  0.85368549  1
  O2-  O456  1  0.65581963  0.12006173  0.15363160  1
  O2-  O457  1  0.64852338  0.07251118  0.51694957  1
  O2-  O458  1  0.67420193  0.06966982  0.85375670  1
  O2-  O459  1  0.66751635  0.31271770  0.20389928  1
  O2-  O460  1  0.64360686  0.32833591  0.48128513  1
  O2-  O461  1  0.66032393  0.33086884  0.85553947  1
  O2-  O462  1  0.66051678  0.56589926  0.18711434  1
  O2-  O463  1  0.65726545  0.57255090  0.50684950  1
  O2-  O464  1  0.66144523  0.56851370  0.85872818  1
  O2-  O465  1  0.67912668  0.88458239  0.20217892  1
  O2-  O466  1  0.67453129  0.83468897  0.53177627  1
  O2-  O467  1  0.66761808  0.83931414  0.85568240  1
  O2-  O468  1  0.88800409  0.08016603  0.16365924  1
  O2-  O469  1  0.92705954  0.08026874  0.52517027  1
  O2-  O470  1  0.91623569  0.08726123  0.85058344  1
  O2-  O471  1  0.89339168  0.32436734  0.19856744  1
  O2-  O472  1  0.92651457  0.34498695  0.52530637  1
  O2-  O473  1  0.91190310  0.31540654  0.84569169  1
  O2-  O474  1  0.92610243  0.60919401  0.18414698  1
  O2-  O475  1  0.89695025  0.57402749  0.52159031  1
  O2-  O476  1  0.91367750  0.58281270  0.85699039  1
  O2-  O477  1  0.90603332  0.83509850  0.19039832  1
  O2-  O478  1  0.91867662  0.82940594  0.52405114  1
  O2-  O479  1  0.87962924  0.81366240  0.85669951  1
  O2-  O480  1  0.16929885  0.08073176  0.31810059  1
  O2-  O481  1  0.14749899  0.06186922  0.63754551  1
  O2-  O482  1  0.16671995  0.07176326  0.99576667  1
  O2-  O483  1  0.15094191  0.32484275  0.31597873  1
  O2-  O484  1  0.16055744  0.33465832  0.64982181  1
  O2-  O485  1  0.16778776  0.31866505  0.97227853  1
  O2-  O486  1  0.16035607  0.58809006  0.32437217  1
  O2-  O487  1  0.18590712  0.59843407  0.63730338  1
  O2-  O488  1  0.14097104  0.56719463  0.96988999  1
  O2-  O489  1  0.17026370  0.81765423  0.31085635  1
  O2-  O490  1  0.15219138  0.79780100  0.63072170  1
  O2-  O491  1  0.14510440  0.83127876  0.97475577  1
  O2-  O492  1  0.43366939  0.11445250  0.30044544  1
  O2-  O493  1  0.38967083  0.07809068  0.64240615  1
  O2-  O494  1  0.41453892  0.07805004  0.97147116  1
  O2-  O495  1  0.40430759  0.33528726  0.31561572  1
  O2-  O496  1  0.39747283  0.31903733  0.64250048  1
  O2-  O497  1  0.40773911  0.30720535  0.97847213  1
  O2-  O498  1  0.42755225  0.56315839  0.30530453  1
  O2-  O499  1  0.42631937  0.57974227  0.65734995  1
  O2-  O500  1  0.42658106  0.55793507  0.96372083  1
  O2-  O501  1  0.44204357  0.87591867  0.32680076  1
  O2-  O502  1  0.41940198  0.85302418  0.64208691  1
  O2-  O503  1  0.46503691  0.87807330  0.97976494  1
  O2-  O504  1  0.68316275  0.09901305  0.31832607  1
  O2-  O505  1  0.67454854  0.08625016  0.64517846  1
  O2-  O506  1  0.67517857  0.07629059  0.97205107  1
  O2-  O507  1  0.66001725  0.32168922  0.31738686  1
  O2-  O508  1  0.65443395  0.32394130  0.64357617  1
  O2-  O509  1  0.66245928  0.31447157  0.97585979  1
  O2-  O510  1  0.65534432  0.58178425  0.31230664  1
  O2-  O511  1  0.62781591  0.58281533  0.65703901  1
  O2-  O512  1  0.70070508  0.61069036  0.98712892  1
  O2-  O513  1  0.67649821  0.84332772  0.31665128  1
  O2-  O514  1  0.67414858  0.85209434  0.64437728  1
  O2-  O515  1  0.69818077  0.83594145  1.00052575  1
  O2-  O516  1  0.92438694  0.08123021  0.34144563  1
  O2-  O517  1  0.92242911  0.08585239  0.64814752  1
  O2-  O518  1  0.91565182  0.09351796  0.97837037  1
  O2-  O519  1  0.90458804  0.32928782  0.32110402  1
  O2-  O520  1  0.91713967  0.33375417  0.64704105  1
  O2-  O521  1  0.91250447  0.32211959  0.95615670  1
  O2-  O522  1  0.90267446  0.55930948  0.31156827  1
  O2-  O523  1  0.92434162  0.55560430  0.63909762  1
  O2-  O524  1  0.91909830  0.58373052  0.97489896  1
  O2-  O525  1  0.92040043  0.82889093  0.31537652  1
  O2-  O526  1  0.91433093  0.83253181  0.64853491  1
  O2-  O527  1  0.86658489  0.82318352  0.97118006  1
  O2-  O528  1  0.08466156  0.15537252  0.02100978  1
  O2-  O529  1  0.09768223  0.16822506  0.36461973  1
  O2-  O530  1  0.09155432  0.17332195  0.68741599  1
  O2-  O531  1  0.07297037  0.39740432  -0.00363783  1
  O2-  O532  1  0.07568594  0.41579468  0.35579859  1
  O2-  O533  1  0.08470687  0.42069159  0.68753740  1
  O2-  O534  1  0.08085020  0.66390585  0.01478736  1
  O2-  O535  1  0.05875062  0.64789703  0.35854876  1
  O2-  O536  1  0.06361466  0.65081401  0.69078449  1
  O2-  O537  1  0.08167292  0.92386250  0.02895090  1
  O2-  O538  1  0.08731700  0.90818722  0.35991758  1
  O2-  O539  1  0.08932226  0.90061613  0.67083370  1
  O2-  O540  1  0.33089737  0.14812369  0.02718606  1
  O2-  O541  1  0.33607584  0.17355939  0.35478894  1
  O2-  O542  1  0.30568446  0.15432362  0.68180092  1
  O2-  O543  1  0.33078359  0.39554752  0.01828019  1
  O2-  O544  1  0.31151237  0.40739674  0.36059757  1
  O2-  O545  1  0.32710402  0.41067598  0.68694620  1
  O2-  O546  1  0.34211773  0.76698382  0.06007998  1
  O2-  O547  1  0.33768544  0.69044184  0.33155485  1
  O2-  O548  1  0.34372242  0.67225813  0.68553092  1
  O2-  O549  1  0.31203696  0.92161360  0.01161828  1
  O2-  O550  1  0.35547297  0.96222657  0.34686624  1
  O2-  O551  1  0.34023718  0.93645265  0.68926645  1
  O2-  O552  1  0.58428753  0.15231692  0.01159553  1
  O2-  O553  1  0.58295181  0.16733188  0.35353937  1
  O2-  O554  1  0.59619086  0.16035615  0.68370817  1
  O2-  O555  1  0.56763353  0.38594166  0.01948419  1
  O2-  O556  1  0.56020106  0.42351295  0.35908875  1
  O2-  O557  1  0.55933375  0.40606959  0.68727663  1
  O2-  O558  1  0.58730341  0.66886901  0.00030230  1
  O2-  O559  1  0.59103439  0.68213616  0.35355197  1
  O2-  O560  1  0.59180613  0.62341809  0.69619983  1
  O2-  O561  1  0.62826781  0.92643403  0.03098032  1
  O2-  O562  1  0.60689296  0.93591238  0.36086146  1
  O2-  O563  1  0.58659821  0.92395555  0.68063247  1
  O2-  O564  1  0.83596772  0.17301550  0.00872223  1
  O2-  O565  1  0.84216079  0.16790324  0.36778621  1
  O2-  O566  1  0.83532391  0.16646411  0.68741432  1
  O2-  O567  1  0.83630365  0.41910838  0.00695630  1
  O2-  O568  1  0.81323455  0.39938237  0.36763995  1
  O2-  O569  1  0.82079606  0.40514074  0.69489939  1
  O2-  O570  1  0.87604899  0.68424491  0.02707329  1
  O2-  O571  1  0.82438386  0.65827744  0.35128306  1
  O2-  O572  1  0.80493877  0.66493206  0.68699272  1
  O2-  O573  1  0.75108756  0.82213540  0.04654163  1
  O2-  O574  1  0.83740484  0.90696433  0.36585399  1
  O2-  O575  1  0.83190708  0.91992994  0.68368368  1
