# generated using pymatgen
data_H2O
_symmetry_space_group_name_H-M   'P 1'
_cell_length_a   18.00697705
_cell_length_b   18.00486806
_cell_length_c   22.02084592
_cell_angle_alpha   89.98871860
_cell_angle_beta   89.99256688
_cell_angle_gamma   119.98621093
_symmetry_Int_Tables_number   1
_chemical_formula_structural   H2O
_chemical_formula_sum   'H384 O192'
_cell_volume   6183.80360332
_cell_formula_units_Z   192
loop_
 _symmetry_equiv_pos_site_id
 _symmetry_equiv_pos_as_xyz
  1  'x, y, z'
loop_
 _atom_type_symbol
 _atom_type_oxidation_number
  H+  1.0
  O2-  -2.0
loop_
 _atom_site_type_symbol
 _atom_site_label
 _atom_site_symmetry_multiplicity
 _atom_site_fract_x
 _atom_site_fract_y
 _atom_site_fract_z
 _atom_site_occupancy
  H+  H0  1  1.02224355  0.12591255  0.47438240  1
  H+  H1  1  0.10849235  0.12227825  0.48459805  1
  H+  H2  1  0.41168814  0.87793509  0.86643660  1
  H+  H3  1  0.36690242  0.38516225  0.00525000  1
  H+  H4  1  0.12144144  0.89081309  0.67296154  1
  H+  H5  1  0.48592012  0.61534222  0.16980432  1
  H+  H6  1  0.70318032  0.90068229  0.62402871  1
  H+  H7  1  0.48367460  0.36994044  0.84033217  1
  H+  H8  1  0.01928348  0.38092709  0.83055105  1
  H+  H9  1  0.28367594  0.89146509  0.49551925  1
  H+  H10  1  0.34007844  0.74083684  0.48796478  1
  H+  H11  1  0.37608800  0.44378999  0.48798056  1
  H+  H12  1  1.02367622  0.15072753  1.01294979  1
  H+  H13  1  0.27920422  0.88814289  0.33778712  1
  H+  H14  1  0.95826333  0.27258644  0.96503837  1
  H+  H15  1  0.22107764  0.85388059  0.86157209  1
  H+  H16  1  0.85401947  0.88085806  0.16272258  1
  H+  H17  1  0.39407483  0.85852394  0.64827001  1
  H+  H18  1  0.51987081  0.14666247  0.68148160  1
  H+  H19  1  0.12612719  0.52093219  0.66504560  1
  H+  H20  1  0.62360055  0.72771723  0.01093427  1
  H+  H21  1  0.88508461  0.01921354  0.32767953  1
  H+  H22  1  0.13947027  0.35470217  0.32752585  1
  H+  H23  1  0.13377423  0.10397560  0.27004445  1
  H+  H24  1  0.36602055  0.22717727  0.16506253  1
  H+  H25  1  0.64947171  0.37630516  0.50063264  1
  H+  H26  1  0.02823741  0.37429718  0.33908961  1
  H+  H27  1  0.90191059  0.76170896  0.15533975  1
  H+  H28  1  0.62314630  0.09847715  0.17885362  1
  H+  H29  1  0.89838495  0.86637898  0.66397801  1
  H+  H30  1  0.52280161  0.13972457  0.15696948  1
  H+  H31  1  0.61468394  0.13272867  0.33649332  1
  H+  H32  1  0.64679348  0.52694677  0.17628624  1
  H+  H33  1  0.14876383  0.11718799  0.84160485  1
  H+  H34  1  0.10454896  0.47225207  0.83717266  1
  H+  H35  1  0.12304480  0.60827771  0.66274076  1
  H+  H36  1  0.38199498  0.62013819  0.49308137  1
  H+  H37  1  0.45215936  0.32517934  0.44636435  1
  H+  H38  1  0.86072191  0.38830887  1.00870972  1
  H+  H39  1  0.21954238  0.35616033  0.84135412  1
  H+  H40  1  0.80070598  0.90459406  0.83777223  1
  H+  H41  1  0.38999632  0.85512091  0.32529421  1
  H+  H42  1  0.61518929  0.22472588  0.16255793  1
  H+  H43  1  0.33008171  0.09971140  0.33366736  1
  H+  H44  1  0.16670050  0.78283001  0.64066829  1
  H+  H45  1  0.22463201  0.36697578  0.66129081  1
  H+  H46  1  0.79539394  0.64249838  0.66958480  1
  H+  H47  1  0.77275597  0.38934638  0.00616141  1
  H+  H48  1  0.55172858  0.41653247  0.50777418  1
  H+  H49  1  0.66032080  0.53229025  0.64797527  1
  H+  H50  1  0.11096208  0.22860954  0.83134446  1
  H+  H51  1  0.27496389  0.37019581  0.47695527  1
  H+  H52  1  0.44752766  0.61253895  0.64065717  1
  H+  H53  1  0.36374650  0.63395795  0.16734587  1
  H+  H54  1  0.89277979  0.36048890  0.32407044  1
  H+  H55  1  0.79651198  0.65100934  0.48589185  1
  H+  H56  1  0.88502744  0.85186595  1.00551823  1
  H+  H57  1  0.13137911  0.51793524  0.50202894  1
  H+  H58  1  0.91042211  0.55210208  0.15963224  1
  H+  H59  1  0.87086556  0.38381655  0.82270718  1
  H+  H60  1  0.64521399  0.53083053  0.33148505  1
  H+  H61  1  0.43362697  0.06953261  0.79679412  1
  H+  H62  1  0.39647308  0.52396487  0.17160510  1
  H+  H63  1  0.87156403  0.47863900  0.32709639  1
  H+  H64  1  0.16944730  0.59891964  0.94609482  1
  H+  H65  1  0.89433600  0.52131250  0.83483190  1
  H+  H66  1  0.25512508  0.63029574  0.66394585  1
  H+  H67  1  0.20798896  0.59708846  0.84446596  1
  H+  H68  1  0.35797347  0.97581387  0.01501969  1
  H+  H69  1  0.57760493  0.66167957  0.67935400  1
  H+  H70  1  0.98555924  0.12255241  0.84659353  1
  H+  H71  1  0.60427502  0.87545923  0.48301592  1
  H+  H72  1  0.89571233  0.27029054  0.65734975  1
  H+  H73  1  0.11792337  0.73177918  1.03105595  1
  H+  H74  1  0.39735030  0.12083340  0.83352368  1
  H+  H75  1  0.23423271  0.12451006  0.19120271  1
  H+  H76  1  0.73490777  0.36416240  0.33131698  1
  H+  H77  1  0.87444009  0.37662034  0.66291854  1
  H+  H78  1  0.01414652  0.13828934  0.18623542  1
  H+  H79  1  0.90232353  0.03148365  0.65697457  1
  H+  H80  1  0.63453740  0.50182619  0.48864120  1
  H+  H81  1  0.64208468  0.52194935  0.99097001  1
  H+  H82  1  0.14784907  1.06217486  0.89455232  1
  H+  H83  1  0.51657625  0.14224416  0.48296767  1
  H+  H84  1  0.36136341  0.70837727  0.33627337  1
  H+  H85  1  0.34443314  0.19681936  0.46591395  1
  H+  H86  1  0.04097567  0.66332123  0.13489112  1
  H+  H87  1  0.33282996  0.69370254  0.81755152  1
  H+  H88  1  0.64481834  0.36385266  0.33329233  1
  H+  H89  1  0.60678961  0.88997462  0.16515673  1
  H+  H90  1  0.87070131  0.72012324  0.33546979  1
  H+  H91  1  0.97073403  0.85361774  0.85717725  1
  H+  H92  1  0.36353328  0.22288463  1.00760574  1
  H+  H93  1  0.89208726  0.61086386  0.31385166  1
  H+  H94  1  0.39896234  0.88035907  0.50810117  1
  H+  H95  1  0.38852307  0.62896265  1.00475268  1
  H+  H96  1  0.61074463  0.98483519  0.17013646  1
  H+  H97  1  0.62998737  0.02816019  0.32645277  1
  H+  H98  1  0.60873165  0.23336717  0.68975918  1
  H+  H99  1  0.79596662  0.90268251  0.69486602  1
  H+  H100  1  0.13400978  0.36382250  0.84346123  1
  H+  H101  1  0.38752743  0.77248873  0.01570745  1
  H+  H102  1  0.67430864  0.81307502  0.82548547  1
  H+  H103  1  0.11768152  0.13549070  0.67533012  1
  H+  H104  1  0.21251477  0.61406445  0.19006746  1
  H+  H105  1  0.60169776  0.97985820  0.68892627  1
  H+  H106  1  0.11720993  0.22476219  0.67413013  1
  H+  H107  1  0.68449883  0.36784405  0.72666345  1
  H+  H108  1  0.38585308  0.11630578  0.65804450  1
  H+  H109  1  0.86423979  0.22269996  0.49172383  1
  H+  H110  1  0.44426669  0.58617452  0.85495456  1
  H+  H111  1  0.98197146  0.36309732  0.65878750  1
  H+  H112  1  0.62131486  0.10723927  0.66798781  1
  H+  H113  1  0.63749792  0.60994529  0.17772419  1
  H+  H114  1  0.89055717  0.02552502  0.99917401  1
  H+  H115  1  0.16043531  0.27590244  0.32246927  1
  H+  H116  1  0.34426112  0.57686395  0.48553916  1
  H+  H117  1  0.37922912  0.76262392  0.64681783  1
  H+  H118  1  0.22965919  0.37038055  0.99711719  1
  H+  H119  1  0.03200152  0.65889396  0.32848894  1
  H+  H120  1  0.92424050  0.33178770  0.56030091  1
  H+  H121  1  0.60189697  0.93345584  0.77557356  1
  H+  H122  1  0.85855404  0.97701035  0.48925009  1
  H+  H123  1  0.17816913  0.84274522  0.58439617  1
  H+  H124  1  0.78191418  0.88742841  0.00941952  1
  H+  H125  1  0.46575158  0.35526510  0.68428779  1
  H+  H126  1  0.65445999  0.03818994  0.84734866  1
  H+  H127  1  0.47461140  0.86680100  0.16993997  1
  H+  H128  1  0.28014408  0.40081842  0.32633497  1
  H+  H129  1  0.11427617  0.23651305  1.00477015  1
  H+  H130  1  0.88633695  0.51081317  0.65457425  1
  H+  H131  1  0.88980993  0.26885862  0.83830652  1
  H+  H132  1  0.61345043  0.72521532  0.16680166  1
  H+  H133  1  0.84734953  0.20948542  0.01311400  1
  H+  H134  1  0.52316004  0.88515414  0.33703746  1
  H+  H135  1  0.37780644  0.11065548  1.00079733  1
  H+  H136  1  -0.10129777  0.77767641  0.65907343  1
  H+  H137  1  0.01920623  0.63096203  0.83803886  1
  H+  H138  1  0.71426013  0.85267924  0.17375178  1
  H+  H139  1  0.85282943  0.13131154  0.33872905  1
  H+  H140  1  0.65316180  0.28555805  0.84036696  1
  H+  H141  1  0.92982488  0.59006744  0.25485399  1
  H+  H142  1  0.36853709  0.33333152  0.44492053  1
  H+  H143  1  0.15928573  0.57061327  0.28176298  1
  H+  H144  1  0.61818494  0.63903933  0.34030677  1
  H+  H145  1  0.76432510  0.13284971  0.33682483  1
  H+  H146  1  0.87632298  0.38863823  0.48681500  1
  H+  H147  1  0.63721238  0.77520050  0.32960327  1
  H+  H148  1  0.82376922  0.07357134  0.17997593  1
  H+  H149  1  0.35407027  0.38147840  0.67763438  1
  H+  H150  1  0.91717482  0.82973314  0.26786155  1
  H+  H151  1  0.65201418  0.61457261  0.99357729  1
  H+  H152  1  0.89067295  0.11422504  0.49943169  1
  H+  H153  1  0.14351401  0.79633941  0.31793129  1
  H+  H154  1  0.08925852  0.69254000  0.38811442  1
  H+  H155  1  0.78139688  0.63479477  0.33204009  1
  H+  H156  1  0.17268108  0.29749255  0.16442424  1
  H+  H157  1  0.52590864  0.88434163  1.02167355  1
  H+  H158  1  0.63908353  0.86209172  1.00208071  1
  H+  H159  1  0.37623054  0.01718420  0.17116494  1
  H+  H160  1  0.51964622  0.14927509  0.00520548  1
  H+  H161  1  0.55660513  0.91365069  0.84301876  1
  H+  H162  1  0.91991996  0.57643749  0.59696412  1
  H+  H163  1  0.12959347  0.01748473  0.50632443  1
  H+  H164  1  0.54071564  0.14945583  0.84174565  1
  H+  H165  1  0.61467779  0.89095345  0.34054993  1
  H+  H166  1  0.72653748  0.86404768  0.32774395  1
  H+  H167  1  0.99699003  0.10284455  0.16313053  1
  H+  H168  1  0.07067494  0.71137756  0.69619278  1
  H+  H169  1  0.28614303  0.39852899  0.16461077  1
  H+  H170  1  0.65035213  0.07202643  0.61068276  1
  H+  H171  1  -0.01103610  0.11900703  0.65521469  1
  H+  H172  1  0.26638260  0.13802953  0.33839090  1
  H+  H173  1  0.39898000  0.52954204  0.31871088  1
  H+  H174  1  0.92502687  0.84675011  0.56229807  1
  H+  H175  1  0.36280545  0.13638189  0.16386294  1
  H+  H176  1  0.11304308  0.39121210  0.68315903  1
  H+  H177  1  0.65518767  0.80221918  0.64360312  1
  H+  H178  1  0.46943170  0.10911424  0.32360684  1
  H+  H179  1  1.02209244  0.86471518  1.01383838  1
  H+  H180  1  0.60923854  0.23376326  0.47995668  1
  H+  H181  1  0.56931875  0.33436185  0.12961424  1
  H+  H182  1  0.88196182  0.63791467  0.03576686  1
  H+  H183  1  0.61825201  0.22790812  0.33894519  1
  H+  H184  1  0.51601266  0.66539801  0.47156328  1
  H+  H185  1  0.98177124  0.35893381  0.49988828  1
  H+  H186  1  0.40204540  0.38981573  0.31995847  1
  H+  H187  1  0.38746909  0.01521765  0.32431016  1
  H+  H188  1  0.37979082  0.85604637  0.17330941  1
  H+  H189  1  0.11868093  0.40303588  0.00636180  1
  H+  H190  1  0.08258119  0.16889789  0.77173692  1
  H+  H191  1  0.63921785  0.62597843  0.49315534  1
  H+  H192  1  0.89050899  0.87155705  0.50250966  1
  H+  H193  1  0.35384264  0.47128024  0.67062033  1
  H+  H194  1  0.16125893  0.81239684  0.94628588  1
  H+  H195  1  0.89199643  0.60838273  0.84135517  1
  H+  H196  1  0.24685052  0.65783877  0.48643747  1
  H+  H197  1  0.11821759  0.64671802  0.48602007  1
  H+  H198  1  -0.00995732  0.36279845  -0.00764535  1
  H+  H199  1  0.90579716  0.63681595  0.14726364  1
  H+  H200  1  0.39952537  1.03614842  0.64650848  1
  H+  H201  1  0.87952416  0.88733920  0.84091609  1
  H+  H202  1  0.13263502  0.76545808  0.85109920  1
  H+  H203  1  0.66790078  0.58593729  0.27053100  1
  H+  H204  1  0.35526814  0.59756992  0.64643607  1
  H+  H205  1  0.78524432  0.37847030  0.66786145  1
  H+  H206  1  0.49407396  0.87504147  0.50054234  1
  H+  H207  1  0.63542377  0.28104389  0.99094126  1
  H+  H208  1  0.43615531  0.80447296  0.86115080  1
  H+  H209  1  0.10525372  0.87912928  0.84453507  1
  H+  H210  1  0.13440022  0.25047704  0.48400291  1
  H+  H211  1  0.66477096  0.37339598  0.18483818  1
  H+  H212  1  0.22748352  0.85214188  1.00300294  1
  H+  H213  1  0.10466257  0.99054102  0.33514203  1
  H+  H214  1  0.80116408  0.40502548  0.16948342  1
  H+  H215  1  0.98065545  0.61833206  1.02975481  1
  H+  H216  1  0.53719614  0.63723435  0.01547629  1
  H+  H217  1  0.84697830  0.41249307  0.75990396  1
  H+  H218  1  0.36305970  0.72246814  0.16597175  1
  H+  H219  1  0.63987920  0.60527443  0.84833429  1
  H+  H220  1  0.77898175  0.63378585  0.82947541  1
  H+  H221  1  0.96364351  0.76993655  0.20708222  1
  H+  H222  1  0.12460169  0.52807713  0.19081788  1
  H+  H223  1  0.62517290  0.48214566  0.83485961  1
  H+  H224  1  0.84227442  0.66805060  0.77152807  1
  H+  H225  1  0.49993248  0.56578154  0.50819801  1
  H+  H226  1  0.61392839  0.38908869  0.00001904  1
  H+  H227  1  0.88428400  0.26809216  0.33025453  1
  H+  H228  1  0.35062622  0.21040807  0.68519046  1
  H+  H229  1  0.40800492  0.31329877  0.34610671  1
  H+  H230  1  0.90116077  0.52840354  0.50245527  1
  H+  H231  1  0.33778838  0.60872505  0.82424799  1
  H+  H232  1  0.65108260  0.12616911  0.85301553  1
  H+  H233  1  0.18341104  0.34435864  0.22935407  1
  H+  H234  1  0.90275605  1.03055092  0.84829990  1
  H+  H235  1  1.12364000  0.15598866  0.38508569  1
  H+  H236  1  0.16065432  0.17119462  0.15408672  1
  H+  H237  1  0.11231725  0.48839610  0.00782360  1
  H+  H238  1  0.65864575  0.88969748  0.84405030  1
  H+  H239  1  0.14358866  0.87056620  0.49801815  1
  H+  H240  1  0.37210381  0.47585386  1.00926449  1
  H+  H241  1  0.26412063  0.12118783  0.67692591  1
  H+  H242  1  0.58313389  0.18083345  0.06116627  1
  H+  H243  1  0.42712482  0.83709190  0.56947123  1
  H+  H244  1  0.62998139  1.00213385  0.00134572  1
  H+  H245  1  0.14646549  0.62752357  1.01013465  1
  H+  H246  1  0.53664636  0.39990537  0.34011072  1
  H+  H247  1  0.12546816  0.60772760  0.85056968  1
  H+  H248  1  0.85147233  0.12262121  1.00965496  1
  H+  H249  1  0.87342700  0.73169312  0.02954102  1
  H+  H250  1  0.87985935  0.63911517  0.67416377  1
  H+  H251  1  0.38982561  0.36156525  0.83647296  1
  H+  H252  1  0.88309812  0.73757743  0.49794591  1
  H+  H253  1  0.14345914  0.78047452  0.49854704  1
  H+  H254  1  0.89016626  0.53243169  0.01681142  1
  H+  H255  1  0.03942871  0.89459073  0.16691506  1
  H+  H256  1  0.51746131  0.37403459  0.15760323  1
  H+  H257  1  0.88191567  0.76668527  0.85050390  1
  H+  H258  1  0.47581277  0.36388288  0.99103721  1
  H+  H259  1  0.38361897  0.10858493  0.50018685  1
  H+  H260  1  0.78884167  0.39044374  0.48401403  1
  H+  H261  1  0.62669504  0.75981877  0.48737292  1
  H+  H262  1  0.13458585  1.01860420  0.66305007  1
  H+  H263  1  0.28651435  0.89563574  0.64853538  1
  H+  H264  1  0.36759645  0.97495830  0.85314646  1
  H+  H265  1  0.36422703  0.88923485  0.02121620  1
  H+  H266  1  0.87868067  0.25119727  0.17541716  1
  H+  H267  1  0.11879745  0.40108740  0.17018955  1
  H+  H268  1  0.34556553  0.45852489  0.83073208  1
  H+  H269  1  0.27742038  0.64119260  0.01860411  1
  H+  H270  1  0.58030461  0.41544064  0.05875173  1
  H+  H271  1  0.41411513  0.32065835  0.62398942  1
  H+  H272  1  0.14281626  0.04022147  0.18856881  1
  H+  H273  1  0.55018217  0.48063041  0.70441864  1
  H+  H274  1  0.58315478  0.69656760  0.86991508  1
  H+  H275  1  0.58376503  0.43376257  0.74801328  1
  H+  H276  1  0.03169571  0.64779472  0.49061956  1
  H+  H277  1  -0.02134656  0.86827830  0.32482782  1
  H+  H278  1  0.59526259  0.88798747  0.68675900  1
  H+  H279  1  0.11637971  0.38119940  0.48692074  1
  H+  H280  1  0.67206533  0.62530997  0.64456212  1
  H+  H281  1  0.86367893  0.88714777  0.33677700  1
  H+  H282  1  0.72465031  0.09941525  0.00084896  1
  H+  H283  1  0.78459776  0.14104402  0.83193376  1
  H+  H284  1  0.18484371  0.80292593  0.15002269  1
  H+  H285  1  0.87687678  0.14399346  0.66966978  1
  H+  H286  1  0.02679221  0.89055268  0.48770750  1
  H+  H287  1  0.62561130  0.39285435  0.82795541  1
  H+  H288  1  0.72737704  0.10658117  0.51724920  1
  H+  H289  1  0.22577355  0.59122368  0.33621487  1
  H+  H290  1  0.84735521  0.17248675  0.72928123  1
  H+  H291  1  0.33346769  0.16649633  0.06788532  1
  H+  H292  1  0.91528801  0.31392443  0.23152799  1
  H+  H293  1  0.11367424  0.87437525  1.01009994  1
  H+  H294  1  0.09555695  0.99674407  -0.01167733  1
  H+  H295  1  0.12484248  0.91282794  0.32967065  1
  H+  H296  1  0.97374502  0.10121348  0.30984705  1
  H+  H297  1  0.03159056  0.88693580  0.67362008  1
  H+  H298  1  0.33851436  0.42906138  0.38592846  1
  H+  H299  1  0.39265069  0.36737435  0.17471180  1
  H+  H300  1  0.33716450  0.16097188  0.77665130  1
  H+  H301  1  0.59140234  0.17337924  0.77978293  1
  H+  H302  1  0.02289231  0.38322395  0.16982866  1
  H+  H303  1  0.13247837  0.91863093  0.14550000  1
  H+  H304  1  0.08845810  0.93289281  0.79491158  1
  H+  H305  1  0.76917987  0.88568974  0.48553640  1
  H+  H306  1  0.57544801  0.91474054  0.42798263  1
  H+  H307  1  0.42445117  0.33882183  0.23386053  1
  H+  H308  1  0.82658122  0.16010530  0.43456072  1
  H+  H309  1  0.29984595  0.11249255  0.42968502  1
  H+  H310  1  0.67841538  0.32991230  0.24223218  1
  H+  H311  1  0.41476269  0.33284843  0.93314286  1
  H+  H312  1  0.41992458  0.82839182  0.26533395  1
  H+  H313  1  0.50149186  0.62048853  0.32262233  1
  H+  H314  1  0.67583428  0.34484133  0.93292157  1
  H+  H315  1  0.67176789  0.83870156  0.94087813  1
  H+  H316  1  0.59373988  0.42544091  0.40112585  1
  H+  H317  1  0.45867768  0.35647154  0.55279160  1
  H+  H318  1  0.11981602  0.46548619  0.34056529  1
  H+  H319  1  0.42995857  0.53445754  0.56032052  1
  H+  H320  1  0.83130258  0.95773320  0.16621879  1
  H+  H321  1  0.55918673  0.66533432  0.80323274  1
  H+  H322  1  0.31724767  0.67260774  0.39849504  1
  H+  H323  1  0.08026854  0.42043232  0.74099981  1
  H+  H324  1  0.41260356  0.07538270  0.22966491  1
  H+  H325  1  0.31860775  0.65239050  0.72008440  1
  H+  H326  1  0.87166948  0.13749284  0.83057600  1
  H+  H327  1  0.43180552  0.30808999  0.54853783  1
  H+  H328  1  0.19046018  0.85786349  0.26051429  1
  H+  H329  1  0.43728491  0.58817582  0.25400880  1
  H+  H330  1  0.68282144  0.60336352  0.54838861  1
  H+  H331  1  0.16209122  0.07774983  0.60284012  1
  H+  H332  1  0.83413675  0.91726078  0.39648220  1
  H+  H333  1  0.37974961  0.56275936  0.90812962  1
  H+  H334  1  0.08774403  0.92383463  0.42867708  1
  H+  H335  1  0.67363760  0.33166316  0.55298103  1
  H+  H336  1  0.86354697  0.92938731  0.74686723  1
  H+  H337  1  0.84184321  0.43143821  0.10434139  1
  H+  H338  1  0.17006356  0.34265262  0.93778831  1
  H+  H339  1  0.15838730  0.35239732  0.60765825  1
  H+  H340  1  0.66411368  0.07255040  0.93764630  1
  H+  H341  1  0.37258762  0.98211910  0.49604142  1
  H+  H342  1  0.34751743  0.92885545  0.70548065  1
  H+  H343  1  0.84822591  0.42573509  0.38986908  1
  H+  H344  1  0.90026001  0.61773822  0.50885929  1
  H+  H345  1  0.66398554  0.70993375  0.71405002  1
  H+  H346  1  0.08633618  0.40827917  0.42694101  1
  H+  H347  1  0.33174519  0.89889843  0.80680236  1
  H+  H348  1  0.15146442  0.57345557  0.56325714  1
  H+  H349  1  0.67691457  0.58115021  0.90688394  1
  H+  H350  1  0.13109512  0.19717081  0.09241468  1
  H+  H351  1  0.57997168  0.16912075  0.41033417  1
  H+  H352  1  0.46522582  0.66629810  0.95909071  1
  H+  H353  1  0.66012960  0.83022857  0.23525101  1
  H+  H354  1  0.33877771  0.91278351  0.39740695  1
  H+  H355  1  0.42565005  0.83673864  0.95863713  1
  H+  H356  1  0.18040752  0.29001314  0.54484645  1
  H+  H357  1  0.00345761  0.61786514  0.67633676  1
  H+  H358  1  0.73835169  0.11397845  0.16993105  1
  H+  H359  1  0.90524275  0.81132438  0.94756061  1
  H+  H360  1  0.63607526  0.37912855  0.67301277  1
  H+  H361  1  0.40372847  0.07590731  0.94221768  1
  H+  H362  1  0.64992232  0.82349001  0.54485795  1
  H+  H363  1  0.30639385  0.90432872  0.10482824  1
  H+  H364  1  0.09909440  0.08756863  -0.01260365  1
  H+  H365  1  0.42810756  0.09762370  0.56071156  1
  H+  H366  1  0.91833738  0.08659748  0.94038341  1
  H+  H367  1  0.74333885  0.37410629  0.83437395  1
  H+  H368  1  0.59008970  0.92199197  0.07845146  1
  H+  H369  1  0.38240434  0.23166719  0.83046915  1
  H+  H370  1  0.57774759  0.66285931  0.40024104  1
  H+  H371  1  0.59545400  0.66903136  0.10599819  1
  H+  H372  1  0.33376375  0.66257958  0.08108383  1
  H+  H373  1  0.21805156  0.10350780  0.50711995  1
  H+  H374  1  0.63983982  0.01998671  0.51341343  1
  H+  H375  1  0.34385517  0.41947106  0.10432899  1
  H+  H376  1  0.80029247  0.14096149  0.10904660  1
  H+  H377  1  0.65378406  0.07984703  0.26053751  1
  H+  H378  1  0.07951969  0.65803572  0.77970303  1
  H+  H379  1  0.92687257  0.08646411  0.55623235  1
  H+  H380  1  0.83753746  0.91476290  0.06917697  1
  H+  H381  1  0.91919270  0.32726490  0.89841683  1
  H+  H382  1  0.32277391  0.40747404  0.76767657  1
  H+  H383  1  0.86559035  0.05142086  0.23748043  1
  O2-  O384  1  0.16813943  0.22000762  0.12897619  1
  O2-  O385  1  0.08325749  0.15190502  0.46034374  1
  O2-  O386  1  0.07989448  0.16807841  0.81673118  1
  O2-  O387  1  0.08387178  0.42847757  0.16348015  1
  O2-  O388  1  0.08608401  0.41097698  0.47354820  1
  O2-  O389  1  0.08099326  0.41498308  0.81711247  1
  O2-  O390  1  0.10173297  0.69578505  0.11748330  1
  O2-  O391  1  0.09149264  0.68137237  0.47443865  1
  O2-  O392  1  0.08288396  0.66311266  0.82441466  1
  O2-  O393  1  0.09942041  0.94188736  0.16427327  1
  O2-  O394  1  0.08822236  0.92009532  0.47395597  1
  O2-  O395  1  0.06381167  0.89593022  0.83024971  1
  O2-  O396  1  0.33138744  0.16650135  0.15154907  1
  O2-  O397  1  0.31462959  0.13365585  0.47311042  1
  O2-  O398  1  0.36411338  0.17207466  0.81716617  1
  O2-  O399  1  0.34831973  0.42460300  0.14934099  1
  O2-  O400  1  0.33381584  0.39862277  0.45933252  1
  O2-  O401  1  0.32350780  0.40073290  0.81257053  1
  O2-  O402  1  0.33154529  0.66162821  0.15188568  1
  O2-  O403  1  0.29057673  0.70653314  0.46209238  1
  O2-  O404  1  0.30827052  0.63554987  0.80197530  1
  O2-  O405  1  0.30580089  0.89928613  0.15101220  1
  O2-  O406  1  0.34576641  0.92050614  0.48369000  1
  O2-  O407  1  0.34066230  0.91020415  0.85022994  1
  O2-  O408  1  0.58236208  0.16912979  0.14110249  1
  O2-  O409  1  0.57604677  0.17402399  0.46370019  1
  O2-  O410  1  0.59991739  0.17841428  0.82500305  1
  O2-  O411  1  0.57438173  0.38999564  0.13762090  1
  O2-  O412  1  0.60280589  0.43653206  0.48218622  1
  O2-  O413  1  0.59335420  0.42302781  0.81556422  1
  O2-  O414  1  0.58707190  0.66454741  0.15080589  1
  O2-  O415  1  0.56797964  0.66126851  0.46903072  1
  O2-  O416  1  0.55761463  0.64505254  0.84453655  1
  O2-  O417  1  0.57973703  0.92203887  0.14837776  1
  O2-  O418  1  0.57485414  0.90945679  0.47425077  1
  O2-  O419  1  0.61362691  0.93977560  0.82329792  1
  O2-  O420  1  0.80151900  0.14264652  0.15361452  1
  O2-  O421  1  0.83315375  0.16099852  0.47970186  1
  O2-  O422  1  0.84274689  0.16850018  0.81367397  1
  O2-  O423  1  0.85155205  0.44863412  0.14742379  1
  O2-  O424  1  0.84931718  0.42210606  0.47106279  1
  O2-  O425  1  0.84219748  0.41436688  0.80492997  1
  O2-  O426  1  0.85081322  0.67842804  0.11634601  1
  O2-  O427  1  0.85835853  0.67509926  0.49147148  1
  O2-  O428  1  0.84023697  0.66628986  0.81661675  1
  O2-  O429  1  0.81865026  0.90118050  0.14363488  1
  O2-  O430  1  0.83111520  0.91643127  0.47420645  1
  O2-  O431  1  0.85909791  0.92571511  0.82176140  1
  O2-  O432  1  0.17359500  0.10042738  0.20506010  1
  O2-  O433  1  0.15782515  0.07785504  0.52269040  1
  O2-  O434  1  0.17777698  0.08624465  0.85525781  1
  O2-  O435  1  0.19019100  0.35480405  0.18497746  1
  O2-  O436  1  0.16998848  0.30799608  0.50550000  1
  O2-  O437  1  0.16150811  0.33150570  0.85985980  1
  O2-  O438  1  0.15495987  0.58800124  0.20783448  1
  O2-  O439  1  0.15422781  0.57699792  0.51842638  1
  O2-  O440  1  0.15378926  0.57540360  0.86717479  1
  O2-  O441  1  0.21471045  0.86069336  0.16945253  1
  O2-  O442  1  0.17532146  0.84197653  0.51409169  1
  O2-  O443  1  0.15946584  0.82338984  0.87098109  1
  O2-  O444  1  0.41253392  0.07737681  0.18424211  1
  O2-  O445  1  0.42479452  0.08972006  0.51555028  1
  O2-  O446  1  0.42472315  0.07909033  0.83920456  1
  O2-  O447  1  0.42254468  0.33567106  0.18877149  1
  O2-  O448  1  0.39292293  0.29548588  0.43244644  1
  O2-  O449  1  0.42303608  0.33582964  0.85384122  1
  O2-  O450  1  0.42585193  0.58524088  0.18720062  1
  O2-  O451  1  0.45652604  0.51354627  0.53117684  1
  O2-  O452  1  0.38186578  0.55878297  0.86307211  1
  O2-  O453  1  0.41438988  0.83012489  0.18583682  1
  O2-  O454  1  0.43129317  0.84912885  0.52136345  1
  O2-  O455  1  0.45387696  0.85986865  0.87978418  1
  O2-  O456  1  0.65016256  0.06774711  0.19680731  1
  O2-  O457  1  0.66848922  0.07581968  0.53411949  1
  O2-  O458  1  0.68047909  0.09529670  0.86881883  1
  O2-  O459  1  0.68197361  0.33174413  0.19677974  1
  O2-  O460  1  0.67176749  0.33610532  0.50891349  1
  O2-  O461  1  0.68243630  0.34849716  0.84919438  1
  O2-  O462  1  0.66653046  0.58129116  0.19710313  1
  O2-  O463  1  0.67520960  0.60008963  0.50381602  1
  O2-  O464  1  0.67524159  0.57995417  0.85925275  1
  O2-  O465  1  0.65454968  0.82524555  0.18997620  1
  O2-  O466  1  0.65756395  0.82357238  0.50048558  1
  O2-  O467  1  0.68494132  0.85324669  0.85843040  1
  O2-  O468  1  0.83209191  0.02749630  0.19984355  1
  O2-  O469  1  0.92231257  0.08323353  0.51103213  1
  O2-  O470  1  0.92438690  0.09040745  0.86256447  1
  O2-  O471  1  0.91656985  0.31200999  0.18672067  1
  O2-  O472  1  0.92117529  0.33109008  0.51494860  1
  O2-  O473  1  0.91753056  0.33011668  0.85315488  1
  O2-  O474  1  0.94308821  0.61596872  0.16712942  1
  O2-  O475  1  0.93036525  0.58564164  0.52252600  1
  O2-  O476  1  0.92386816  0.57904949  0.85366836  1
  O2-  O477  1  0.93904807  0.80261770  0.18927465  1
  O2-  O478  1  0.92613481  0.84677917  0.51712817  1
  O2-  O479  1  0.90826134  0.82400216  0.87066670  1
  O2-  O480  1  0.09961824  0.09299480  0.30970338  1
  O2-  O481  1  0.16483875  0.07992343  0.64817812  1
  O2-  O482  1  0.08822311  0.03784754  0.96241220  1
  O2-  O483  1  0.17923736  0.33523689  0.30978655  1
  O2-  O484  1  0.16202322  0.33690054  0.64951793  1
  O2-  O485  1  0.16934283  0.34482305  0.98308712  1
  O2-  O486  1  0.16343563  0.55701158  0.32562407  1
  O2-  O487  1  0.15382847  0.57990833  0.64636784  1
  O2-  O488  1  0.17797745  0.60169161  0.99096168  1
  O2-  O489  1  0.18231888  0.85877959  0.30467877  1
  O2-  O490  1  0.18490013  0.84239930  0.63100184  1
  O2-  O491  1  0.16604408  0.81389574  0.99171742  1
  O2-  O492  1  0.41048209  0.07495583  0.30779929  1
  O2-  O493  1  0.42641861  0.09895684  0.63963072  1
  O2-  O494  1  0.40644370  0.07612662  0.98637854  1
  O2-  O495  1  0.43212945  0.35619481  0.31316449  1
  O2-  O496  1  0.40623932  0.32278098  0.66802439  1
  O2-  O497  1  0.41409403  0.33399731  0.97841280  1
  O2-  O498  1  0.44023812  0.58884893  0.30140025  1
  O2-  O499  1  0.38836511  0.56792039  0.63401377  1
  O2-  O500  1  0.42716573  0.61256203  0.97991410  1
  O2-  O501  1  0.42310396  0.82800334  0.31054410  1
  O2-  O502  1  0.41701731  0.82250401  0.63225158  1
  O2-  O503  1  0.41995987  0.83482161  1.00336267  1
  O2-  O504  1  0.65736947  0.08763513  0.31010926  1
  O2-  O505  1  0.63765427  0.06513884  0.65515603  1
  O2-  O506  1  0.66225275  0.06493180  0.98411679  1
  O2-  O507  1  0.67207130  0.33003248  0.31985870  1
  O2-  O508  1  0.66892260  0.35122907  0.68421907  1
  O2-  O509  1  0.67166820  0.34379567  0.97784680  1
  O2-  O510  1  0.67035914  0.59057109  0.31640396  1
  O2-  O511  1  0.69594764  0.58955852  0.63000027  1
  O2-  O512  1  0.67617047  0.58149543  0.97460228  1
  O2-  O513  1  0.66529445  0.83537970  0.31420946  1
  O2-  O514  1  0.64759173  0.84808137  0.62542152  1
  O2-  O515  1  0.66810839  0.83128163  0.98543837  1
  O2-  O516  1  0.91195294  0.07952442  0.31135383  1
  O2-  O517  1  0.92951014  0.08853580  0.63767561  1
  O2-  O518  1  0.91216761  0.08602929  0.98576810  1
  O2-  O519  1  0.92156568  0.32710820  0.31424054  1
  O2-  O520  1  0.92418596  0.33135995  0.63967259  1
  O2-  O521  1  0.93482973  0.30975895  0.97475076  1
  O2-  O522  1  0.92517888  0.58222123  0.29936104  1
  O2-  O523  1  0.91497028  0.57302583  0.64295766  1
  O2-  O524  1  0.92224140  0.59600991  1.01243042  1
  O2-  O525  1  0.91708474  0.83625824  0.31239962  1
  O2-  O526  1  0.92649030  0.83776540  0.64350172  1
  O2-  O527  1  0.90583522  0.81182074  0.99324201  1
  O2-  O528  1  0.08562350  0.17733109  0.02183989  1
  O2-  O529  1  0.15619221  0.17013621  0.34587675  1
  O2-  O530  1  0.08634932  0.16536319  0.68967952  1
  O2-  O531  1  0.07904468  0.42555752  0.01338832  1
  O2-  O532  1  0.08811048  0.40072903  0.35502369  1
  O2-  O533  1  0.08256033  0.42208087  0.69523449  1
  O2-  O534  1  0.08810202  0.67297106  0.05249066  1
  O2-  O535  1  0.08856147  0.70332688  0.34431457  1
  O2-  O536  1  0.06259846  0.65367280  0.69639874  1
  O2-  O537  1  0.08281273  0.90362119  0.02413962  1
  O2-  O538  1  0.08637521  0.93143348  0.34862893  1
  O2-  O539  1  0.09129516  0.91911039  0.68976291  1
  O2-  O540  1  0.33728077  0.16348678  0.02313637  1
  O2-  O541  1  0.28212680  0.09849310  0.35677504  1
  O2-  O542  1  0.32433664  0.14827172  0.69345742  1
  O2-  O543  1  0.33820463  0.41660513  0.02290810  1
  O2-  O544  1  0.34187911  0.43494335  0.34066322  1
  O2-  O545  1  0.32313502  0.41259274  0.68885180  1
  O2-  O546  1  0.33775811  0.66751623  0.03445434  1
  O2-  O547  1  0.33010017  0.65417439  0.35896867  1
  O2-  O548  1  0.31795656  0.65681001  0.67523862  1
  O2-  O549  1  0.32822178  0.91530582  0.03124864  1
  O2-  O550  1  0.34007850  0.91347397  0.35250582  1
  O2-  O551  1  0.34911195  0.92586042  0.66141203  1
  O2-  O552  1  0.58078254  0.18583047  0.01627655  1
  O2-  O553  1  0.58468635  0.16639068  0.35394819  1
  O2-  O554  1  0.57650111  0.17293000  0.70295778  1
  O2-  O555  1  0.58098489  0.41785078  0.01363562  1
  O2-  O556  1  0.59600767  0.42246477  0.35628005  1
  O2-  O557  1  0.57187411  0.44057141  0.70259685  1
  O2-  O558  1  0.59832227  0.66762265  0.02663925  1
  O2-  O559  1  0.58321852  0.66633855  0.35271634  1
  O2-  O560  1  0.63933815  0.69795512  0.67328368  1
  O2-  O561  1  0.58886088  0.91641200  0.03138429  1
  O2-  O562  1  0.58239837  0.91938055  0.35520087  1
  O2-  O563  1  0.58006102  0.92308403  0.71214507  1
  O2-  O564  1  0.81459540  0.14777885  0.02360924  1
  O2-  O565  1  0.82297517  0.16060111  0.35530927  1
  O2-  O566  1  0.85103932  0.17788190  0.68459028  1
  O2-  O567  1  0.83297043  0.41984207  0.02250872  1
  O2-  O568  1  0.83995042  0.41923948  0.34508485  1
  O2-  O569  1  0.84582352  0.40940046  0.67983903  1
  O2-  O570  1  0.84721988  0.67080707  0.04977637  1
  O2-  O571  1  0.84275994  0.65775462  0.34212833  1
  O2-  O572  1  0.85269688  0.67247241  0.68906096  1
  O2-  O573  1  0.84222292  0.91739559  0.02351344  1
  O2-  O574  1  0.83305800  0.91766067  0.35099771  1
  O2-  O575  1  0.85731826  0.92728949  0.70098949  1
