# generated using pymatgen
data_H2O
_symmetry_space_group_name_H-M   'P 1'
_cell_length_a   17.99436778
_cell_length_b   17.99316386
_cell_length_c   22.00980394
_cell_angle_alpha   89.99381388
_cell_angle_beta   90.00286968
_cell_angle_gamma   120.00546078
_symmetry_Int_Tables_number   1
_chemical_formula_structural   H2O
_chemical_formula_sum   'H384 O192'
_cell_volume   6171.16317994
_cell_formula_units_Z   192
loop_
 _symmetry_equiv_pos_site_id
 _symmetry_equiv_pos_as_xyz
  1  'x, y, z'
loop_
 _atom_type_symbol
 _atom_type_oxidation_number
  H+  1.0
  O2-  -2.0
loop_
 _atom_site_type_symbol
 _atom_site_label
 _atom_site_symmetry_multiplicity
 _atom_site_fract_x
 _atom_site_fract_y
 _atom_site_fract_z
 _atom_site_occupancy
  H+  H0  1  0.49965966  0.15586702  0.83585038  1
  H+  H1  1  0.37708153  0.48043788  0.83078430  1
  H+  H2  1  0.51512454  0.63297884  0.49806142  1
  H+  H3  1  0.49490605  0.09242285  0.20099035  1
  H+  H4  1  0.88682071  0.29881329  0.32630377  1
  H+  H5  1  0.52183188  0.35828973  0.49295571  1
  H+  H6  1  0.77270692  0.63054250  0.67482630  1
  H+  H7  1  -0.01145391  0.86342870  0.00441941  1
  H+  H8  1  0.12807147  0.76108307  0.84696869  1
  H+  H9  1  0.61717712  0.62082760  0.15939498  1
  H+  H10  1  0.14474750  0.60357974  1.00281146  1
  H+  H11  1  0.63824791  0.51919219  0.66409850  1
  H+  H12  1  0.62846261  0.61522239  -0.01851551  1
  H+  H13  1  0.00388554  0.12653962  0.33780549  1
  H+  H14  1  0.33952488  0.67150726  0.07157529  1
  H+  H15  1  0.90038086  0.77832756  0.17991625  1
  H+  H16  1  1.11714600  0.63351232  0.81262733  1
  H+  H17  1  0.63169190  0.78058565  0.34944347  1
  H+  H18  1  0.52983793  0.38541586  0.67138248  1
  H+  H19  1  0.87091907  0.04126154  0.63491455  1
  H+  H20  1  0.11421434  0.23400079  0.51153789  1
  H+  H21  1  0.74698735  0.12853630  0.68763988  1
  H+  H22  1  0.84766697  0.70344380  0.47713452  1
  H+  H23  1  0.07377079  0.19715682  0.59825253  1
  H+  H24  1  0.37549435  0.01903710  0.66252380  1
  H+  H25  1  0.62593868  0.40300377  1.00929699  1
  H+  H26  1  0.84610493  0.92885089  0.54221063  1
  H+  H27  1  0.87272254  0.85445844  0.34361117  1
  H+  H28  1  0.46836907  0.10997794  1.00727845  1
  H+  H29  1  0.59778338  0.13010666  0.48096037  1
  H+  H30  1  0.71693597  0.84965067  0.50095113  1
  H+  H31  1  0.76016941  0.88432664  0.36452412  1
  H+  H32  1  0.16462239  0.30822516  0.84955676  1
  H+  H33  1  0.46145532  0.10185298  0.50354381  1
  H+  H34  1  0.88515073  0.51546238  0.50570062  1
  H+  H35  1  0.15758934  0.08482257  0.08392474  1
  H+  H36  1  0.89069435  1.05159521  0.49611153  1
  H+  H37  1  0.62180075  0.48596134  0.16903182  1
  H+  H38  1  0.11822622  0.87793281  1.01290853  1
  H+  H39  1  0.88493856  0.12278795  0.84265810  1
  H+  H40  1  0.85168230  0.47347917  0.82790226  1
  H+  H41  1  0.75922395  0.38958688  0.82472067  1
  H+  H42  1  0.34566517  0.10485894  0.86307331  1
  H+  H43  1  0.92901185  0.30758786  0.86232299  1
  H+  H44  1  0.13435585  0.54029329  0.16867596  1
  H+  H45  1  0.64642663  0.21924721  0.02334057  1
  H+  H46  1  0.12492309  0.84905799  0.84885508  1
  H+  H47  1  0.78849549  0.90539924  1.00272937  1
  H+  H48  1  0.38224693  0.29092675  0.88930256  1
  H+  H49  1  0.91335181  0.80679273  0.54374547  1
  H+  H50  1  0.10696037  0.48241176  0.48694219  1
  H+  H51  1  1.02322542  0.38929137  0.49088265  1
  H+  H52  1  0.38074794  0.39515431  0.33563056  1
  H+  H53  1  0.66805977  0.12903099  0.84215850  1
  H+  H54  1  0.65219670  0.37613282  0.32692919  1
  H+  H55  1  0.77423243  0.37886138  0.50255752  1
  H+  H56  1  0.52331548  0.14546917  0.33829723  1
  H+  H57  1  0.09886595  0.17524585  0.79989689  1
  H+  H58  1  0.10099171  0.13515112  0.34948064  1
  H+  H59  1  0.12128451  0.02621407  0.34929086  1
  H+  H60  1  0.10482422  0.88386501  0.32749353  1
  H+  H61  1  0.80600349  0.90744808  0.91357974  1
  H+  H62  1  0.35967653  0.73741268  0.16051670  1
  H+  H63  1  0.22224964  0.61426170  0.32391051  1
  H+  H64  1  0.47243626  0.33273089  0.31821385  1
  H+  H65  1  0.85524351  0.12525924  0.01980262  1
  H+  H66  1  0.86809115  1.00235468  0.34712919  1
  H+  H67  1  0.12241239  0.02703850  0.14412701  1
  H+  H68  1  0.63002872  0.75309615  0.13920914  1
  H+  H69  1  0.81431565  0.07212111  0.18026428  1
  H+  H70  1  0.87607719  0.72597189  0.01721064  1
  H+  H71  1  0.66456338  0.09093913  0.41630941  1
  H+  H72  1  0.35835403  0.72259865  0.33508045  1
  H+  H73  1  0.24437116  0.08131182  0.63403722  1
  H+  H74  1  0.64739030  0.34564168  0.51262441  1
  H+  H75  1  0.77668705  0.37978379  1.00092277  1
  H+  H76  1  0.63808441  0.02730757  0.31756552  1
  H+  H77  1  0.03761261  0.40782384  0.15884275  1
  H+  H78  1  0.39567704  1.03267749  0.33659194  1
  H+  H79  1  0.26753209  0.13801236  0.49184036  1
  H+  H80  1  0.73742569  0.12023096  0.46487491  1
  H+  H81  1  0.47470485  0.61717582  0.17891599  1
  H+  H82  1  0.32848339  0.23442640  0.80925379  1
  H+  H83  1  0.96952676  0.60113044  0.65871577  1
  H+  H84  1  0.38703391  -0.01199777  0.86173319  1
  H+  H85  1  0.26829850  0.61775778  0.69678743  1
  H+  H86  1  0.10184927  0.72496686  0.48734835  1
  H+  H87  1  0.57321084  0.92186213  0.77048822  1
  H+  H88  1  0.10832468  0.14524502  0.13405322  1
  H+  H89  1  0.13198387  0.25135248  -0.00939915  1
  H+  H90  1  0.85263465  0.97819172  0.86387764  1
  H+  H91  1  0.39416433  0.37728229  0.17733815  1
  H+  H92  1  0.45464224  0.88225367  0.16019208  1
  H+  H93  1  0.62868616  0.77077415  0.83157834  1
  H+  H94  1  0.27441258  0.39798880  0.01092137  1
  H+  H95  1  0.35039946  0.21996884  0.34023832  1
  H+  H96  1  0.01239838  0.63356082  0.49004420  1
  H+  H97  1  0.37779898  0.61283756  0.50923942  1
  H+  H98  1  0.49507247  0.17391283  0.80598754  1
  H+  H99  1  0.17378507  0.06574947  0.92016755  1
  H+  H100  1  0.64688524  0.87074933  -0.01071920  1
  H+  H101  1  0.83856744  0.93851122  0.16250143  1
  H+  H102  1  0.14892399  0.30930043  0.64168897  1
  H+  H103  1  0.87414760  0.14849745  0.48408487  1
  H+  H104  1  0.38840043  0.61207636  0.99908193  1
  H+  H105  1  0.33478838  0.85861230  0.82391316  1
  H+  H106  1  0.85407422  0.46684894  0.67537808  1
  H+  H107  1  0.96965353  0.62751084  0.32511487  1
  H+  H108  1  0.85682943  0.92509241  0.68095802  1
  H+  H109  1  0.14035746  0.09692396  0.86594669  1
  H+  H110  1  0.84449453  0.61630549  0.49111529  1
  H+  H111  1  0.77579089  0.14472228  0.31796297  1
  H+  H112  1  0.14757003  0.40381000  0.83148351  1
  H+  H113  1  0.22929562  0.87322728  0.00443005  1
  H+  H114  1  0.72089893  0.83921960  0.12493359  1
  H+  H115  1  0.71486958  0.86226878  0.84382641  1
  H+  H116  1  0.12069220  0.09614360  0.68080571  1
  H+  H117  1  0.85840402  0.71747418  0.83213608  1
  H+  H118  1  0.38437130  0.11339618  0.34988223  1
  H+  H119  1  0.61674369  0.65351409  0.34574033  1
  H+  H120  1  0.59330010  0.27961781  0.85857631  1
  H+  H121  1  0.91506705  0.81841686  0.91465476  1
  H+  H122  1  0.62234339  0.86340386  0.13772702  1
  H+  H123  1  0.14348846  0.29067729  0.16993449  1
  H+  H124  1  0.36865041  0.48032752  0.49154276  1
  H+  H125  1  0.64160651  0.86102293  0.64561288  1
  H+  H126  1  0.76159160  0.38054234  0.34753031  1
  H+  H127  1  0.10963161  0.71586439  0.66291209  1
  H+  H128  1  0.35862247  0.63386866  0.33910915  1
  H+  H129  1  0.49612980  0.83122925  0.99062866  1
  H+  H130  1  0.61442100  -0.02551522  0.47301152  1
  H+  H131  1  0.86503232  0.63998124  0.16482310  1
  H+  H132  1  0.88613736  0.60812811  0.84187348  1
  H+  H133  1  0.12232560  0.94743684  0.64499190  1
  H+  H134  1  0.87482073  0.63669056  1.01666280  1
  H+  H135  1  0.64634670  1.03040704  0.84256349  1
  H+  H136  1  0.66473314  0.07140837  0.93956250  1
  H+  H137  1  0.23298351  0.37592767  0.18071901  1
  H+  H138  1  0.02247772  0.38921179  0.85044391  1
  H+  H139  1  0.57423184  0.66331976  0.40679890  1
  H+  H140  1  0.12272592  0.65251297  0.17179980  1
  H+  H141  1  0.99467789  0.13439448  0.99362750  1
  H+  H142  1  0.36298126  0.64926658  0.16739560  1
  H+  H143  1  0.71727105  0.09001029  1.00261946  1
  H+  H144  1  0.28131878  0.39287854  0.48444097  1
  H+  H145  1  0.19485869  0.20149894  0.81145749  1
  H+  H146  1  0.63747041  0.60849251  0.66510940  1
  H+  H147  1  0.90137396  0.86782833  1.00138130  1
  H+  H148  1  0.86764272  0.38269630  0.49274654  1
  H+  H149  1  0.51421792  0.88928640  0.32830300  1
  H+  H150  1  0.13675896  0.37031416  0.98596237  1
  H+  H151  1  -0.03687409  0.10428319  0.83865665  1
  H+  H152  1  0.36505773  0.48503095  1.01363133  1
  H+  H153  1  0.39090746  0.52455920  0.32655080  1
  H+  H154  1  0.15040251  0.81526290  0.25872163  1
  H+  H155  1  0.37478897  0.10528157  0.50868281  1
  H+  H156  1  0.93885185  0.06213961  0.19441578  1
  H+  H157  1  0.02968360  0.16740261  0.13225389  1
  H+  H158  1  0.86356601  0.37985144  0.01492783  1
  H+  H159  1  0.27138075  0.62802909  0.01645774  1
  H+  H160  1  0.24873457  0.86351485  0.82727641  1
  H+  H161  1  0.77547057  0.88717394  0.63743781  1
  H+  H162  1  0.12562442  1.02170301  0.48942139  1
  H+  H163  1  0.28044188  0.39905012  0.83400293  1
  H+  H164  1  0.37843242  0.85688647  0.32133558  1
  H+  H165  1  0.38616254  0.87485769  1.00713940  1
  H+  H166  1  0.87058884  0.09391927  0.33297286  1
  H+  H167  1  0.88225769  0.60411508  0.66077746  1
  H+  H168  1  0.63414753  1.02275888  0.67894278  1
  H+  H169  1  0.88892307  0.52679611  0.18026974  1
  H+  H170  1  0.47327885  0.86119530  0.49463650  1
  H+  H171  1  0.10550184  0.63867125  0.33494401  1
  H+  H172  1  0.39666074  0.52671450  0.66665068  1
  H+  H173  1  0.86212598  0.39589090  0.34627309  1
  H+  H174  1  0.76986701  0.63008469  0.82478915  1
  H+  H175  1  0.07274773  0.66281259  0.76493579  1
  H+  H176  1  0.24493340  0.13312820  -0.00641263  1
  H+  H177  1  0.86418281  0.19111489  0.28299661  1
  H+  H178  1  0.14893559  0.53008433  1.04051435  1
  H+  H179  1  0.48419544  0.37699790  0.17567368  1
  H+  H180  1  0.12418888  0.83982997  0.64805059  1
  H+  H181  1  0.63375552  0.87104557  0.34023201  1
  H+  H182  1  0.12271260  0.61826147  0.49776176  1
  H+  H183  1  0.61029204  0.38552955  0.82947844  1
  H+  H184  1  0.78485542  0.14546519  0.83500542  1
  H+  H185  1  0.36928038  0.14246333  0.67112017  1
  H+  H186  1  0.37604238  0.35981842  0.84192822  1
  H+  H187  1  0.61699967  0.63927788  0.82186607  1
  H+  H188  1  0.25617458  0.13612438  0.81679345  1
  H+  H189  1  0.63515942  0.23424307  0.16639740  1
  H+  H190  1  0.40276666  0.01213331  0.19838575  1
  H+  H191  1  0.02435318  0.86855897  0.64673236  1
  H+  H192  1  0.24378636  0.86035512  0.15704394  1
  H+  H193  1  0.22434078  0.63125846  0.17045885  1
  H+  H194  1  0.53580598  0.82338987  0.70446966  1
  H+  H195  1  0.16933518  0.40057230  0.65861308  1
  H+  H196  1  0.86175571  0.76220429  0.33872991  1
  H+  H197  1  0.63112031  0.52192962  0.83086457  1
  H+  H198  1  0.37259782  0.02455717  1.01043313  1
  H+  H199  1  0.61159863  0.14718260  0.32143386  1
  H+  H200  1  0.87231445  0.35908972  0.66649370  1
  H+  H201  1  0.88144154  0.75400583  0.64609248  1
  H+  H202  1  0.10817387  0.62724743  0.67386663  1
  H+  H203  1  0.35621751  0.88593936  0.48730814  1
  H+  H204  1  0.63622993  0.35406093  0.66571630  1
  H+  H205  1  0.34563895  0.42234718  0.74061181  1
  H+  H206  1  0.59080568  0.46500401  0.34513159  1
  H+  H207  1  0.83588539  0.66494323  0.73247895  1
  H+  H208  1  0.02692208  0.65412139  0.17412142  1
  H+  H209  1  0.67098315  0.25671226  0.82316306  1
  H+  H210  1  0.11042296  0.47981718  0.33334863  1
  H+  H211  1  0.89060848  0.27408289  0.50256330  1
  H+  H212  1  0.21045923  0.11638249  0.35513934  1
  H+  H213  1  0.87855581  0.85113803  0.86256732  1
  H+  H214  1  0.99916405  0.18011879  0.64150477  1
  H+  H215  1  0.15564281  0.14072765  0.67306888  1
  H+  H216  1  0.39169439  0.36566159  0.50380642  1
  H+  H217  1  0.62374507  0.74138429  0.99803844  1
  H+  H218  1  0.61424124  0.28670513  0.98108201  1
  H+  H219  1  0.66263860  0.34383809  0.92264255  1
  H+  H220  1  0.68645561  0.51508258  0.36319049  1
  H+  H221  1  0.35214997  0.97265809  0.48949615  1
  H+  H222  1  0.30403151  0.64466587  0.79795598  1
  H+  H223  1  0.97309105  0.60443171  0.84129670  1
  H+  H224  1  0.88306941  0.84151496  0.62900618  1
  H+  H225  1  0.88073273  0.99437178  0.00332161  1
  H+  H226  1  0.92160101  0.83039133  0.24142367  1
  H+  H227  1  0.48001378  0.87966775  0.85277271  1
  H+  H228  1  0.60569721  0.88707087  0.82483187  1
  H+  H229  1  0.38270545  0.77249290  0.50216760  1
  H+  H230  1  0.36373831  0.23896523  0.14727675  1
  H+  H231  1  0.13023920  0.49593648  0.66651936  1
  H+  H232  1  0.60589438  0.96579069  0.00646696  1
  H+  H233  1  0.14366170  0.37731278  0.49552041  1
  H+  H234  1  0.39822843  0.37079848  0.66281586  1
  H+  H235  1  0.68900876  0.61220499  0.23190850  1
  H+  H236  1  -0.00254065  0.36504177  -0.06147409  1
  H+  H237  1  0.97291363  0.85156741  0.48582436  1
  H+  H238  1  0.47205152  0.95609360  0.61307324  1
  H+  H239  1  0.51918714  0.88334501  0.66083959  1
  H+  H240  1  0.10476192  0.95546057  0.84667404  1
  H+  H241  1  0.01472618  0.86898203  0.84266224  1
  H+  H242  1  0.60670062  0.63347213  0.49937199  1
  H+  H243  1  0.84428858  0.22823021  0.67145922  1
  H+  H244  1  0.61830682  0.72684151  0.66412899  1
  H+  H245  1  0.33468169  0.07730864  0.83503866  1
  H+  H246  1  0.87896288  0.62381833  0.32132099  1
  H+  H247  1  0.33387902  0.42729714  0.10832624  1
  H+  H248  1  0.95797347  0.35251546  0.66984699  1
  H+  H249  1  0.10764502  0.88385830  0.48526885  1
  H+  H250  1  0.12855343  0.41583822  0.16281296  1
  H+  H251  1  0.51660648  0.12718852  0.67490697  1
  H+  H252  1  0.39445795  0.28000023  0.65605475  1
  H+  H253  1  0.03648060  0.89700419  0.17550947  1
  H+  H254  1  0.53795745  0.40361822  0.01744924  1
  H+  H255  1  0.34661500  0.71000342  0.70323393  1
  H+  H256  1  0.48148738  0.61394844  0.84032408  1
  H+  H257  1  0.21783562  0.85762780  0.49795218  1
  H+  H258  1  0.01349782  0.87840473  0.33809103  1
  H+  H259  1  0.31370992  0.90106440  0.73252957  1
  H+  H260  1  0.39719939  0.73843450  0.99031730  1
  H+  H261  1  0.97763815  0.38556331  0.32974572  1
  H+  H262  1  0.88954241  0.34320608  0.16666505  1
  H+  H263  1  0.48053306  0.61920072  0.99492386  1
  H+  H264  1  0.12228022  0.71809860  0.99701419  1
  H+  H265  1  0.56047279  0.87604249  0.18340770  1
  H+  H266  1  0.29194613  0.39977813  0.67764579  1
  H+  H267  1  0.39341810  0.38596919  0.00525440  1
  H+  H268  1  0.26846796  0.88101923  0.33017199  1
  H+  H269  1  0.61586117  0.12260597  0.01230946  1
  H+  H270  1  0.36410772  0.48869989  0.16719411  1
  H+  H271  1  0.63512192  0.53004341  0.98821217  1
  H+  H272  1  1.01914114  0.15000226  0.51555467  1
  H+  H273  1  0.84378548  0.13363947  0.65715189  1
  H+  H274  1  0.26566260  0.64056731  0.48993041  1
  H+  H275  1  0.35682565  0.89040454  0.67152516  1
  H+  H276  1  0.89081747  0.51902156  0.99812407  1
  H+  H277  1  0.09617718  0.23468546  0.32767213  1
  H+  H278  1  0.62500285  0.10874228  0.69061651  1
  H+  H279  1  0.12909614  0.77298443  0.32302792  1
  H+  H280  1  0.56883738  0.91837261  0.38978904  1
  H+  H281  1  0.60799701  0.88218518  0.48230666  1
  H+  H282  1  0.05837003  0.33262102  0.69484218  1
  H+  H283  1  0.35194833  0.90387470  0.02039944  1
  H+  H284  1  0.74408693  0.62987039  0.17041913  1
  H+  H285  1  0.03373007  0.62866843  -0.00641820  1
  H+  H286  1  0.63798977  0.27814872  0.32392570  1
  H+  H287  1  0.52682005  0.64038281  0.66898396  1
  H+  H288  1  0.84087937  0.17738222  0.77479401  1
  H+  H289  1  0.66750255  0.14283579  0.57188069  1
  H+  H290  1  0.43416031  0.81635749  0.92813878  1
  H+  H291  1  0.15899438  0.82334290  0.55765697  1
  H+  H292  1  0.58499138  0.41135697  0.73294277  1
  H+  H293  1  0.11063312  0.34944480  0.32335816  1
  H+  H294  1  0.20552442  0.53701108  0.61983356  1
  H+  H295  1  0.10384917  0.19860683  0.05228327  1
  H+  H296  1  0.85896144  0.19162072  0.42182350  1
  H+  H297  1  0.91697995  0.59145183  0.23573046  1
  H+  H298  1  0.41771270  0.32925026  0.26019004  1
  H+  H299  1  0.85298635  0.87859847  0.76145264  1
  H+  H300  1  0.15481688  0.13277218  0.99857389  1
  H+  H301  1  0.07988021  0.91008283  0.42277104  1
  H+  H302  1  0.37334974  0.15368753  0.97550016  1
  H+  H303  1  0.60734733  0.21759180  0.67427141  1
  H+  H304  1  0.91530847  0.57723922  0.93894040  1
  H+  H305  1  0.40900755  0.07559867  0.60148409  1
  H+  H306  1  0.44855965  0.39347650  0.94751862  1
  H+  H307  1  0.37867962  0.24428431  -0.01414698  1
  H+  H308  1  0.82579363  0.41279443  0.73913446  1
  H+  H309  1  0.58626328  0.66987965  0.76325758  1
  H+  H310  1  0.91510062  0.32850377  0.56533741  1
  H+  H311  1  0.66117241  0.82635638  0.58373791  1
  H+  H312  1  0.16354805  0.59081139  0.26426775  1
  H+  H313  1  0.42149131  0.58223855  0.89893575  1
  H+  H314  1  0.92894051  0.35371402  0.23033523  1
  H+  H315  1  0.72726565  0.80211259  0.24366874  1
  H+  H316  1  0.14874122  0.32395918  0.26470615  1
  H+  H317  1  0.69136865  0.80993051  0.23520900  1
  H+  H318  1  0.43423406  0.92043109  0.89125378  1
  H+  H319  1  0.71318767  0.60930882  0.50496193  1
  H+  H320  1  0.64167666  0.09480407  0.57519361  1
  H+  H321  1  0.51867159  0.38169416  0.82426674  1
  H+  H322  1  0.91114897  0.57399845  0.56538891  1
  H+  H323  1  0.62406696  0.76224537  0.49828175  1
  H+  H324  1  0.21599164  0.84494378  0.65189313  1
  H+  H325  1  0.16965156  0.83292882  0.94306037  1
  H+  H326  1  0.12201727  0.96882561  0.01797150  1
  H+  H327  1  0.59685772  0.68417920  0.05734068  1
  H+  H328  1  0.32353695  0.90686792  0.39148261  1
  H+  H329  1  0.31640408  0.17045431  0.71677905  1
  H+  H330  1  0.20326326  0.07624156  0.25418647  1
  H+  H331  1  0.07511018  0.66690627  0.39468697  1
  H+  H332  1  0.82408490  0.40818651  0.41642557  1
  H+  H333  1  0.83130804  0.91636378  0.41883861  1
  H+  H334  1  0.53726617  0.57511380  0.11543536  1
  H+  H335  1  0.62870220  0.18930984  0.76962116  1
  H+  H336  1  0.84151597  0.67029968  0.10262687  1
  H+  H337  1  0.09143891  0.91153296  0.11625880  1
  H+  H338  1  0.89446102  0.10333401  0.57273960  1
  H+  H339  1  0.14946199  0.58736813  0.55784928  1
  H+  H340  1  0.59428503  0.40118926  0.44216283  1
  H+  H341  1  0.85347374  0.92091249  0.76150353  1
  H+  H342  1  0.41683764  0.59302081  0.23927276  1
  H+  H343  1  0.12680384  0.10937789  0.51080055  1
  H+  H344  1  0.59448655  0.42791071  0.11047789  1
  H+  H345  1  0.71025992  0.35581609  0.23776267  1
  H+  H346  1  0.00619804  0.09536050  0.74838753  1
  H+  H347  1  0.27619550  0.15664118  0.13457601  1
  H+  H348  1  0.18670530  0.36364667  0.92615454  1
  H+  H349  1  0.80445691  0.12479277  0.07928391  1
  H+  H350  1  0.07954701  0.42209891  0.39415236  1
  H+  H351  1  0.01259345  0.14032225  0.74736945  1
  H+  H352  1  0.42416712  0.03476774  0.92576462  1
  H+  H353  1  0.72303626  0.35033726  0.67187996  1
  H+  H354  1  0.67901875  0.08153495  0.25752053  1
  H+  H355  1  0.58839349  0.16812432  0.11381257  1
  H+  H356  1  0.35179759  0.42523756  0.39450962  1
  H+  H357  1  0.38989946  0.61135138  0.67097705  1
  H+  H358  1  0.35945884  0.86610022  0.16726801  1
  H+  H359  1  0.57935270  0.90439644  0.06579750  1
  H+  H360  1  0.30866078  0.91679508  0.10204819  1
  H+  H361  1  0.66248261  0.83740344  0.92588146  1
  H+  H362  1  0.32811691  0.17041888  0.40467737  1
  H+  H363  1  0.84148057  0.91560094  0.09265728  1
  H+  H364  1  0.92652498  0.10127517  0.93974229  1
  H+  H365  1  0.14058580  0.49227938  0.81242727  1
  H+  H366  1  0.65801071  0.58062337  0.89061855  1
  H+  H367  1  0.56158765  0.16028811  0.42838415  1
  H+  H368  1  0.08533911  0.40462943  0.74916733  1
  H+  H369  1  0.23815220  0.08748764  0.23122474  1
  H+  H370  1  0.86277363  0.86873265  0.49904983  1
  H+  H371  1  0.18587508  0.36458656  0.55524051  1
  H+  H372  1  0.47451005  0.61815760  0.32956189  1
  H+  H373  1  0.35906864  0.22606247  0.49734438  1
  H+  H374  1  0.66164810  0.58704082  0.56773039  1
  H+  H375  1  0.32749348  0.66621889  0.43217317  1
  H+  H376  1  0.40786123  0.83284876  0.26001000  1
  H+  H377  1  0.40856064  0.58374515  0.56919558  1
  H+  H378  1  0.42029835  0.33803507  0.56490254  1
  H+  H379  1  0.88479217  0.03877874  0.25464980  1
  H+  H380  1  0.66883931  1.00541399  0.16658255  1
  H+  H381  1  0.68408996  0.33139000  0.57558502  1
  H+  H382  1  0.18685704  0.05040696  0.57496272  1
  H+  H383  1  0.43108757  0.86542568  0.58131496  1
  O2-  O384  1  0.09164118  0.19302616  0.13079780  1
  O2-  O385  1  0.08192032  0.17327072  0.52509629  1
  O2-  O386  1  0.14130597  0.19242982  0.83234263  1
  O2-  O387  1  0.09912552  0.44635690  0.14780132  1
  O2-  O388  1  0.08180829  0.42207690  0.47226210  1
  O2-  O389  1  0.10829960  0.42723851  0.81069859  1
  O2-  O390  1  0.08959198  0.68650419  0.15956342  1
  O2-  O391  1  0.07235771  0.66362125  0.47275542  1
  O2-  O392  1  0.07733366  0.65781219  0.80947078  1
  O2-  O393  1  0.09547212  0.93337208  0.15804021  1
  O2-  O394  1  0.07615189  0.91186926  0.46838272  1
  O2-  O395  1  0.07541292  0.89679943  0.82928681  1
  O2-  O396  1  0.33534231  0.18944293  0.11966776  1
  O2-  O397  1  0.32968975  0.16615770  0.48074983  1
  O2-  O398  1  0.27779942  0.18547776  0.78860992  1
  O2-  O399  1  0.33623739  0.42752473  0.15384521  1
  O2-  O400  1  0.34360063  0.42151427  0.47412065  1
  O2-  O401  1  0.34218843  0.41846406  0.81678194  1
  O2-  O402  1  0.33046444  0.67521340  0.14885310  1
  O2-  O403  1  0.32704698  0.66792351  0.47784028  1
  O2-  O404  1  0.26505775  0.64296653  0.83019328  1
  O2-  O405  1  0.30458370  0.90236694  0.14826186  1
  O2-  O406  1  0.32261319  0.91249513  0.47275969  1
  O2-  O407  1  0.30758758  0.88955554  0.80678186  1
  O2-  O408  1  0.58963367  0.17544654  0.15815038  1
  O2-  O409  1  0.55688626  0.14973919  0.47249901  1
  O2-  O410  1  0.67073238  0.20698775  0.80276860  1
  O2-  O411  1  0.58528591  0.42617645  0.15510907  1
  O2-  O412  1  0.57683219  0.36476857  0.47834138  1
  O2-  O413  1  0.57861145  0.41423329  0.80981034  1
  O2-  O414  1  0.56904066  0.62776750  0.13900126  1
  O2-  O415  1  0.57475210  0.66323958  0.48171637  1
  O2-  O416  1  0.58736131  0.67170334  0.80852721  1
  O2-  O417  1  0.59698194  0.90329688  0.14819478  1
  O2-  O418  1  0.57571791  0.91110752  0.46874037  1
  O2-  O419  1  0.57817099  0.92264816  0.81494844  1
  O2-  O420  1  0.78842731  0.10437589  0.16105729  1
  O2-  O421  1  0.84324560  0.18169833  0.46475924  1
  O2-  O422  1  0.84558020  0.17795768  0.81928170  1
  O2-  O423  1  0.81127448  0.39801734  0.18740566  1
  O2-  O424  1  0.83443259  0.41067522  0.47917870  1
  O2-  O425  1  0.81804210  0.41584182  0.80846334  1
  O2-  O426  1  0.83743600  0.67221279  0.14944542  1
  O2-  O427  1  0.81057646  0.64059545  0.47351344  1
  O2-  O428  1  0.83166297  0.66020827  0.81182778  1
  O2-  O429  1  0.81700298  0.89121898  0.13289764  1
  O2-  O430  1  0.83174496  0.90365969  0.50152182  1
  O2-  O431  1  0.82024231  0.91463560  0.87033829  1
  O2-  O432  1  0.14656304  0.08880073  0.12747377  1
  O2-  O433  1  0.16049980  0.07925922  0.50845664  1
  O2-  O434  1  0.16578489  0.06067570  0.87534952  1
  O2-  O435  1  0.17075590  0.34612750  0.19240121  1
  O2-  O436  1  0.17673358  0.35031956  0.51131890  1
  O2-  O437  1  0.19350050  0.36952921  0.85975407  1
  O2-  O438  1  0.16313808  0.60266224  0.18467180  1
  O2-  O439  1  0.15446788  0.58816160  0.51354500  1
  O2-  O440  1  0.18400885  0.59547117  0.80170544  1
  O2-  O441  1  0.13366065  0.77440548  0.18475760  1
  O2-  O442  1  0.15670614  0.82671229  0.51211199  1
  O2-  O443  1  0.16007324  0.82133155  0.86181455  1
  O2-  O444  1  0.45209040  0.04365159  0.22524845  1
  O2-  O445  1  0.40250510  0.07214328  0.52294752  1
  O2-  O446  1  0.43615239  0.00818063  0.88955447  1
  O2-  O447  1  0.42272926  0.34485292  0.19069254  1
  O2-  O448  1  0.41682104  0.33110719  0.51981871  1
  O2-  O449  1  0.40158470  0.32046179  0.85014327  1
  O2-  O450  1  0.41513457  0.59526230  0.19323095  1
  O2-  O451  1  0.40838392  0.58289600  0.52388595  1
  O2-  O452  1  0.42106545  0.57947543  0.85400204  1
  O2-  O453  1  0.40038345  0.84226312  0.17953062  1
  O2-  O454  1  0.41472482  0.83490553  0.51351452  1
  O2-  O455  1  0.42873263  0.86268041  0.87896471  1
  O2-  O456  1  0.70059129  0.06502889  0.18419733  1
  O2-  O457  1  0.67327177  0.08361100  0.45908858  1
  O2-  O458  1  0.68291549  0.08720911  0.86193340  1
  O2-  O459  1  0.72416011  0.35641379  0.19316247  1
  O2-  O460  1  0.69249408  0.33525423  0.53083789  1
  O2-  O461  1  0.64888530  0.33237795  0.85836788  1
  O2-  O462  1  0.68245693  0.60091248  0.18771751  1
  O2-  O463  1  0.65541046  0.59038071  0.52328686  1
  O2-  O464  1  0.66306230  0.58311687  0.84440921  1
  O2-  O465  1  0.65549399  0.80761959  0.11722169  1
  O2-  O466  1  0.65521483  0.82532025  0.51121228  1
  O2-  O467  1  0.65107452  0.83133196  0.84710962  1
  O2-  O468  1  0.87968518  0.03464544  0.20840594  1
  O2-  O469  1  0.91341355  0.10855872  0.51379677  1
  O2-  O470  1  0.90997057  0.08728955  0.86052449  1
  O2-  O471  1  0.93472177  0.33866796  0.18823468  1
  O2-  O472  1  0.92161642  0.33369727  0.52059075  1
  O2-  O473  1  0.97018028  0.36442992  0.87804221  1
  O2-  O474  1  0.92344348  0.58861209  0.18989205  1
  O2-  O475  1  0.91339676  0.57629757  0.51991944  1
  O2-  O476  1  0.91352872  0.57578267  0.85796660  1
  O2-  O477  1  0.93551216  0.83632972  0.19797178  1
  O2-  O478  1  0.91101857  0.81657285  0.49919461  1
  O2-  O479  1  0.90681815  0.81686778  0.86913706  1
  O2-  O480  1  0.14637175  0.08864785  0.35661489  1
  O2-  O481  1  0.20502117  0.02963006  0.61082361  1
  O2-  O482  1  0.18106108  0.09509228  0.99974430  1
  O2-  O483  1  0.13440765  0.31272628  0.30943776  1
  O2-  O484  1  0.19558645  0.37120914  0.63748734  1
  O2-  O485  1  0.17892220  0.35353650  0.97389458  1
  O2-  O486  1  0.16131427  0.58467406  0.30940854  1
  O2-  O487  1  0.17213348  0.55154570  0.64732180  1
  O2-  O488  1  0.17699404  0.57055497  1.00735448  1
  O2-  O489  1  0.15816788  0.83060344  0.30286764  1
  O2-  O490  1  0.15775873  0.80961786  0.63404970  1
  O2-  O491  1  0.16769272  0.83280254  0.98816783  1
  O2-  O492  1  0.42419109  0.09066116  0.35423475  1
  O2-  O493  1  0.41373710  0.07847530  0.64711309  1
  O2-  O494  1  0.41183748  0.08249835  0.98760579  1
  O2-  O495  1  0.41572814  0.32198054  0.30674933  1
  O2-  O496  1  0.42763225  0.34200648  0.64381002  1
  O2-  O497  1  0.43300925  0.36672880  0.98751965  1
  O2-  O498  1  0.41478435  0.58691195  0.31317082  1
  O2-  O499  1  0.42031750  0.58614367  0.64906343  1
  O2-  O500  1  0.41915024  0.58281916  0.98294284  1
  O2-  O501  1  0.41034430  0.82797705  0.30495476  1
  O2-  O502  1  0.44785499  0.89535573  0.62286459  1
  O2-  O503  1  0.44867642  0.78498259  0.96431901  1
  O2-  O504  1  0.67380048  0.08763058  0.30224631  1
  O2-  O505  1  0.66157704  0.07934288  0.69749539  1
  O2-  O506  1  0.65705572  0.06324047  0.98459434  1
  O2-  O507  1  0.67780367  0.34145620  0.31276403  1
  O2-  O508  1  0.66364114  0.31931523  0.65421437  1
  O2-  O509  1  0.66402319  0.34247527  0.97194295  1
  O2-  O510  1  0.70470595  0.64050606  0.31200617  1
  O2-  O511  1  0.66950120  0.58040582  0.65003118  1
  O2-  O512  1  0.64931789  0.57993550  0.96157155  1
  O2-  O513  1  0.66949459  0.84337954  0.34284351  1
  O2-  O514  1  0.67182401  0.83198198  0.62948573  1
  O2-  O515  1  0.67936498  0.84544164  0.96978133  1
  O2-  O516  1  0.89940816  0.06050715  0.32435886  1
  O2-  O517  1  0.88500630  0.09998443  0.62380761  1
  O2-  O518  1  0.93153604  0.09916340  0.98453936  1
  O2-  O519  1  0.91571513  0.36037801  0.31604002  1
  O2-  O520  1  0.90023844  0.32480890  0.65096436  1
  O2-  O521  1  0.96911229  0.34324186  1.02732664  1
  O2-  O522  1  0.91121159  0.59703318  0.30682294  1
  O2-  O523  1  0.90856209  0.57048921  0.64457375  1
  O2-  O524  1  0.92119457  0.58002621  0.98400346  1
  O2-  O525  1  0.90088803  0.82263421  0.32828755  1
  O2-  O526  1  0.91134853  0.80785098  0.62089290  1
  O2-  O527  1  0.92751137  0.83314418  0.98891865  1
  O2-  O528  1  0.10229241  0.19061343  0.00735946  1
  O2-  O529  1  0.06533930  0.16738930  0.34870569  1
  O2-  O530  1  0.06238490  0.21515319  0.63891898  1
  O2-  O531  1  0.02666194  0.37005083  -0.01713414  1
  O2-  O532  1  0.07605547  0.41925443  0.34871580  1
  O2-  O533  1  0.06904396  0.39098749  0.70134955  1
  O2-  O534  1  0.09702991  0.65495170  -0.00327956  1
  O2-  O535  1  0.07597588  0.66978231  0.34930763  1
  O2-  O536  1  0.07567417  0.65622015  0.68190739  1
  O2-  O537  1  0.08774391  0.90848741  0.03033975  1
  O2-  O538  1  0.07573141  0.91233981  0.34773010  1
  O2-  O539  1  0.08164890  0.89139478  0.66510060  1
  O2-  O540  1  0.34588092  0.18867473  -0.03502373  1
  O2-  O541  1  0.31931762  0.16233950  0.35948959  1
  O2-  O542  1  0.33713203  0.17414789  0.67448258  1
  O2-  O543  1  0.33292855  0.42478281  0.03016534  1
  O2-  O544  1  0.35502623  0.42953076  0.34944176  1
  O2-  O545  1  0.35088248  0.42626262  0.69469980  1
  O2-  O546  1  0.33687683  0.66405675  0.02634973  1
  O2-  O547  1  0.32706966  0.66372405  0.35326607  1
  O2-  O548  1  0.32874946  0.65004209  0.71073320  1
  O2-  O549  1  0.31786949  0.93275236  0.03363397  1
  O2-  O550  1  0.32754782  0.90473916  0.34652315  1
  O2-  O551  1  0.31831037  0.91013003  0.68690635  1
  O2-  O552  1  0.59598055  0.16239382  0.02795594  1
  O2-  O553  1  0.58856762  0.18011857  0.34196319  1
  O2-  O554  1  0.57717486  0.15678584  0.69015182  1
  O2-  O555  1  0.59925635  0.43360566  0.02973798  1
  O2-  O556  1  0.63577444  0.45652281  0.36256458  1
  O2-  O557  1  0.59002697  0.41337999  0.68740684  1
  O2-  O558  1  0.58911782  0.68098054  0.01301997  1
  O2-  O559  1  0.57617840  0.67093799  0.36128575  1
  O2-  O560  1  0.58757086  0.66959433  0.68391026  1
  O2-  O561  1  0.58009732  0.90371853  0.02092025  1
  O2-  O562  1  0.57433685  0.92409800  0.34470956  1
  O2-  O563  1  0.56464687  0.88066366  0.68643845  1
  O2-  O564  1  0.80844464  0.13396459  0.03497277  1
  O2-  O565  1  0.84058177  0.17804646  0.32413964  1
  O2-  O566  1  0.81736678  0.16516710  0.68527154  1
  O2-  O567  1  0.83376303  0.41233415  0.01994800  1
  O2-  O568  1  0.82175479  0.41240451  0.36756007  1
  O2-  O569  1  0.82701155  0.40740456  0.69235546  1
  O2-  O570  1  0.84587197  0.66691774  0.03385443  1
  O2-  O571  1  0.76322103  0.63573324  0.34416704  1
  O2-  O572  1  0.83489923  0.66202624  0.68693731  1
  O2-  O573  1  0.85031057  0.93105167  0.01231798  1
  O2-  O574  1  0.82522310  0.91348145  0.37435666  1
  O2-  O575  1  0.84063345  0.92243015  0.63814164  1
