# generated using pymatgen
data_H2O
_symmetry_space_group_name_H-M   'P 1'
_cell_length_a   17.99301035
_cell_length_b   17.99208755
_cell_length_c   22.01526815
_cell_angle_alpha   90.03012513
_cell_angle_beta   89.99595021
_cell_angle_gamma   119.97281051
_symmetry_Int_Tables_number   1
_chemical_formula_structural   H2O
_chemical_formula_sum   'H384 O192'
_cell_volume   6173.88945076
_cell_formula_units_Z   192
loop_
 _symmetry_equiv_pos_site_id
 _symmetry_equiv_pos_as_xyz
  1  'x, y, z'
loop_
 _atom_type_symbol
 _atom_type_oxidation_number
  H+  1.0
  O2-  -2.0
loop_
 _atom_site_type_symbol
 _atom_site_label
 _atom_site_symmetry_multiplicity
 _atom_site_fract_x
 _atom_site_fract_y
 _atom_site_fract_z
 _atom_site_occupancy
  H+  H0  1  0.46692036  0.11216610  0.16427087  1
  H+  H1  1  0.64658678  0.25434719  0.31435964  1
  H+  H2  1  0.16456486  0.04486404  0.32541636  1
  H+  H3  1  0.18352601  0.34081198  0.63394846  1
  H+  H4  1  0.08966531  0.06480155  0.48234138  1
  H+  H5  1  0.61967266  0.59559749  0.32756478  1
  H+  H6  1  0.46527083  0.36291691  0.99144173  1
  H+  H7  1  0.78131583  0.38841442  0.67426979  1
  H+  H8  1  0.11557633  0.38962483  -0.00234532  1
  H+  H9  1  0.44453539  0.08843909  0.65024968  1
  H+  H10  1  0.27519450  0.13725679  0.49629046  1
  H+  H11  1  0.58958753  0.66817711  -0.05672479  1
  H+  H12  1  0.47607176  0.60792706  0.50125452  1
  H+  H13  1  0.08586985  0.42750439  0.37941588  1
  H+  H14  1  0.13233663  0.10629905  0.00569992  1
  H+  H15  1  0.10728043  0.22448275  0.16051160  1
  H+  H16  1  0.72340872  0.61587316  0.67471077  1
  H+  H17  1  0.26539008  0.66227289  0.33245155  1
  H+  H18  1  0.59624297  0.95603311  0.66299790  1
  H+  H19  1  0.61833524  0.72393304  0.34847146  1
  H+  H20  1  0.37196081  0.65333149  0.14981316  1
  H+  H21  1  0.86951330  0.38883128  0.67672707  1
  H+  H22  1  0.02230133  0.87874743  0.83285130  1
  H+  H23  1  0.50821272  0.37586907  0.14609265  1
  H+  H24  1  0.11149279  0.96633841  0.67650108  1
  H+  H25  1  0.90897430  0.07452715  0.93254132  1
  H+  H26  1  0.85872315  0.03069067  0.66997446  1
  H+  H27  1  0.60850257  0.13504928  0.00225631  1
  H+  H28  1  0.38288336  0.83609092  0.83589624  1
  H+  H29  1  0.91050858  0.13273806  0.50001467  1
  H+  H30  1  0.10094178  0.13768583  0.83329747  1
  H+  H31  1  0.81325094  0.14686946  0.47844833  1
  H+  H32  1  0.10855073  0.21568918  1.00395357  1
  H+  H33  1  0.60908209  0.38494563  0.67204023  1
  H+  H34  1  0.88723571  0.60151664  0.84350706  1
  H+  H35  1  0.87340600  0.98904876  0.34915869  1
  H+  H36  1  0.72955918  0.13557834  0.33217363  1
  H+  H37  1  0.87330853  0.64103368  0.34665430  1
  H+  H38  1  0.11395713  0.63338818  0.83234417  1
  H+  H39  1  0.64156840  0.17159060  0.73713039  1
  H+  H40  1  0.13103599  0.27838957  0.49073484  1
  H+  H41  1  0.98815548  0.37158918  0.66126993  1
  H+  H42  1  0.72022159  0.06501117  0.63373960  1
  H+  H43  1  0.81106702  0.97957218  0.00645422  1
  H+  H44  1  0.40864534  0.32332227  0.89430673  1
  H+  H45  1  0.37538864  0.36174289  0.98946943  1
  H+  H46  1  0.11839264  0.64187229  0.32972712  1
  H+  H47  1  -0.01104663  0.63879737  0.65902160  1
  H+  H48  1  0.61100583  0.47043606  0.00718728  1
  H+  H49  1  -0.01135195  0.62217341  0.32377593  1
  H+  H50  1  0.61476335  0.38031920  0.82941879  1
  H+  H51  1  0.12954087  0.02539154  0.83115138  1
  H+  H52  1  0.13521554  0.52666569  0.84960749  1
  H+  H53  1  0.47720354  0.61601683  0.65660122  1
  H+  H54  1  0.38341340  0.52061507  0.49938130  1
  H+  H55  1  0.02246086  0.39481998  0.82720977  1
  H+  H56  1  0.76304715  0.88614925  0.67208240  1
  H+  H57  1  0.92865348  0.59611591  0.56703793  1
  H+  H58  1  1.02035617  0.37749728  0.14842832  1
  H+  H59  1  0.55582167  0.88825109  0.00146597  1
  H+  H60  1  0.87545923  0.35236427  0.51264651  1
  H+  H61  1  0.37909775  1.02503825  0.83879394  1
  H+  H62  1  0.39014007  0.27564383  0.30047833  1
  H+  H63  1  0.67777207  0.07970631  0.48582246  1
  H+  H64  1  0.36450003  0.22383717  0.15275827  1
  H+  H65  1  0.59553748  0.13605927  0.48092825  1
  H+  H66  1  0.61768506  0.86608505  0.15978061  1
  H+  H67  1  0.08028897  0.90301801  0.77333667  1
  H+  H68  1  0.11954094  0.47824172  0.67499922  1
  H+  H69  1  0.87230670  0.80846720  0.23707929  1
  H+  H70  1  0.60325582  0.62991868  0.68158526  1
  H+  H71  1  0.34343317  0.80277914  0.32823285  1
  H+  H72  1  0.26917999  0.88644105  0.49559822  1
  H+  H73  1  0.98263549  0.12598898  0.33088338  1
  H+  H74  1  0.46777082  0.10849519  -0.01257613  1
  H+  H75  1  0.36222795  0.98291573  0.15520508  1
  H+  H76  1  0.12472903  0.40032899  0.32256652  1
  H+  H77  1  0.57231599  0.42801174  0.45724848  1
  H+  H78  1  0.65555221  0.07747408  0.89797209  1
  H+  H79  1  -0.02379817  0.60168287  0.84311443  1
  H+  H80  1  0.62084303  0.61282681  0.15809930  1
  H+  H81  1  0.10743014  0.71846223  0.83471597  1
  H+  H82  1  0.65156591  0.60822321  0.98812100  1
  H+  H83  1  0.34800363  0.02563318  0.63584965  1
  H+  H84  1  0.38276925  0.52817052  0.87733704  1
  H+  H85  1  0.87212867  0.71741933  0.51684743  1
  H+  H86  1  0.13102855  0.60501226  0.50264166  1
  H+  H87  1  0.59805452  -0.02251862  0.16248705  1
  H+  H88  1  0.71638076  0.35455284  -0.00749489  1
  H+  H89  1  0.14973201  0.00052042  0.50034391  1
  H+  H90  1  0.02093999  0.88159325  0.67732988  1
  H+  H91  1  0.89136500  0.52276655  0.51302514  1
  H+  H92  1  0.22634498  0.61206022  0.16322447  1
  H+  H93  1  0.86770444  0.71196542  0.84488214  1
  H+  H94  1  0.87266790  0.13510424  0.00110742  1
  H+  H95  1  0.13954531  0.53324283  0.31254868  1
  H+  H96  1  0.58000103  0.95104608  0.49355668  1
  H+  H97  1  0.76308811  0.60319572  0.01962570  1
  H+  H98  1  0.51458219  0.14606263  0.47544998  1
  H+  H99  1  0.74347642  0.89108926  0.83570246  1
  H+  H100  1  0.37443293  0.84616868  0.66829883  1
  H+  H101  1  0.10449684  0.23409333  0.69269636  1
  H+  H102  1  0.90279296  0.53262817  0.32436911  1
  H+  H103  1  0.90091873  0.52119808  0.16571924  1
  H+  H104  1  0.87425048  0.78592169  -0.00120330  1
  H+  H105  1  0.88077458  0.24108943  0.32760161  1
  H+  H106  1  0.64084302  0.60365599  0.84848021  1
  H+  H107  1  0.60470698  0.14005400  0.15632987  1
  H+  H108  1  0.85924463  0.46863616  0.83164273  1
  H+  H109  1  0.99358089  0.37165002  0.30817928  1
  H+  H110  1  0.71292768  0.10732762  0.18133950  1
  H+  H111  1  0.86201699  0.18426942  0.05767388  1
  H+  H112  1  0.77366807  0.38246424  0.49796800  1
  H+  H113  1  0.14747510  0.82286226  0.91520058  1
  H+  H114  1  0.13008393  0.85542691  0.85143956  1
  H+  H115  1  0.63641901  0.33928933  0.31512393  1
  H+  H116  1  0.25470541  0.36336076  -0.00282336  1
  H+  H117  1  0.22519261  0.36029786  0.15803471  1
  H+  H118  1  0.10984632  0.39256267  0.83269975  1
  H+  H119  1  0.73748031  0.62500236  0.52280370  1
  H+  H120  1  0.83844410  0.72461938  0.17176139  1
  H+  H121  1  0.89777518  0.28655936  0.67020915  1
  H+  H122  1  0.63496827  0.26602931  0.83779984  1
  H+  H123  1  0.12249924  0.98857002  0.16513590  1
  H+  H124  1  0.99895386  0.92609798  0.98671415  1
  H+  H125  1  0.93650671  0.58438686  0.22208310  1
  H+  H126  1  0.61541891  0.89842231  0.34781922  1
  H+  H127  1  0.47971403  0.36720436  0.28876853  1
  H+  H128  1  0.13729464  0.60822479  0.65860060  1
  H+  H129  1  0.12252724  0.72455268  0.67757457  1
  H+  H130  1  0.77678973  0.18289601  0.70575133  1
  H+  H131  1  0.13671524  0.78270827  0.15983390  1
  H+  H132  1  0.37044916  0.38586914  0.32423715  1
  H+  H133  1  0.94560441  0.84636199  0.31956301  1
  H+  H134  1  0.37786296  0.11357895  0.49023768  1
  H+  H135  1  0.36040608  0.73572619  0.15549766  1
  H+  H136  1  0.22400468  0.11058647  0.65808023  1
  H+  H137  1  0.27302816  0.62912867  0.82111594  1
  H+  H138  1  0.62099612  0.85501396  0.50490202  1
  H+  H139  1  0.60570537  0.72228589  0.13151078  1
  H+  H140  1  0.63854317  0.51343879  0.84211656  1
  H+  H141  1  0.67763692  0.23081928  0.67866224  1
  H+  H142  1  0.13629217  0.36206446  0.16155066  1
  H+  H143  1  0.36143485  -0.01587014  0.48460160  1
  H+  H144  1  0.52246274  0.63257328  0.14402311  1
  H+  H145  1  0.41363533  0.33574830  0.21098815  1
  H+  H146  1  0.35741078  0.63572578  0.48710283  1
  H+  H147  1  0.86120626  0.92331165  0.81744522  1
  H+  H148  1  0.34290723  0.97820055  -0.00314570  1
  H+  H149  1  0.77630517  0.62724976  0.83700975  1
  H+  H150  1  0.87842663  0.80602014  0.46463117  1
  H+  H151  1  0.85432366  0.84207914  0.17338655  1
  H+  H152  1  0.86791177  1.02553860  0.83357504  1
  H+  H153  1  0.32710041  0.67358557  1.05625379  1
  H+  H154  1  0.65405035  0.53781679  0.51494648  1
  H+  H155  1  0.73559243  0.87631250  0.35050958  1
  H+  H156  1  0.26782114  0.62292508  0.65757448  1
  H+  H157  1  0.38437193  0.16126266  0.31390177  1
  H+  H158  1  0.77135687  0.38442341  0.15363619  1
  H+  H159  1  0.39434086  0.52134558  0.32134465  1
  H+  H160  1  0.85307893  0.11112668  0.16549183  1
  H+  H161  1  0.75913993  0.89827100  0.50109915  1
  H+  H162  1  0.85614388  0.73519095  0.68536190  1
  H+  H163  1  0.17783716  0.34471895  0.25130403  1
  H+  H164  1  0.09643116  0.64765838  1.03985988  1
  H+  H165  1  0.29426969  0.16258302  0.32059350  1
  H+  H166  1  0.33931149  0.63108203  -0.00397323  1
  H+  H167  1  0.86142047  0.89275892  0.35196347  1
  H+  H168  1  0.22916250  0.86234129  0.67146661  1
  H+  H169  1  0.14015308  0.36968446  0.68401165  1
  H+  H170  1  0.44616295  0.06025027  0.33368010  1
  H+  H171  1  0.45758930  0.85197050  0.50309690  1
  H+  H172  1  0.09096883  0.90635687  0.32190106  1
  H+  H173  1  0.90156606  0.36635809  0.31054677  1
  H+  H174  1  0.37208155  0.86399571  0.16431461  1
  H+  H175  1  0.60896725  0.37736657  0.00428985  1
  H+  H176  1  0.88063411  0.87534137  0.66700412  1
  H+  H177  1  0.44776620  0.97252792  0.34507189  1
  H+  H178  1  0.64477705  0.03184306  0.99454770  1
  H+  H179  1  0.60902651  0.12970189  0.82479847  1
  H+  H180  1  0.87741707  0.24225016  0.84048971  1
  H+  H181  1  0.51925396  0.87313549  0.81543984  1
  H+  H182  1  0.00697838  0.00114472  0.44397021  1
  H+  H183  1  0.11515404  0.22862342  0.39421760  1
  H+  H184  1  -0.05536543  0.11949228  0.67304920  1
  H+  H185  1  0.87845241  0.25598692  0.16314583  1
  H+  H186  1  -0.02328712  0.08867361  0.49550953  1
  H+  H187  1  0.56613912  0.65869043  0.73722049  1
  H+  H188  1  0.13953991  0.86015289  0.66463562  1
  H+  H189  1  0.36066195  0.22919535  0.82064638  1
  H+  H190  1  0.87607616  0.02499146  0.51003881  1
  H+  H191  1  0.60263018  0.22089205  0.00196847  1
  H+  H192  1  0.64706731  0.36182166  0.50375801  1
  H+  H193  1  0.45917342  0.86331267  0.17282792  1
  H+  H194  1  0.45969205  0.37350315  0.52575683  1
  H+  H195  1  0.37469833  0.96048348  0.71926744  1
  H+  H196  1  0.21838382  0.60309190  0.50328124  1
  H+  H197  1  0.61823007  0.63996788  0.50250120  1
  H+  H198  1  0.62125464  1.01617627  0.83915460  1
  H+  H199  1  0.47517141  0.35378518  0.83977272  1
  H+  H200  1  0.87990538  0.58228483  0.00134793  1
  H+  H201  1  0.37814541  0.28312364  0.66965627  1
  H+  H202  1  0.10348127  0.38548087  0.46030330  1
  H+  H203  1  0.87303001  0.82737950  0.84313421  1
  H+  H204  1  0.36049643  0.22867175  0.50217679  1
  H+  H205  1  0.15484426  0.77555281  0.31840314  1
  H+  H206  1  0.58146570  0.25606332  0.64390727  1
  H+  H207  1  0.60829261  0.72850032  0.83315519  1
  H+  H208  1  0.85424487  0.37279611  0.15221825  1
  H+  H209  1  1.02714297  0.64171892  0.13939237  1
  H+  H210  1  0.34113553  0.46218433  -0.00795965  1
  H+  H211  1  0.11781124  0.72241105  0.49358769  1
  H+  H212  1  0.77042758  0.36665623  0.33344922  1
  H+  H213  1  0.75727965  0.88082732  0.15824611  1
  H+  H214  1  0.14795927  0.28699301  0.30996920  1
  H+  H215  1  0.12173303  0.99096965  0.02417618  1
  H+  H216  1  0.65605210  0.92295451  0.02159053  1
  H+  H217  1  0.36260906  0.88762056  0.49317546  1
  H+  H218  1  0.09417912  0.14300282  0.70933285  1
  H+  H219  1  0.61331240  0.47598559  0.67762462  1
  H+  H220  1  0.80911597  0.32760409  0.37674376  1
  H+  H221  1  0.48040344  0.61131481  0.32323413  1
  H+  H222  1  0.97303886  0.10644850  0.17390126  1
  H+  H223  1  0.58532805  0.41273157  0.77113890  1
  H+  H224  1  0.21641121  0.11551697  0.82501407  1
  H+  H225  1  0.67670734  0.87793578  0.89326077  1
  H+  H226  1  0.02613751  0.38762287  -0.00212262  1
  H+  H227  1  0.15027837  0.12638669  0.32636367  1
  H+  H228  1  0.12887356  0.28144815  0.84747447  1
  H+  H229  1  0.25610379  0.87042210  0.85728158  1
  H+  H230  1  0.88572333  0.24180120  0.49915283  1
  H+  H231  1  0.88254155  0.36297128  0.83797040  1
  H+  H232  1  0.34825937  0.38435301  0.48973861  1
  H+  H233  1  0.25411254  0.84395379  0.30381260  1
  H+  H234  1  0.61237200  0.72563159  0.49639254  1
  H+  H235  1  0.11926111  0.89422650  0.16440842  1
  H+  H236  1  0.38353100  0.11686032  0.98494648  1
  H+  H237  1  0.65951714  0.32788147  0.21936151  1
  H+  H238  1  0.88342963  0.35797026  0.99063123  1
  H+  H239  1  0.45156919  0.60630908  0.98610022  1
  H+  H240  1  0.86513243  0.75776119  0.33785213  1
  H+  H241  1  0.46348932  0.84920631  0.65745281  1
  H+  H242  1  0.28105268  0.39726894  0.70954615  1
  H+  H243  1  0.26716711  0.41375186  0.84993421  1
  H+  H244  1  0.35935375  0.46657236  0.14791169  1
  H+  H245  1  0.35332887  0.14715671  0.66702132  1
  H+  H246  1  0.38141896  0.61842490  0.64924677  1
  H+  H247  1  0.66153283  0.10316915  0.65356791  1
  H+  H248  1  0.14155917  0.85634927  0.50741508  1
  H+  H249  1  0.97190335  0.10344494  0.99223692  1
  H+  H250  1  0.32516715  0.16941864  0.73179267  1
  H+  H251  1  1.02860658  0.87602247  0.47324975  1
  H+  H252  1  0.70234494  0.78051528  0.90928328  1
  H+  H253  1  0.73045309  0.12249234  0.98978677  1
  H+  H254  1  0.61765497  0.52081966  0.16229541  1
  H+  H255  1  0.10966956  0.13675240  0.16098027  1
  H+  H256  1  0.23042654  0.11970891  0.16550432  1
  H+  H257  1  0.47005358  0.52367535  0.19584445  1
  H+  H258  1  0.42038204  0.09411716  0.88961790  1
  H+  H259  1  0.28338201  0.38911130  0.32756153  1
  H+  H260  1  0.38283357  0.36036651  0.14800992  1
  H+  H261  1  0.86833670  0.62885977  0.50536600  1
  H+  H262  1  0.21446483  0.34810170  0.45811108  1
  H+  H263  1  0.10533038  0.89033044  0.02191592  1
  H+  H264  1  0.35881019  0.22791048  1.00404901  1
  H+  H265  1  0.85149771  0.96324434  0.16006701  1
  H+  H266  1  0.27259442  0.89513205  0.15229321  1
  H+  H267  1  0.62632565  0.27191678  0.15908154  1
  H+  H268  1  0.90099963  0.64188507  0.65932004  1
  H+  H269  1  0.84653294  0.14877275  0.69040523  1
  H+  H270  1  0.36066736  0.13144406  0.15729438  1
  H+  H271  1  0.52251483  0.64216529  0.84686637  1
  H+  H272  1  0.60397717  0.37810037  0.15184048  1
  H+  H273  1  0.87458446  0.13952535  0.84085471  1
  H+  H274  1  0.89414843  0.27502344  0.98563151  1
  H+  H275  1  0.96650776  0.11396505  0.84637706  1
  H+  H276  1  0.84381551  0.79416065  1.01742042  1
  H+  H277  1  0.74280838  0.62504006  0.16777728  1
  H+  H278  1  0.38726266  0.75049978  0.82415889  1
  H+  H279  1  0.34688067  0.90704026  0.88858401  1
  H+  H280  1  0.12063688  0.78114764  1.01684552  1
  H+  H281  1  0.12794873  0.53648089  0.00058935  1
  H+  H282  1  0.13305572  0.09886640  0.63869004  1
  H+  H283  1  0.36928605  0.40127693  0.70453267  1
  H+  H284  1  0.63172972  0.26542307  0.49995974  1
  H+  H285  1  0.60491711  0.46460560  0.32247839  1
  H+  H286  1  0.62247617  0.85019994  0.65655159  1
  H+  H287  1  0.34953296  0.71999543  0.49390067  1
  H+  H288  1  0.13954572  0.52254617  0.16559709  1
  H+  H289  1  0.35791558  0.13861410  0.81785667  1
  H+  H290  1  0.85291065  0.68714858  0.02426252  1
  H+  H291  1  0.48907345  0.16473559  0.29010118  1
  H+  H292  1  0.08608508  0.92605918  0.09678829  1
  H+  H293  1  0.65881207  0.46299465  0.42407304  1
  H+  H294  1  0.43055333  0.56788810  0.23498452  1
  H+  H295  1  0.81512642  0.64653775  0.11361398  1
  H+  H296  1  0.56156585  0.89988971  0.43235740  1
  H+  H297  1  0.22628763  0.11295232  1.00630349  1
  H+  H298  1  0.41494456  0.09264984  0.22901787  1
  H+  H299  1  0.65778321  0.83077127  0.56452834  1
  H+  H300  1  0.90725084  0.32416614  0.57364320  1
  H+  H301  1  0.52530215  0.13587435  0.80983235  1
  H+  H302  1  0.57737235  0.40709326  0.07870316  1
  H+  H303  1  0.21025058  0.86804370  1.00224724  1
  H+  H304  1  0.16739252  0.39366406  0.56082547  1
  H+  H305  1  0.32204356  0.64932100  0.75749932  1
  H+  H306  1  0.02652863  0.63670866  0.49067369  1
  H+  H307  1  0.83558812  0.41872326  0.44060558  1
  H+  H308  1  0.92947943  0.86191170  0.90265119  1
  H+  H309  1  0.15990144  0.58926180  0.90783258  1
  H+  H310  1  0.86279864  0.19472757  0.39249001  1
  H+  H311  1  0.84478475  0.66508035  0.40944282  1
  H+  H312  1  0.08949924  0.66430060  0.73647572  1
  H+  H313  1  0.54419665  0.37661188  0.36206899  1
  H+  H314  1  0.39684830  0.34074718  0.58061544  1
  H+  H315  1  0.17268273  0.90310517  0.33504451  1
  H+  H316  1  0.41194725  0.08208843  0.54487614  1
  H+  H317  1  0.31902709  0.68976466  0.39340832  1
  H+  H318  1  0.62828479  0.76496005  0.65821969  1
  H+  H319  1  0.81908892  0.92719272  0.73307952  1
  H+  H320  1  0.57884165  0.92630073  0.09907057  1
  H+  H321  1  0.33952675  0.44546750  0.79884017  1
  H+  H322  1  0.68683899  0.85131009  0.28925013  1
  H+  H323  1  0.72364944  0.35542217  0.84135573  1
  H+  H324  1  0.90931284  0.84129552  0.60998597  1
  H+  H325  1  0.10424963  0.90659754  0.42262994  1
  H+  H326  1  0.33565244  0.16788859  0.06377458  1
  H+  H327  1  0.17648611  0.83539037  0.56947988  1
  H+  H328  1  0.21233898  0.62698716  0.99829229  1
  H+  H329  1  0.17201087  0.83251901  0.22429481  1
  H+  H330  1  0.10797597  0.47432424  0.47516986  1
  H+  H331  1  0.67350118  0.56304434  0.93677441  1
  H+  H332  1  0.37295598  0.85235206  0.26645250  1
  H+  H333  1  0.88160848  0.88161423  0.50000474  1
  H+  H334  1  0.17568678  0.09601556  0.22717144  1
  H+  H335  1  0.61801747  0.80116243  0.20801041  1
  H+  H336  1  0.82542036  0.93381589  0.44379483  1
  H+  H337  1  0.08423552  0.41460993  0.09213558  1
  H+  H338  1  0.47064735  0.36843386  0.66774147  1
  H+  H339  1  0.65136196  0.08968270  0.23714639  1
  H+  H340  1  0.82236317  0.39777785  0.06042672  1
  H+  H341  1  0.91974473  0.34140652  0.89866612  1
  H+  H342  1  0.93640599  0.96219658  0.97489740  1
  H+  H343  1  0.89251341  0.12278689  0.32838754  1
  H+  H344  1  0.66721833  0.58583869  0.61404727  1
  H+  H345  1  0.55840396  0.08768529  0.35037601  1
  H+  H346  1  0.84283459  0.18051025  0.78005687  1
  H+  H347  1  0.64407173  0.06466642  0.55402368  1
  H+  H348  1  0.57664515  0.16521303  0.09331253  1
  H+  H349  1  0.07088814  0.13013877  0.39785759  1
  H+  H350  1  0.63977938  0.56902180  0.26308474  1
  H+  H351  1  0.61302510  0.98517003  0.34951221  1
  H+  H352  1  0.58421269  0.66066278  0.40467816  1
  H+  H353  1  0.16752774  0.59253522  0.25342699  1
  H+  H354  1  0.78758793  0.09749609  0.11251049  1
  H+  H355  1  0.07138697  0.16026328  0.06601027  1
  H+  H356  1  0.77914963  0.91671602  0.06174208  1
  H+  H357  1  0.57147462  0.90315524  0.72596352  1
  H+  H358  1  0.65721491  0.32886384  0.93248630  1
  H+  H359  1  0.15799627  0.57371674  0.59596572  1
  H+  H360  1  0.61348141  0.88500701  0.81476803  1
  H+  H361  1  0.91594250  0.32235730  0.21811708  1
  H+  H362  1  0.44971372  0.81775355  0.92262910  1
  H+  H363  1  0.08672933  0.42497601  0.73841986  1
  H+  H364  1  0.20172726  0.27201370  0.94993365  1
  H+  H365  1  0.09290976  0.67198908  0.39203765  1
  H+  H366  1  0.85187353  0.45510230  0.00028375  1
  H+  H367  1  0.32023680  0.88607466  0.76274080  1
  H+  H368  1  0.33820030  0.41568628  0.42283758  1
  H+  H369  1  0.32604413  0.41349534  0.08362399  1
  H+  H370  1  0.65135753  0.30927716  0.59412705  1
  H+  H371  1  0.35559165  0.71542925  0.66011782  1
  H+  H372  1  0.90844982  0.56191262  0.93740081  1
  H+  H373  1  0.83445650  0.67214976  0.74244574  1
  H+  H374  1  0.06310339  0.17629142  0.78539250  1
  H+  H375  1  0.41249544  0.77271483  0.98535418  1
  H+  H376  1  0.16764872  0.05886837  0.56026753  1
  H+  H377  1  0.42176358  0.58691160  0.58818312  1
  H+  H378  1  0.91762953  0.07825951  0.23522964  1
  H+  H379  1  0.39892369  0.82985068  0.56377073  1
  H+  H380  1  0.82894418  0.41025153  0.77102879  1
  H+  H381  1  0.15982981  0.33295724  0.90826106  1
  H+  H382  1  0.32288348  0.92232932  0.05681615  1
  H+  H383  1  0.12105448  0.35807059  0.56304795  1
  O2-  O384  1  0.07416535  0.16261905  0.14816073  1
  O2-  O385  1  0.03870581  0.06037595  0.45868724  1
  O2-  O386  1  0.06805802  0.17001370  0.82961689  1
  O2-  O387  1  0.08212745  0.41014104  0.13743200  1
  O2-  O388  1  0.07714384  0.42054906  0.45087988  1
  O2-  O389  1  0.08377610  0.42567735  0.81406173  1
  O2-  O390  1  0.08618836  0.68361714  0.12200367  1
  O2-  O391  1  0.08668531  0.66480124  0.47476760  1
  O2-  O392  1  0.08139899  0.66097533  0.81520624  1
  O2-  O393  1  0.08953139  0.92678362  0.15035038  1
  O2-  O394  1  0.09096225  0.90044622  0.46731650  1
  O2-  O395  1  0.08273943  0.90758802  0.81834922  1
  O2-  O396  1  0.33009210  0.16235555  0.14076579  1
  O2-  O397  1  0.33660316  0.17042197  0.48520615  1
  O2-  O398  1  0.32819499  0.16869694  0.80201574  1
  O2-  O399  1  0.32710114  0.40810967  0.12995448  1
  O2-  O400  1  0.32408399  0.41540803  0.46715456  1
  O2-  O401  1  0.32951834  0.45179192  0.84283101  1
  O2-  O402  1  0.33750296  0.67752988  0.13510810  1
  O2-  O403  1  0.32127918  0.66108617  0.47679045  1
  O2-  O404  1  0.33024736  0.65554029  0.80180940  1
  O2-  O405  1  0.33268994  0.92320508  0.13709517  1
  O2-  O406  1  0.32995450  0.91765461  0.47715844  1
  O2-  O407  1  0.32095688  0.90007370  0.84836423  1
  O2-  O408  1  0.57691555  0.17108564  0.13880860  1
  O2-  O409  1  0.57767673  0.17780741  0.46962565  1
  O2-  O410  1  0.58786274  0.16501348  0.80169197  1
  O2-  O411  1  0.57313074  0.40770190  0.13286939  1
  O2-  O412  1  0.63285398  0.44792181  0.46459092  1
  O2-  O413  1  0.58706387  0.41423571  0.81628393  1
  O2-  O414  1  0.57936758  0.66020186  0.12361945  1
  O2-  O415  1  0.58413022  0.66400196  0.48381723  1
  O2-  O416  1  0.57664226  0.66666250  0.82331638  1
  O2-  O417  1  0.57065724  0.91891679  0.14439201  1
  O2-  O418  1  0.55560513  0.89118581  0.47841048  1
  O2-  O419  1  0.57941454  0.91052220  0.79933177  1
  O2-  O420  1  0.81732397  0.13497669  0.14684746  1
  O2-  O421  1  0.87494009  0.18468853  0.47414999  1
  O2-  O422  1  0.84701462  0.17881816  0.82635533  1
  O2-  O423  1  0.83079112  0.40969306  0.13812047  1
  O2-  O424  1  0.83534136  0.41747765  0.48541494  1
  O2-  O425  1  0.82676301  0.40749203  0.81682172  1
  O2-  O426  1  0.80716646  0.65609776  0.15814332  1
  O2-  O427  1  0.83796263  0.66303290  0.49550370  1
  O2-  O428  1  0.83697453  0.65751180  0.82189961  1
  O2-  O429  1  0.81702789  0.90425073  0.14333258  1
  O2-  O430  1  0.82235255  0.93435641  0.48943151  1
  O2-  O431  1  0.82153942  0.94275178  0.80630421  1
  O2-  O432  1  0.16982675  0.08993689  0.18217780  1
  O2-  O433  1  0.16772103  0.05978650  0.51489013  1
  O2-  O434  1  0.15389027  0.08817752  0.83253451  1
  O2-  O435  1  0.16717675  0.33251524  0.17781430  1
  O2-  O436  1  0.15119268  0.30778030  0.45189477  1
  O2-  O437  1  0.15563136  0.34150285  0.86257302  1
  O2-  O438  1  0.16793571  0.58227998  0.18054119  1
  O2-  O439  1  0.15770273  0.57156356  0.51837512  1
  O2-  O440  1  0.16636629  0.58798978  0.86274242  1
  O2-  O441  1  0.16619106  0.84042913  0.17975646  1
  O2-  O442  1  0.17793364  0.83356239  0.52399780  1
  O2-  O443  1  0.15673266  0.82335931  0.87014111  1
  O2-  O444  1  0.40764433  0.08197977  0.18072964  1
  O2-  O445  1  0.40648587  0.07760968  0.50028616  1
  O2-  O446  1  0.41562099  0.08762278  0.84411602  1
  O2-  O447  1  0.41709074  0.33406677  0.16437595  1
  O2-  O448  1  0.39864372  0.33975136  0.53453051  1
  O2-  O449  1  0.41331464  0.32035706  0.84964214  1
  O2-  O450  1  0.43880590  0.55451730  0.19005989  1
  O2-  O451  1  0.41564217  0.57986857  0.51690825  1
  O2-  O452  1  0.42874903  0.58642538  0.89976040  1
  O2-  O453  1  0.39780868  0.83163720  0.18455139  1
  O2-  O454  1  0.39698115  0.83061601  0.51843882  1
  O2-  O455  1  0.42110563  0.81219331  0.84012790  1
  O2-  O456  1  0.65189016  0.08440224  0.19215815  1
  O2-  O457  1  0.62622670  0.05943794  0.51030875  1
  O2-  O458  1  0.64702450  0.07606576  0.85333553  1
  O2-  O459  1  0.65572884  0.33335084  0.17467329  1
  O2-  O460  1  0.66783302  0.32472985  0.52056243  1
  O2-  O461  1  0.66233644  0.32506544  0.85563054  1
  O2-  O462  1  0.64450685  0.57877059  0.18037196  1
  O2-  O463  1  0.67528900  0.59405367  0.53481320  1
  O2-  O464  1  0.67096973  0.57280436  0.86067792  1
  O2-  O465  1  0.64544752  0.82999754  0.17031342  1
  O2-  O466  1  0.66022125  0.83353605  0.51887222  1
  O2-  O467  1  0.68051874  0.84875779  0.85704166  1
  O2-  O468  1  0.91257808  0.07314906  0.19017761  1
  O2-  O469  1  0.92647856  0.08779037  0.51719022  1
  O2-  O470  1  0.90353428  0.08593954  0.85727330  1
  O2-  O471  1  0.90882585  0.31769721  0.17285503  1
  O2-  O472  1  0.88878270  0.30947310  0.53022005  1
  O2-  O473  1  0.91805349  0.33708662  0.85295265  1
  O2-  O474  1  0.93806128  0.58192979  0.17744420  1
  O2-  O475  1  0.92318612  0.58561907  0.52133860  1
  O2-  O476  1  0.91568536  0.56936720  0.85821154  1
  O2-  O477  1  0.87603386  0.80553709  0.19223233  1
  O2-  O478  1  0.91362481  0.84968135  0.49468507  1
  O2-  O479  1  0.91825833  0.82439855  0.86539596  1
  O2-  O480  1  0.18042686  0.10026447  0.30586896  1
  O2-  O481  1  0.16612814  0.06933148  0.63884146  1
  O2-  O482  1  0.16357407  0.07432262  0.99876377  1
  O2-  O483  1  0.18045761  0.34702294  0.29740489  1
  O2-  O484  1  0.17071302  0.33517191  0.67732390  1
  O2-  O485  1  0.17672203  0.30165754  0.97186677  1
  O2-  O486  1  0.16534065  0.59422778  0.29949228  1
  O2-  O487  1  0.16541402  0.57664698  0.64143258  1
  O2-  O488  1  0.14966778  0.59676918  0.98826209  1
  O2-  O489  1  0.19348011  0.83424957  0.30109098  1
  O2-  O490  1  0.17487203  0.83552871  0.64845886  1
  O2-  O491  1  0.14565427  0.83550122  0.99308881  1
  O2-  O492  1  0.43031457  0.11693402  0.29168483  1
  O2-  O493  1  0.39519111  0.08367604  0.62830780  1
  O2-  O494  1  0.41057652  0.08456075  0.96739344  1
  O2-  O495  1  0.41765817  0.34020894  0.28096929  1
  O2-  O496  1  0.40942528  0.34386952  0.65540824  1
  O2-  O497  1  0.40608439  0.33020659  0.97619061  1
  O2-  O498  1  0.42408779  0.57943472  0.30257051  1
  O2-  O499  1  0.41955046  0.59145374  0.63473146  1
  O2-  O500  1  0.39777169  0.57505330  0.96332492  1
  O2-  O501  1  0.35296654  0.85709662  0.30737178  1
  O2-  O502  1  0.40185262  0.82105358  0.64318632  1
  O2-  O503  1  0.46278008  0.82211150  0.96644286  1
  O2-  O504  1  0.66957495  0.09830904  0.31735428  1
  O2-  O505  1  0.66274410  0.05694070  0.62805744  1
  O2-  O506  1  0.66956981  0.09145863  0.97742842  1
  O2-  O507  1  0.67165044  0.31451483  0.30001664  1
  O2-  O508  1  0.64116894  0.30119115  0.63969431  1
  O2-  O509  1  0.65489919  0.32960945  0.97820844  1
  O2-  O510  1  0.63816410  0.55801064  0.30716536  1
  O2-  O511  1  0.66271191  0.58274572  0.65927699  1
  O2-  O512  1  0.66905264  0.56368450  0.98252875  1
  O2-  O513  1  0.67646684  0.84297360  0.33280656  1
  O2-  O514  1  0.65704217  0.82415745  0.64137347  1
  O2-  O515  1  0.71253439  0.73748279  0.93045449  1
  O2-  O516  1  0.92221454  0.08976215  0.31759355  1
  O2-  O517  1  0.88389778  0.09308812  0.66091466  1
  O2-  O518  1  0.90999326  0.07163616  0.97809923  1
  O2-  O519  1  0.93100644  0.33648690  0.29446209  1
  O2-  O520  1  0.92690606  0.34188220  0.64752562  1
  O2-  O521  1  0.92139390  0.33646182  0.97341030  1
  O2-  O522  1  0.92678829  0.59137208  0.30981699  1
  O2-  O523  1  0.94171201  0.63455396  0.63344151  1
  O2-  O524  1  0.90554086  0.55120810  0.98188674  1
  O2-  O525  1  0.88318470  0.81745157  0.31919238  1
  O2-  O526  1  0.91221562  0.84433002  0.65427001  1
  O2-  O527  1  0.96506737  0.93469644  0.95512636  1
  O2-  O528  1  0.07020575  0.15487056  0.02104377  1
  O2-  O529  1  0.09035833  0.17690541  0.36718517  1
  O2-  O530  1  0.06164856  0.17243648  0.70360188  1
  O2-  O531  1  0.08643306  0.41896207  0.01384727  1
  O2-  O532  1  0.08898448  0.42640845  0.33312753  1
  O2-  O533  1  0.08912683  0.41903219  0.69290948  1
  O2-  O534  1  0.07103853  0.68173140  0.05637477  1
  O2-  O535  1  0.09056596  0.67465696  0.34700912  1
  O2-  O536  1  0.09156483  0.66383895  0.69092421  1
  O2-  O537  1  0.08216995  0.92670980  0.04030284  1
  O2-  O538  1  0.14017393  0.93309568  0.34923131  1
  O2-  O539  1  0.08148757  0.90611315  0.69111660  1
  O2-  O540  1  0.33322698  0.16711194  0.01821402  1
  O2-  O541  1  0.35638621  0.19719671  0.32848949  1
  O2-  O542  1  0.32010488  0.17165099  0.68506115  1
  O2-  O543  1  0.31993328  0.40690157  0.01304177  1
  O2-  O544  1  0.34175950  0.41372151  0.34596345  1
  O2-  O545  1  0.34125429  0.43100217  0.72288734  1
  O2-  O546  1  0.32063374  0.67079215  0.01112094  1
  O2-  O547  1  0.32046349  0.70650398  0.35074607  1
  O2-  O548  1  0.33021571  0.65316787  0.67092754  1
  O2-  O549  1  0.31026855  0.91850399  0.01245180  1
  O2-  O550  1  0.47128693  1.03091151  0.36142804  1
  O2-  O551  1  0.33082390  0.89991545  0.71897439  1
  O2-  O552  1  0.57358378  0.16063969  0.01725756  1
  O2-  O553  1  0.62356448  0.14134616  0.34073852  1
  O2-  O554  1  0.67821804  0.18261877  0.69980389  1
  O2-  O555  1  0.57900436  0.40847588  0.02267469  1
  O2-  O556  1  0.58637534  0.40042147  0.32955166  1
  O2-  O557  1  0.57993518  0.41385964  0.68982031  1
  O2-  O558  1  0.63805425  0.69471630  -0.02819270  1
  O2-  O559  1  0.58579549  0.66245988  0.35933860  1
  O2-  O560  1  0.56867463  0.65803388  0.69206012  1
  O2-  O561  1  0.60652994  0.93319730  0.02493439  1
  O2-  O562  1  0.58179167  0.92454511  0.36230819  1
  O2-  O563  1  0.56531032  0.89703799  0.67998201  1
  O2-  O564  1  0.84748859  0.17181914  0.01466982  1
  O2-  O565  1  0.84722915  0.18388916  0.34892899  1
  O2-  O566  1  0.83612073  0.19348207  0.71115431  1
  O2-  O567  1  0.81802812  0.39270097  0.01506354  1
  O2-  O568  1  0.82392567  0.38232650  0.35758900  1
  O2-  O569  1  0.83539716  0.41222635  0.69614352  1
  O2-  O570  1  0.81977729  0.62950189  0.04159417  1
  O2-  O571  1  0.84398843  0.67028112  0.36490106  1
  O2-  O572  1  0.82868287  0.67397432  0.69743392  1
  O2-  O573  1  0.75906713  0.93103565  0.02426513  1
  O2-  O574  1  0.84188197  0.93139735  0.36960900  1
  O2-  O575  1  0.82292250  0.92209150  0.68714699  1
