# generated using pymatgen
data_H2O
_symmetry_space_group_name_H-M   'P 1'
_cell_length_a   17.98706115
_cell_length_b   17.98186982
_cell_length_c   22.00327732
_cell_angle_alpha   90.00471654
_cell_angle_beta   89.99549243
_cell_angle_gamma   119.99037272
_symmetry_Int_Tables_number   1
_chemical_formula_structural   H2O
_chemical_formula_sum   'H384 O192'
_cell_volume   6163.89434391
_cell_formula_units_Z   192
loop_
 _symmetry_equiv_pos_site_id
 _symmetry_equiv_pos_as_xyz
  1  'x, y, z'
loop_
 _atom_type_symbol
 _atom_type_oxidation_number
  H+  1.0
  O2-  -2.0
loop_
 _atom_site_type_symbol
 _atom_site_label
 _atom_site_symmetry_multiplicity
 _atom_site_fract_x
 _atom_site_fract_y
 _atom_site_fract_z
 _atom_site_occupancy
  H+  H0  1  0.87061376  0.14387300  0.82914700  1
  H+  H1  1  0.86608766  0.23087336  0.66935592  1
  H+  H2  1  0.76212686  0.61243297  1.00414459  1
  H+  H3  1  0.89764310  0.03388567  0.99643106  1
  H+  H4  1  0.39558510  0.38205654  0.17464063  1
  H+  H5  1  0.13707145  0.77460482  0.50527366  1
  H+  H6  1  0.79740296  0.63651886  0.49866551  1
  H+  H7  1  0.86300369  0.72427295  0.67006379  1
  H+  H8  1  0.11635157  0.64800910  0.01218197  1
  H+  H9  1  0.52832004  0.37697364  0.67989959  1
  H+  H10  1  0.36747041  0.76538751  0.33770944  1
  H+  H11  1  0.39343395  0.37417305  -0.00800459  1
  H+  H12  1  0.08625586  0.38621516  0.48727518  1
  H+  H13  1  0.40456144  0.81353233  0.22984365  1
  H+  H14  1  0.10525332  0.87162411  0.68468211  1
  H+  H15  1  0.12811586  0.27535845  0.99764994  1
  H+  H16  1  0.61480533  0.89967643  0.82158272  1
  H+  H17  1  0.49586882  0.37561496  0.50670689  1
  H+  H18  1  0.52653064  0.39294256  0.16358586  1
  H+  H19  1  0.88785467  0.35816345  0.99018210  1
  H+  H20  1  0.64435969  0.11076497  0.64795804  1
  H+  H21  1  0.61635318  0.23240306  0.49443414  1
  H+  H22  1  0.80879918  0.15699887  0.15891590  1
  H+  H23  1  -0.03402896  0.57520460  0.35296738  1
  H+  H24  1  0.34168569  0.17287387  0.58615133  1
  H+  H25  1  0.27791944  0.87775113  1.00205583  1
  H+  H26  1  0.59403516  0.85418183  0.13620200  1
  H+  H27  1  0.62346056  0.39400920  0.49216170  1
  H+  H28  1  0.31175153  0.41460116  0.49761352  1
  H+  H29  1  0.36512572  0.86337177  0.33218357  1
  H+  H30  1  0.47530443  0.36088887  0.84185115  1
  H+  H31  1  0.26980509  0.88624453  0.82633164  1
  H+  H32  1  0.11084013  0.73545634  0.84177778  1
  H+  H33  1  0.40100125  0.62887450  0.52447398  1
  H+  H34  1  0.16335063  0.57148368  0.56754227  1
  H+  H35  1  0.86793477  0.98288404  0.67682501  1
  H+  H36  1  0.98778198  0.37894976  0.83705369  1
  H+  H37  1  0.38934225  0.27689954  0.64758539  1
  H+  H38  1  0.11631815  0.64097809  0.84759567  1
  H+  H39  1  0.27295738  0.64145814  0.34321940  1
  H+  H40  1  0.60185667  0.64159299  0.48298644  1
  H+  H41  1  0.13256924  0.11276786  0.84974876  1
  H+  H42  1  0.88519514  0.27886728  0.50031302  1
  H+  H43  1  0.61484985  0.38162033  0.83634242  1
  H+  H44  1  0.58182492  0.59960885  0.68003828  1
  H+  H45  1  0.96509721  0.37415205  0.49971376  1
  H+  H46  1  0.87125355  0.14112721  0.49427879  1
  H+  H47  1  0.47395813  0.60630129  0.17140006  1
  H+  H48  1  -0.01968940  0.11838335  0.84510830  1
  H+  H49  1  0.27614405  0.14227172  0.64009049  1
  H+  H50  1  0.36663783  0.72912796  0.49571375  1
  H+  H51  1  0.37797087  0.06388960  0.17779695  1
  H+  H52  1  0.44125185  0.58379088  0.97508504  1
  H+  H53  1  0.63201524  0.53147538  0.32823705  1
  H+  H54  1  0.52500601  0.13282556  0.65009044  1
  H+  H55  1  0.63094238  0.87888467  0.35674657  1
  H+  H56  1  0.64917494  0.28094163  0.64295641  1
  H+  H57  1  0.85808456  0.88955773  0.99907095  1
  H+  H58  1  0.36339580  -0.02268133  0.49125143  1
  H+  H59  1  0.46038602  0.86785783  0.33022608  1
  H+  H60  1  0.93218649  0.09660538  0.93872801  1
  H+  H61  1  0.62065843  0.40377603  0.34384603  1
  H+  H62  1  0.98252170  0.10567662  0.16059764  1
  H+  H63  1  0.63382973  0.50959016  0.84595747  1
  H+  H64  1  0.35559960  0.22138732  0.83946909  1
  H+  H65  1  0.34552733  0.63623346  0.82891917  1
  H+  H66  1  0.15006361  0.51807611  0.32544148  1
  H+  H67  1  0.48011573  0.85644021  -0.01008998  1
  H+  H68  1  0.78443048  0.14435650  0.48935080  1
  H+  H69  1  0.30824965  0.75160322  0.63634736  1
  H+  H70  1  0.21987676  0.62806563  0.85148574  1
  H+  H71  1  0.87111242  0.39119350  0.82982543  1
  H+  H72  1  0.38074986  0.75314812  -0.00860311  1
  H+  H73  1  0.50793741  0.16035862  0.16213022  1
  H+  H74  1  0.34457867  0.93410435  0.15729349  1
  H+  H75  1  0.89074206  0.02083604  0.16286939  1
  H+  H76  1  0.22587979  0.86305056  0.65686882  1
  H+  H77  1  0.37676860  0.23615863  0.49819609  1
  H+  H78  1  0.10923431  0.97431039  0.83556874  1
  H+  H79  1  0.14262857  0.76932793  0.65926760  1
  H+  H80  1  0.78037968  0.88569349  0.49902893  1
  H+  H81  1  0.90904062  1.07513936  0.26354591  1
  H+  H82  1  0.90090565  0.52835954  0.49300382  1
  H+  H83  1  0.90945384  0.62045513  0.49497385  1
  H+  H84  1  0.86090279  0.63798551  0.83530493  1
  H+  H85  1  0.11630458  0.39622109  -0.00018365  1
  H+  H86  1  0.04028672  0.38854210  0.33289904  1
  H+  H87  1  0.13642685  0.52413265  0.17144281  1
  H+  H88  1  0.90578541  0.38904478  0.32764013  1
  H+  H89  1  0.62487055  0.89370957  0.67656409  1
  H+  H90  1  0.87947279  0.01810095  0.51299572  1
  H+  H91  1  0.13861446  0.03657341  0.32627125  1
  H+  H92  1  0.62987877  0.79095972  0.83156019  1
  H+  H93  1  0.82766252  0.65336255  0.09881812  1
  H+  H94  1  0.22913684  0.12219378  0.32670653  1
  H+  H95  1  0.61825345  0.65504720  0.33755208  1
  H+  H96  1  0.22661679  0.11062186  0.49943714  1
  H+  H97  1  0.38316964  0.15337811  0.17802120  1
  H+  H98  1  0.03670348  0.63833219  0.68439257  1
  H+  H99  1  0.98362171  0.86687180  0.50657012  1
  H+  H100  1  0.41055687  0.06421579  0.93142797  1
  H+  H101  1  0.35402538  0.88121606  0.66981007  1
  H+  H102  1  0.77312585  0.62860574  0.16096342  1
  H+  H103  1  0.93006440  0.34782724  0.23580597  1
  H+  H104  1  0.11722923  0.22304492  0.68328687  1
  H+  H105  1  0.62408226  0.24686065  0.34142539  1
  H+  H106  1  0.83342016  0.42423592  0.42208059  1
  H+  H107  1  0.13113080  0.86476656  0.84377875  1
  H+  H108  1  0.72430393  0.61351554  0.32660695  1
  H+  H109  1  0.66419534  0.82099664  0.19919354  1
  H+  H110  1  0.48079090  0.11321574  0.49994512  1
  H+  H111  1  0.77956529  0.89340898  0.68070083  1
  H+  H112  1  0.03220788  0.13941426  0.03661184  1
  H+  H113  1  0.89441644  0.86621226  0.50602848  1
  H+  H114  1  0.48468971  0.63324322  0.32246787  1
  H+  H115  1  0.12898602  -0.01592636  0.48706518  1
  H+  H116  1  0.61998548  1.02644369  -0.00961939  1
  H+  H117  1  0.88909895  0.77158265  0.17070609  1
  H+  H118  1  0.07043406  0.14939265  0.42925859  1
  H+  H119  1  0.34166770  0.46761385  0.99291324  1
  H+  H120  1  0.15867561  0.31725187  0.21550483  1
  H+  H121  1  0.64116712  0.28425953  0.17790519  1
  H+  H122  1  0.41197321  0.54669311  0.52923648  1
  H+  H123  1  0.35955895  0.97797331  0.34128631  1
  H+  H124  1  0.35652395  0.63176185  -0.00691517  1
  H+  H125  1  0.13625987  0.11247857  0.16611729  1
  H+  H126  1  0.34759853  0.47171261  0.84779978  1
  H+  H127  1  0.86705985  0.88439823  0.15355899  1
  H+  H128  1  0.12817589  0.85723577  0.17522876  1
  H+  H129  1  0.77765993  0.63623793  0.68345578  1
  H+  H130  1  0.38786651  0.11877506  0.33715436  1
  H+  H131  1  0.89043324  0.03063145  0.84768144  1
  H+  H132  1  0.11407198  0.22532691  0.13313242  1
  H+  H133  1  0.39034708  0.29237100  0.17724789  1
  H+  H134  1  0.21674815  0.36262627  0.83617586  1
  H+  H135  1  0.89280044  0.14530378  0.00629994  1
  H+  H136  1  0.39641586  0.40876006  0.50355243  1
  H+  H137  1  0.83768419  0.17333549  0.73057907  1
  H+  H138  1  0.60149517  0.23312624  0.00455372  1
  H+  H139  1  0.24453131  0.37814247  0.68751407  1
  H+  H140  1  0.86754941  0.70641266  0.33629982  1
  H+  H141  1  0.41527499  0.58574852  0.23103079  1
  H+  H142  1  0.88230963  0.51190107  0.16689822  1
  H+  H143  1  0.14132433  0.78246374  0.99827336  1
  H+  H144  1  0.58819310  0.98485772  0.33578309  1
  H+  H145  1  0.21279324  0.85089109  0.32987893  1
  H+  H146  1  0.86825483  0.47072495  0.00647853  1
  H+  H147  1  0.02837501  0.39629824  -0.00027237  1
  H+  H148  1  0.10751710  0.61775895  0.33773533  1
  H+  H149  1  0.69652852  0.16875456  0.18371488  1
  H+  H150  1  0.64499880  0.12189728  0.50133407  1
  H+  H151  1  0.37406029  0.74847463  0.17191983  1
  H+  H152  1  0.15396383  0.13009063  1.00720938  1
  H+  H153  1  0.57710286  0.59552461  -0.00273960  1
  H+  H154  1  0.78448206  0.14891922  0.82831752  1
  H+  H155  1  0.52159894  0.65107801  0.49954500  1
  H+  H156  1  0.73634206  0.11587077  0.65684192  1
  H+  H157  1  0.38193554  0.84979829  0.99045080  1
  H+  H158  1  0.37617261  0.77037005  0.82710682  1
  H+  H159  1  0.39305895  0.62708629  0.32543060  1
  H+  H160  1  0.77660196  0.89770014  0.82609861  1
  H+  H161  1  0.77477500  0.89701912  0.36153067  1
  H+  H162  1  0.01519170  0.63498738  0.84032351  1
  H+  H163  1  0.72871655  0.36870375  0.49531486  1
  H+  H164  1  0.56811405  0.12268467  0.15549991  1
  H+  H165  1  0.89450001  0.29367974  0.32934207  1
  H+  H166  1  0.72447723  0.60378332  0.84741612  1
  H+  H167  1  0.96910577  0.10074906  0.50777795  1
  H+  H168  1  0.10711223  0.48359637  0.48948429  1
  H+  H169  1  0.63244648  0.99043121  0.48440152  1
  H+  H170  1  0.78239163  0.39227006  0.83312087  1
  H+  H171  1  0.27325733  0.64280615  1.00484090  1
  H+  H172  1  0.84421697  0.70395414  0.00174540  1
  H+  H173  1  0.11263638  0.38240268  0.64589280  1
  H+  H174  1  0.41493639  0.82617722  0.88628317  1
  H+  H175  1  0.14435091  0.61871951  0.51256819  1
  H+  H176  1  0.21882368  0.35849404  0.98870918  1
  H+  H177  1  0.62615486  0.11723893  0.99132064  1
  H+  H178  1  0.74115268  0.89660441  -0.01310841  1
  H+  H179  1  0.87714720  0.73156888  0.49059507  1
  H+  H180  1  0.92155566  0.57920598  0.90168008  1
  H+  H181  1  0.47094405  0.10382892  0.85528672  1
  H+  H182  1  0.33935472  0.19186515  0.10217841  1
  H+  H183  1  0.94220317  0.82937345  0.99487464  1
  H+  H184  1  0.39059624  0.11058965  0.64352423  1
  H+  H185  1  0.03523529  0.63778749  0.49255176  1
  H+  H186  1  0.35829911  0.88417763  0.82382658  1
  H+  H187  1  0.67095095  0.85737049  0.88774908  1
  H+  H188  1  0.87047868  0.38974299  0.16502295  1
  H+  H189  1  0.38060775  0.01260609  0.84647226  1
  H+  H190  1  0.90254706  0.28377830  0.83516888  1
  H+  H191  1  0.27358672  0.38732497  0.15072309  1
  H+  H192  1  0.38489306  0.49418511  0.34346210  1
  H+  H193  1  0.39608709  0.36712489  0.66595469  1
  H+  H194  1  0.88346706  0.85551939  0.33105426  1
  H+  H195  1  0.10797856  0.22636639  0.82609754  1
  H+  H196  1  0.68146759  0.35725060  0.27287188  1
  H+  H197  1  0.14132422  0.53583383  1.00185211  1
  H+  H198  1  0.15294871  0.33197864  0.89182630  1
  H+  H199  1  0.63001982  0.99109305  0.67181791  1
  H+  H200  1  0.85412565  0.38619759  0.48307768  1
  H+  H201  1  0.27317395  0.15594456  0.16071511  1
  H+  H202  1  0.63610382  0.79797691  0.37517120  1
  H+  H203  1  0.01722313  0.87196378  0.68475899  1
  H+  H204  1  0.22164437  0.11236498  0.85170581  1
  H+  H205  1  0.64100524  1.03738734  0.83935422  1
  H+  H206  1  0.13336582  0.36018592  0.16213932  1
  H+  H207  1  0.67095159  0.84321828  0.60806056  1
  H+  H208  1  0.35265371  0.13216881  0.84345936  1
  H+  H209  1  0.90135902  0.52816685  0.67523732  1
  H+  H210  1  0.88464820  0.11207624  0.32107119  1
  H+  H211  1  0.90741390  0.28688712  0.17647544  1
  H+  H212  1  0.47484266  0.10864106  -0.00372307  1
  H+  H213  1  0.39895790  0.37533397  0.33532707  1
  H+  H214  1  0.64022081  0.52071522  0.17490227  1
  H+  H215  1  0.72699408  0.36427691  1.00147648  1
  H+  H216  1  0.06836601  0.92643972  -0.00139371  1
  H+  H217  1  0.69431461  0.65770350  0.97049923  1
  H+  H218  1  0.50539834  0.85442287  0.14776616  1
  H+  H219  1  0.66859560  0.09142160  0.90186302  1
  H+  H220  1  0.97972979  0.36281345  0.64420347  1
  H+  H221  1  0.52665268  0.39445789  0.34427909  1
  H+  H222  1  0.88490158  0.60266216  0.99294731  1
  H+  H223  1  0.53310881  0.15752931  0.34026811  1
  H+  H224  1  0.07800169  0.90941953  0.77664033  1
  H+  H225  1  0.13082342  0.09927235  0.49362307  1
  H+  H226  1  0.74460151  0.39714744  0.32970812  1
  H+  H227  1  0.65830866  0.80765410  0.98098693  1
  H+  H228  1  0.78239975  0.15103474  0.34372721  1
  H+  H229  1  0.16578920  0.09223464  0.23042019  1
  H+  H230  1  0.57739278  0.67140705  0.39687194  1
  H+  H231  1  0.65955551  0.52072557  0.51673050  1
  H+  H232  1  -0.02324210  0.60922977  0.16732914  1
  H+  H233  1  0.86696341  0.18416075  0.07009810  1
  H+  H234  1  0.89565492  0.52433263  0.83894995  1
  H+  H235  1  0.89029082  0.11794306  0.66252264  1
  H+  H236  1  0.90177940  0.61693173  0.67453559  1
  H+  H237  1  0.97704792  0.86137787  0.17149012  1
  H+  H238  1  0.09519109  0.70027507  0.33715546  1
  H+  H239  1  0.10653932  0.87942072  0.34019590  1
  H+  H240  1  0.11961294  0.41383045  0.82544921  1
  H+  H241  1  0.61439845  0.13894962  0.84397455  1
  H+  H242  1  0.42081316  0.51371037  0.70149716  1
  H+  H243  1  0.10606170  0.63158575  0.16340469  1
  H+  H244  1  0.64224665  0.37412545  0.00066312  1
  H+  H245  1  0.03061129  0.39394654  0.15783717  1
  H+  H246  1  0.86594965  0.38332904  0.67391607  1
  H+  H247  1  0.63218262  0.50952736  0.67914783  1
  H+  H248  1  0.11672157  0.48188021  0.77610133  1
  H+  H249  1  0.61955732  0.38019012  0.67664053  1
  H+  H250  1  0.20909230  0.84236239  0.17340826  1
  H+  H251  1  0.12514183  0.88325224  0.49218029  1
  H+  H252  1  0.64421874  0.37351200  0.17434571  1
  H+  H253  1  0.67854458  0.61409689  0.53633134  1
  H+  H254  1  0.14657482  0.31122126  0.45881272  1
  H+  H255  1  0.85524922  0.72352245  0.83884403  1
  H+  H256  1  0.97896406  0.61363027  0.99540233  1
  H+  H257  1  0.62392537  0.77911912  0.66129255  1
  H+  H258  1  0.88729425  0.24018230  1.00329651  1
  H+  H259  1  0.88537500  0.86844891  0.84348532  1
  H+  H260  1  0.14156080  0.11580814  0.65863512  1
  H+  H261  1  0.63951696  0.12614767  0.33181084  1
  H+  H262  1  0.33662859  0.63073678  0.67293537  1
  H+  H263  1  0.56213657  0.67049535  0.77519320  1
  H+  H264  1  0.08826393  0.19520926  0.49178489  1
  H+  H265  1  0.64410991  0.86989890  0.51750767  1
  H+  H266  1  0.38983655  0.86827507  0.50232885  1
  H+  H267  1  0.28022432  0.63770953  0.49899702  1
  H+  H268  1  0.39009469  1.02095358  0.65615873  1
  H+  H269  1  0.47890601  0.86861411  0.50810334  1
  H+  H270  1  0.88927031  0.86692913  0.66221974  1
  H+  H271  1  0.77643621  0.88016986  0.14481302  1
  H+  H272  1  0.63477855  0.75215348  0.14663089  1
  H+  H273  1  0.13327595  0.31812338  0.35663165  1
  H+  H274  1  0.39495288  0.57213541  0.80731129  1
  H+  H275  1  0.11557496  0.97826973  0.16456398  1
  H+  H276  1  0.62020688  0.48842257  0.00976145  1
  H+  H277  1  0.36045780  0.62583257  0.15599505  1
  H+  H278  1  0.15887074  0.88028498  -0.00219263  1
  H+  H279  1  0.66506600  0.07169444  0.16913096  1
  H+  H280  1  0.36672512  0.23466893  0.34308540  1
  H+  H281  1  0.39102728  0.00520386  0.99805471  1
  H+  H282  1  0.38738080  0.36433231  0.84397278  1
  H+  H283  1  0.55959570  0.67179300  0.00710089  1
  H+  H284  1  0.73684304  0.36869901  0.65686499  1
  H+  H285  1  0.50537616  0.66755238  0.83090562  1
  H+  H286  1  0.77903720  0.38866451  0.16364228  1
  H+  H287  1  0.89176619  0.14696940  0.15646472  1
  H+  H288  1  0.10045982  0.66766339  0.43737933  1
  H+  H289  1  0.33308621  0.51423356  0.69602291  1
  H+  H290  1  0.33985958  0.43864508  0.78083284  1
  H+  H291  1  0.53105841  0.40071272  0.00720511  1
  H+  H292  1  0.37440598  0.44842113  0.40694503  1
  H+  H293  1  0.64499053  0.27930765  0.85552051  1
  H+  H294  1  0.02518003  0.13713416  0.67597597  1
  H+  H295  1  0.11117870  0.46331797  0.67190214  1
  H+  H296  1  0.01905424  0.88271819  0.34326812  1
  H+  H297  1  0.12958570  0.17526039  0.34022887  1
  H+  H298  1  0.16802430  0.83876301  0.90227666  1
  H+  H299  1  0.37310562  0.14332620  0.49612233  1
  H+  H300  1  0.83465322  0.41089128  0.73425966  1
  H+  H301  1  0.65989662  0.57847203  0.91662775  1
  H+  H302  1  0.38173609  0.24811241  0.01433062  1
  H+  H303  1  0.33381873  0.65925422  0.09598580  1
  H+  H304  1  0.84002499  0.92418220  0.06087931  1
  H+  H305  1  0.58528941  0.40652605  0.77464037  1
  H+  H306  1  0.27299473  0.88808265  0.49457464  1
  H+  H307  1  0.17441696  0.58143001  0.26800815  1
  H+  H308  1  0.58985466  0.17630393  0.43429347  1
  H+  H309  1  0.56192624  0.62716243  0.09583579  1
  H+  H310  1  0.83993277  0.41244576  0.06615677  1
  H+  H311  1  0.87977606  0.60725361  0.16434604  1
  H+  H312  1  0.22699386  0.32822018  0.62769344  1
  H+  H313  1  0.87143203  0.57806049  0.35194982  1
  H+  H314  1  0.09056519  0.42022720  0.39398834  1
  H+  H315  1  0.32846890  0.91723999  0.40105014  1
  H+  H316  1  0.41646542  0.09616304  0.27608359  1
  H+  H317  1  0.89924148  0.82144343  0.92960650  1
  H+  H318  1  0.86388764  0.97738770  0.34239800  1
  H+  H319  1  0.55392321  0.92829962  0.39595430  1
  H+  H320  1  0.33278732  0.89375823  0.06264648  1
  H+  H321  1  0.13802490  0.57703071  0.71216290  1
  H+  H322  1  0.66852547  0.58498023  0.23268125  1
  H+  H323  1  0.15269229  1.01026559  0.01198322  1
  H+  H324  1  0.33468823  0.92019532  0.72993134  1
  H+  H325  1  0.35887860  0.47938160  0.15455799  1
  H+  H326  1  0.59210554  0.93088199  0.73828706  1
  H+  H327  1  0.67714238  0.34559676  0.55890719  1
  H+  H328  1  0.57272076  0.17420642  0.79598162  1
  H+  H329  1  0.42133861  0.07804514  0.55909663  1
  H+  H330  1  0.33419928  0.17498358  0.40211471  1
  H+  H331  1  0.09949932  0.71829044  0.16643137  1
  H+  H332  1  0.64009082  0.78026102  0.51254838  1
  H+  H333  1  0.13058790  0.53738241  0.85367709  1
  H+  H334  1  0.22390533  0.61199447  0.16973759  1
  H+  H335  1  0.59420773  0.43229831  0.43624297  1
  H+  H336  1  0.92168272  0.33308208  0.92919040  1
  H+  H337  1  0.84855076  0.18025096  0.39789285  1
  H+  H338  1  0.67055873  0.56880391  0.62163987  1
  H+  H339  1  0.67492344  0.85015176  0.27216766  1
  H+  H340  1  0.17476993  0.10101085  0.94200723  1
  H+  H341  1  0.58593505  0.42136109  0.10319763  1
  H+  H342  1  0.29372670  0.16030254  1.01325709  1
  H+  H343  1  0.56829772  0.17458793  0.06402071  1
  H+  H344  1  0.91989483  0.83734261  0.60300983  1
  H+  H345  1  0.09413417  0.92574416  0.10328210  1
  H+  H346  1  0.08692326  0.42190156  0.09610394  1
  H+  H347  1  0.16235114  0.83335099  0.56633155  1
  H+  H348  1  0.52150351  0.89310842  0.81771681  1
  H+  H349  1  0.60968491  0.62027169  0.15635324  1
  H+  H350  1  0.91851518  0.08502945  0.60405740  1
  H+  H351  1  0.63585000  0.91575619  0.44341931  1
  H+  H352  1  0.42700828  0.34373964  0.93536181  1
  H+  H353  1  0.43657857  0.34835510  0.56679133  1
  H+  H354  1  0.15779321  0.07953980  0.59694343  1
  H+  H355  1  0.07954100  0.67355883  0.06903312  1
  H+  H356  1  0.38692827  0.81406186  0.59613189  1
  H+  H357  1  0.67724190  0.34549808  0.90960481  1
  H+  H358  1  0.83632090  0.65843189  0.39916031  1
  H+  H359  1  0.56189406  0.90002770  0.05726402  1
  H+  H360  1  0.60544268  0.89390645  -0.00582286  1
  H+  H361  1  0.90610247  0.33171342  0.59564749  1
  H+  H362  1  0.32703783  0.41800458  0.05687670  1
  H+  H363  1  0.09046228  0.91349748  0.42505467  1
  H+  H364  1  0.10003021  0.68055776  0.73951410  1
  H+  H365  1  0.28378471  0.64601257  0.77550858  1
  H+  H366  1  0.50016051  0.64330187  0.62000248  1
  H+  H367  1  0.84113266  0.91999352  0.43941644  1
  H+  H368  1  0.67640348  0.08763094  0.55777123  1
  H+  H369  1  0.97401102  0.86549245  0.84605338  1
  H+  H370  1  0.33367437  0.67388760  0.40446508  1
  H+  H371  1  0.68438944  0.89519180  0.26452978  1
  H+  H372  1  0.15822136  0.32927392  0.53082698  1
  H+  H373  1  0.84354268  0.92760046  0.77191157  1
  H+  H374  1  0.38866598  0.57844713  0.91357901  1
  H+  H375  1  0.23699446  0.55856085  0.69451209  1
  H+  H376  1  0.42289265  0.34423008  0.27389147  1
  H+  H377  1  0.07930034  0.15884970  0.77150008  1
  H+  H378  1  0.16713787  0.59865345  0.94473984  1
  H+  H379  1  0.34469034  0.84748182  0.15786969  1
  H+  H380  1  0.15373522  0.82076952  0.27084098  1
  H+  H381  1  0.67437284  0.09485930  0.27643385  1
  H+  H382  1  0.91442631  0.83019668  0.27064842  1
  H+  H383  1  0.59418442  0.17423693  0.70196654  1
  O2-  O384  1  0.08552083  0.16384164  0.11864601  1
  O2-  O385  1  0.06795978  0.13736810  0.47430986  1
  O2-  O386  1  0.07936463  0.16347445  0.81692771  1
  O2-  O387  1  0.09056140  0.42081717  0.14149570  1
  O2-  O388  1  0.06926429  0.42652373  0.47026255  1
  O2-  O389  1  0.09232904  0.44920027  0.81802819  1
  O2-  O390  1  0.07175852  0.65854956  0.14885218  1
  O2-  O391  1  0.10027375  0.67289382  0.48212820  1
  O2-  O392  1  0.08233167  0.67150244  0.82948431  1
  O2-  O393  1  0.08602438  0.91829388  0.14799576  1
  O2-  O394  1  0.09767703  0.91844266  0.47284906  1
  O2-  O395  1  0.07909270  0.91264364  0.82331345  1
  O2-  O396  1  0.33482566  0.19201494  0.14919863  1
  O2-  O397  1  0.33943989  0.17347776  0.48935764  1
  O2-  O398  1  0.32097975  0.15972436  0.82825766  1
  O2-  O399  1  0.33383345  0.42077402  0.13626518  1
  O2-  O400  1  0.37374357  0.44855749  0.49257975  1
  O2-  O401  1  0.32810494  0.41842827  0.82431903  1
  O2-  O402  1  0.32889848  0.65571801  0.14101546  1
  O2-  O403  1  0.33971304  0.66810693  0.48185952  1
  O2-  O404  1  0.30647539  0.66667312  0.81638117  1
  O2-  O405  1  0.31320468  0.87644455  0.14005355  1
  O2-  O406  1  0.33195824  0.91589429  0.47674243  1
  O2-  O407  1  0.33058665  0.91855831  0.81211021  1
  O2-  O408  1  0.56617432  0.17448965  0.14536976  1
  O2-  O409  1  0.58726496  0.17127599  0.47950565  1
  O2-  O410  1  0.57718382  0.16732830  0.83933483  1
  O2-  O411  1  0.58749548  0.41939028  0.14864206  1
  O2-  O412  1  0.59619523  0.43001048  0.48193033  1
  O2-  O413  1  0.58213211  0.40882790  0.82004328  1
  O2-  O414  1  0.57567148  0.64600294  0.13891397  1
  O2-  O415  1  0.57855885  0.67950241  0.47612084  1
  O2-  O416  1  0.56612908  0.69456074  0.81592466  1
  O2-  O417  1  0.56104727  0.88336250  0.12581440  1
  O2-  O418  1  0.59955954  0.92828191  0.47096085  1
  O2-  O419  1  0.58311947  0.92964737  0.80565141  1
  O2-  O420  1  0.86772896  0.18458239  0.14208112  1
  O2-  O421  1  0.84564479  0.17435186  0.47614084  1
  O2-  O422  1  0.84351178  0.17590442  0.81137630  1
  O2-  O423  1  0.83966121  0.41909715  0.14780900  1
  O2-  O424  1  0.82603584  0.41872659  0.46791564  1
  O2-  O425  1  0.84143806  0.42263555  0.81551916  1
  O2-  O426  1  0.83346302  0.65605470  0.14414001  1
  O2-  O427  1  0.84993800  0.67172345  0.47412931  1
  O2-  O428  1  0.82164452  0.66091413  0.83178382  1
  O2-  O429  1  0.83905553  0.91588321  0.13597394  1
  O2-  O430  1  0.84107486  0.91715147  0.48520656  1
  O2-  O431  1  0.83950258  0.92628076  0.81747084  1
  O2-  O432  1  0.16763137  0.08647211  0.18517020  1
  O2-  O433  1  0.16449357  0.07127692  0.50812478  1
  O2-  O434  1  0.16065096  0.08226152  0.86820543  1
  O2-  O435  1  0.16071438  0.32408751  0.17142838  1
  O2-  O436  1  0.11632832  0.30551600  0.49806566  1
  O2-  O437  1  0.15454445  0.33475160  0.84676416  1
  O2-  O438  1  0.16475790  0.58458325  0.18707475  1
  O2-  O439  1  0.17241263  0.58382793  0.52404159  1
  O2-  O440  1  0.15905185  0.59923798  0.87013179  1
  O2-  O441  1  0.15119365  0.82033371  0.19140002  1
  O2-  O442  1  0.16347433  0.83613856  0.51991816  1
  O2-  O443  1  0.16241536  0.83305560  0.85712483  1
  O2-  O444  1  0.41387280  0.12118037  0.19444965  1
  O2-  O445  1  0.41919340  0.08155415  0.51363041  1
  O2-  O446  1  0.40960028  0.06967283  0.86882362  1
  O2-  O447  1  0.42544338  0.35287026  0.19229561  1
  O2-  O448  1  0.43429910  0.34501405  0.52150556  1
  O2-  O449  1  0.41591352  0.33278642  0.85907454  1
  O2-  O450  1  0.41330726  0.58122417  0.18548981  1
  O2-  O451  1  0.43936520  0.60851201  0.54095523  1
  O2-  O452  1  0.39581587  0.60236869  0.84431185  1
  O2-  O453  1  0.40314655  0.81119007  0.18520337  1
  O2-  O454  1  0.41759881  0.83603766  0.51876380  1
  O2-  O455  1  0.41389155  0.83159040  0.84179269  1
  O2-  O456  1  0.70525007  0.12069323  0.19378600  1
  O2-  O457  1  0.67616727  0.09053971  0.51263198  1
  O2-  O458  1  0.67196148  0.09677814  0.85576902  1
  O2-  O459  1  0.67622956  0.34489000  0.19037752  1
  O2-  O460  1  0.66897892  0.33870751  0.51387339  1
  O2-  O461  1  0.67788284  0.34180213  0.86405514  1
  O2-  O462  1  0.67116285  0.58313172  0.18711525  1
  O2-  O463  1  0.70017094  0.57443017  0.54038261  1
  O2-  O464  1  0.66205861  0.57015593  0.86179097  1
  O2-  O465  1  0.66498526  0.81605032  0.15477848  1
  O2-  O466  1  0.67311706  0.83846579  0.53127408  1
  O2-  O467  1  0.66791680  0.85451547  0.84285476  1
  O2-  O468  1  0.92402988  0.08154687  0.17758121  1
  O2-  O469  1  0.91132611  0.07977098  0.52617786  1
  O2-  O470  1  0.92081918  0.09105675  0.86337259  1
  O2-  O471  1  0.92954870  0.34724652  0.18985502  1
  O2-  O472  1  0.90533413  0.33844208  0.51536885  1
  O2-  O473  1  0.92791157  0.34242609  0.85339576  1
  O2-  O474  1  0.91232403  0.57657715  0.17939838  1
  O2-  O475  1  0.93957875  0.58873538  0.50546974  1
  O2-  O476  1  0.92692248  0.58468942  0.85623731  1
  O2-  O477  1  0.91614048  0.83151076  0.18575826  1
  O2-  O478  1  0.92372723  0.83426362  0.52046915  1
  O2-  O479  1  0.91281190  0.83621073  0.86072969  1
  O2-  O480  1  0.16933320  0.09591596  0.31044789  1
  O2-  O481  1  0.17651058  0.09346590  0.63945495  1
  O2-  O482  1  0.18555685  0.10472445  0.98762388  1
  O2-  O483  1  0.15687604  0.28590923  0.37831043  1
  O2-  O484  1  0.19729622  0.33490375  0.66248181  1
  O2-  O485  1  0.15679312  0.33031049  0.97558487  1
  O2-  O486  1  0.17576209  0.58037757  0.31340422  1
  O2-  O487  1  0.15818299  0.53712873  0.72269659  1
  O2-  O488  1  0.17160914  0.59832201  0.99043291  1
  O2-  O489  1  0.15217423  0.81891695  0.31627700  1
  O2-  O490  1  0.16645008  0.82829144  0.64084741  1
  O2-  O491  1  0.17923943  0.84166631  0.98132924  1
  O2-  O492  1  0.41775676  0.08844498  0.32058319  1
  O2-  O493  1  0.42294427  0.07951945  0.63654097  1
  O2-  O494  1  0.41438552  0.06490892  0.98072034  1
  O2-  O495  1  0.42327922  0.33908842  0.31898312  1
  O2-  O496  1  0.42682846  0.34164727  0.64640882  1
  O2-  O497  1  0.43134426  0.35048353  0.98083983  1
  O2-  O498  1  0.42369393  0.59934146  0.30800127  1
  O2-  O499  1  0.53437682  0.67488482  0.65628461  1
  O2-  O500  1  0.38342078  0.56868796  0.95986339  1
  O2-  O501  1  0.39556641  0.82927318  0.31757896  1
  O2-  O502  1  0.36611883  0.80082246  0.63884582  1
  O2-  O503  1  0.41330094  0.81928228  0.97450563  1
  O2-  O504  1  0.66246314  0.08725854  0.32043508  1
  O2-  O505  1  0.67618138  0.07939192  0.63978320  1
  O2-  O506  1  0.65417227  0.08586796  0.97544489  1
  O2-  O507  1  0.68257989  0.35969294  0.31799714  1
  O2-  O508  1  0.67776273  0.34389148  0.63776221  1
  O2-  O509  1  0.66678022  0.33800770  0.98606571  1
  O2-  O510  1  0.66493199  0.59135540  0.31120762  1
  O2-  O511  1  0.65355927  0.56967128  0.66423352  1
  O2-  O512  1  0.66231174  0.59495959  0.97046636  1
  O2-  O513  1  0.66193719  0.86031510  0.38406165  1
  O2-  O514  1  0.66514143  0.84104387  0.65356721  1
  O2-  O515  1  0.68061698  0.86761154  0.97003894  1
  O2-  O516  1  0.90255675  0.07075018  0.30800131  1
  O2-  O517  1  0.92057167  0.08660556  0.64963302  1
  O2-  O518  1  0.93186141  0.09620642  0.98495021  1
  O2-  O519  1  0.92927732  0.35278747  0.31205385  1
  O2-  O520  1  0.91475709  0.33081752  0.64043072  1
  O2-  O521  1  0.92119434  0.33073314  0.97520164  1
  O2-  O522  1  0.90233443  0.54585263  0.36522696  1
  O2-  O523  1  0.93881179  0.59055323  0.66969118  1
  O2-  O524  1  0.91963753  0.57656305  0.97895423  1
  O2-  O525  1  0.91523548  0.82697284  0.31573405  1
  O2-  O526  1  0.91761384  0.83474741  0.64798758  1
  O2-  O527  1  0.88682948  0.81111731  0.97586922  1
  O2-  O528  1  0.09282536  0.17313166  0.05100801  1
  O2-  O529  1  0.09406624  0.19622865  0.36071772  1
  O2-  O530  1  0.08425418  0.16128982  0.69357093  1
  O2-  O531  1  0.08782024  0.42748396  0.01660839  1
  O2-  O532  1  0.09918467  0.41298597  0.34994710  1
  O2-  O533  1  0.08548519  0.41710966  0.63894266  1
  O2-  O534  1  0.08373147  0.67779802  0.02382080  1
  O2-  O535  1  0.07078753  0.64107096  0.35328003  1
  O2-  O536  1  0.10070008  0.67143370  0.69568509  1
  O2-  O537  1  0.12023214  0.94623197  0.02285312  1
  O2-  O538  1  0.08049818  0.91277713  0.35778941  1
  O2-  O539  1  0.07311190  0.89483456  0.70614374  1
  O2-  O540  1  0.35079912  0.18995533  0.03318764  1
  O2-  O541  1  0.33479960  0.17298866  0.35718532  1
  O2-  O542  1  0.34104638  0.17274287  0.63080033  1
  O2-  O543  1  0.32136462  0.41009724  0.01175525  1
  O2-  O544  1  0.36494465  0.43777822  0.36297846  1
  O2-  O545  1  0.35848499  0.47589195  0.70876768  1
  O2-  O546  1  0.33714889  0.67010261  0.01410538  1
  O2-  O547  1  0.33352125  0.68067333  0.35881373  1
  O2-  O548  1  0.29568240  0.56945582  0.67311197  1
  O2-  O549  1  0.33926274  0.90203708  0.01749067  1
  O2-  O550  1  0.32845190  0.91635581  0.35497418  1
  O2-  O551  1  0.33530251  0.92210544  0.68472941  1
  O2-  O552  1  0.56813393  0.17166729  0.01888352  1
  O2-  O553  1  0.59378058  0.18536160  0.35428650  1
  O2-  O554  1  0.58944124  0.16529290  0.65824287  1
  O2-  O555  1  0.59118311  0.42877886  0.02464149  1
  O2-  O556  1  0.58731905  0.43067807  0.35936699  1
  O2-  O557  1  0.58698195  0.40467260  0.69765628  1
  O2-  O558  1  0.53556207  0.61122914  0.01701882  1
  O2-  O559  1  0.58651684  0.68386234  0.35262726  1
  O2-  O560  1  0.53347322  0.60865962  0.69596337  1
  O2-  O561  1  0.56252211  0.90856690  0.01071841  1
  O2-  O562  1  0.54968752  0.92421970  0.35089698  1
  O2-  O563  1  0.59804591  0.93019957  0.69079153  1
  O2-  O564  1  0.86464218  0.18070646  0.02351589  1
  O2-  O565  1  0.84452151  0.18343825  0.35258226  1
  O2-  O566  1  0.83462552  0.16992146  0.68525866  1
  O2-  O567  1  0.83670881  0.40981790  0.02099351  1
  O2-  O568  1  0.85408320  0.45258721  0.34920342  1
  O2-  O569  1  0.83254819  0.41041124  0.68907858  1
  O2-  O570  1  0.82240704  0.64545155  0.01933443  1
  O2-  O571  1  0.83435852  0.64787314  0.35387272  1
  O2-  O572  1  0.84039764  0.66381127  0.68240909  1
  O2-  O573  1  0.83834954  0.92864345  0.01514557  1
  O2-  O574  1  0.83737380  0.91885263  0.36253061  1
  O2-  O575  1  0.84014939  0.92324284  0.69404496  1
