# generated using pymatgen
data_H2O
_symmetry_space_group_name_H-M   'P 1'
_cell_length_a   17.99023322
_cell_length_b   17.98298353
_cell_length_c   22.00886309
_cell_angle_alpha   89.97918343
_cell_angle_beta   90.05175978
_cell_angle_gamma   119.99194263
_symmetry_Int_Tables_number   1
_chemical_formula_structural   H2O
_chemical_formula_sum   'H384 O192'
_cell_volume   6166.82829516
_cell_formula_units_Z   192
loop_
 _symmetry_equiv_pos_site_id
 _symmetry_equiv_pos_as_xyz
  1  'x, y, z'
loop_
 _atom_type_symbol
 _atom_type_oxidation_number
  H+  1.0
  O2-  -2.0
loop_
 _atom_site_type_symbol
 _atom_site_label
 _atom_site_symmetry_multiplicity
 _atom_site_fract_x
 _atom_site_fract_y
 _atom_site_fract_z
 _atom_site_occupancy
  H+  H0  1  0.76639136  0.36930041  0.83444794  1
  H+  H1  1  0.63702845  0.48604869  0.15451780  1
  H+  H2  1  0.85971287  0.89374657  0.33784243  1
  H+  H3  1  0.88600967  0.75003362  0.52137084  1
  H+  H4  1  0.26637401  0.39642685  0.48504475  1
  H+  H5  1  0.61219538  0.13169421  0.15097847  1
  H+  H6  1  0.86967593  0.22547444  0.15952718  1
  H+  H7  1  0.47453790  0.86853748  0.84125859  1
  H+  H8  1  0.62463948  0.72859579  0.49803454  1
  H+  H9  1  0.40554188  0.03750868  0.97099838  1
  H+  H10  1  0.93260219  0.81983370  0.24046054  1
  H+  H11  1  0.95655779  0.73523044  0.30363206  1
  H+  H12  1  0.68017895  0.58885462  0.23190065  1
  H+  H13  1  0.44837542  0.14432858  0.82994800  1
  H+  H14  1  0.32594417  0.65028536  0.82399308  1
  H+  H15  1  0.86001254  0.88486658  0.67226547  1
  H+  H16  1  0.76845923  0.62137057  0.35832167  1
  H+  H17  1  0.88165453  0.86361828  0.84025012  1
  H+  H18  1  0.50932076  0.84715826  -0.00341636  1
  H+  H19  1  0.60969861  0.22546889  0.00373593  1
  H+  H20  1  0.63147223  0.85888628  0.65830023  1
  H+  H21  1  0.36147872  0.89709149  0.84240866  1
  H+  H22  1  0.02395563  0.38980858  0.00334401  1
  H+  H23  1  0.62084608  0.97379127  0.48220754  1
  H+  H24  1  0.53796654  0.61831198  0.35578763  1
  H+  H25  1  0.22276547  0.86504147  0.98112836  1
  H+  H26  1  0.13485386  0.30361698  0.82420856  1
  H+  H27  1  0.88850400  0.11648413  0.65819299  1
  H+  H28  1  0.63943564  0.76336749  0.16908591  1
  H+  H29  1  0.51523053  0.48489448  0.46395330  1
  H+  H30  1  0.84186470  0.85758597  1.00430298  1
  H+  H31  1  1.05219552  0.37286150  0.50331370  1
  H+  H32  1  0.00415639  0.14908994  0.49638230  1
  H+  H33  1  0.63598307  0.64610261  0.82508611  1
  H+  H34  1  0.87249288  0.47617845  0.69355795  1
  H+  H35  1  0.11617654  0.74626847  0.65712254  1
  H+  H36  1  1.04163795  0.64450968  0.48917332  1
  H+  H37  1  0.95521085  0.21662992  0.38189256  1
  H+  H38  1  0.61532264  0.22048437  0.14978996  1
  H+  H39  1  0.73048528  0.88831328  0.83631414  1
  H+  H40  1  0.53556362  0.63312168  0.67262173  1
  H+  H41  1  0.37544916  0.64208723  0.48780249  1
  H+  H42  1  0.55896706  0.10435848  0.83036498  1
  H+  H43  1  0.39668420  0.11735029  0.32528698  1
  H+  H44  1  0.50072169  0.93271380  0.19543546  1
  H+  H45  1  0.36146812  0.12364682  0.51137147  1
  H+  H46  1  0.12226285  -0.04463164  0.17064372  1
  H+  H47  1  0.74362745  0.36430915  0.32182585  1
  H+  H48  1  0.35285552  0.72559749  0.33835301  1
  H+  H49  1  0.23397506  0.64994792  0.65219965  1
  H+  H50  1  0.63221099  1.01216123  0.31045664  1
  H+  H51  1  0.87540564  0.98526050  0.81514735  1
  H+  H52  1  0.36484208  0.46447221  0.66294450  1
  H+  H53  1  0.87298844  0.70965236  0.35916357  1
  H+  H54  1  0.11831495  0.47931681  0.34088121  1
  H+  H55  1  0.14151214  0.12812388  0.65764137  1
  H+  H56  1  0.15213410  0.81785245  0.78001280  1
  H+  H57  1  0.00683918  0.62275013  0.15703269  1
  H+  H58  1  0.57584553  0.91222370  0.72913102  1
  H+  H59  1  0.63090716  0.87913089  0.14617485  1
  H+  H60  1  0.36221463  0.34589607  0.50986363  1
  H+  H61  1  0.36485290  0.98807653  0.15469813  1
  H+  H62  1  0.48311967  0.86702823  0.49185305  1
  H+  H63  1  0.87332511  0.82984113  0.52574643  1
  H+  H64  1  0.63021456  0.64208462  0.50544433  1
  H+  H65  1  0.36554440  0.85256645  0.68337589  1
  H+  H66  1  0.28399949  0.89821203  0.34067196  1
  H+  H67  1  0.98118041  0.60720497  0.74142749  1
  H+  H68  1  0.63390090  0.52689988  0.51886736  1
  H+  H69  1  0.36850201  0.13980473  0.99384477  1
  H+  H70  1  0.39418332  0.77883466  0.49483284  1
  H+  H71  1  0.11263977  0.87746260  0.51476536  1
  H+  H72  1  0.47060766  0.10168021  0.51138467  1
  H+  H73  1  0.38299129  0.86453488  0.32797738  1
  H+  H74  1  0.76837254  0.14602202  0.81534893  1
  H+  H75  1  0.13849307  0.60795381  0.32352071  1
  H+  H76  1  0.27113335  0.80391442  0.04645399  1
  H+  H77  1  0.27629068  0.39408589  0.01064940  1
  H+  H78  1  0.86275989  0.16081302  0.49492270  1
  H+  H79  1  0.90253191  0.28211635  0.66771449  1
  H+  H80  1  0.37339315  0.49445895  0.33698874  1
  H+  H81  1  0.29352408  0.17638399  0.13570019  1
  H+  H82  1  0.35682342  0.48455112  0.81354256  1
  H+  H83  1  0.88467099  1.04737906  0.50388355  1
  H+  H84  1  0.47648118  0.35535583  0.66292641  1
  H+  H85  1  0.03700025  0.16131784  0.82209693  1
  H+  H86  1  0.13552833  0.00813922  0.52458515  1
  H+  H87  1  1.02698810  0.14491436  0.66304038  1
  H+  H88  1  -0.01385387  0.85791654  0.18009317  1
  H+  H89  1  -0.03073157  0.86294102  -0.00397386  1
  H+  H90  1  0.63668623  0.25700519  0.52125570  1
  H+  H91  1  0.38941959  0.53545765  0.16371797  1
  H+  H92  1  0.35315401  0.92238343  0.09341752  1
  H+  H93  1  0.16989495  0.14717337  0.13793940  1
  H+  H94  1  0.35679338  0.85376304  0.01001994  1
  H+  H95  1  0.13163822  0.72763941  0.47851402  1
  H+  H96  1  0.26619460  0.87812924  0.83328329  1
  H+  H97  1  0.12408081  0.88484278  0.35356413  1
  H+  H98  1  0.93674364  0.55584339  0.55918486  1
  H+  H99  1  0.55559459  0.65539189  0.83310146  1
  H+  H100  1  0.62058438  0.35334716  -0.00849241  1
  H+  H101  1  0.77138207  0.63195774  -0.00954330  1
  H+  H102  1  0.52165792  0.38718622  0.82653312  1
  H+  H103  1  0.78133074  0.13874752  0.66377380  1
  H+  H104  1  0.65101070  0.60639426  0.33642266  1
  H+  H105  1  0.27789479  0.13605963  0.82721801  1
  H+  H106  1  0.11122765  0.74466570  0.82693469  1
  H+  H107  1  0.61503439  0.88250979  0.48392912  1
  H+  H108  1  0.37635024  0.88642469  0.48930444  1
  H+  H109  1  0.39023091  0.11089060  0.67102468  1
  H+  H110  1  0.58931432  0.81915118  -0.00107234  1
  H+  H111  1  0.36464441  -0.02268419  0.68920041  1
  H+  H112  1  0.12550155  0.75407268  0.17939986  1
  H+  H113  1  0.21464024  0.87804217  0.57280052  1
  H+  H114  1  0.89450122  0.15244245  0.01053028  1
  H+  H115  1  0.86386482  0.10207625  0.16434581  1
  H+  H116  1  0.68316742  0.33102915  0.21871355  1
  H+  H117  1  0.12427381  0.66644298  0.62916582  1
  H+  H118  1  0.66930338  0.82454250  0.22846431  1
  H+  H119  1  0.68835927  0.78817149  0.99914952  1
  H+  H120  1  0.60099443  0.87145722  0.32790114  1
  H+  H121  1  0.66997934  0.38340836  0.30027757  1
  H+  H122  1  0.64256309  0.10494417  0.31027158  1
  H+  H123  1  0.73218273  0.35925792  0.67157830  1
  H+  H124  1  0.62264330  0.22795551  0.32815032  1
  H+  H125  1  -0.02432005  0.86458708  0.67381013  1
  H+  H126  1  0.33372313  0.41975278  0.75739892  1
  H+  H127  1  0.78636955  0.37914840  0.15323045  1
  H+  H128  1  0.22836415  0.38346802  0.82365642  1
  H+  H129  1  0.64170489  0.61472344  0.17529160  1
  H+  H130  1  0.10843310  0.97863666  0.83369892  1
  H+  H131  1  0.15062596  0.35381040  0.55046349  1
  H+  H132  1  0.83511492  0.66541170  0.77772960  1
  H+  H133  1  0.52204010  0.63791631  0.15843944  1
  H+  H134  1  0.61594319  0.46725519  0.67562169  1
  H+  H135  1  0.28471021  0.88246068  0.49092070  1
  H+  H136  1  0.65406880  1.02675766  0.15571694  1
  H+  H137  1  0.33203021  0.76198442  0.17317630  1
  H+  H138  1  0.86377778  0.72516911  -0.00552817  1
  H+  H139  1  0.77480977  0.14144088  0.15332342  1
  H+  H140  1  0.27816393  0.14039866  0.36037642  1
  H+  H141  1  0.88908954  1.02675819  0.65557857  1
  H+  H142  1  0.37963405  0.62606275  0.32281272  1
  H+  H143  1  0.72217242  0.85662130  0.32146144  1
  H+  H144  1  0.64586501  0.26774072  0.67250598  1
  H+  H145  1  0.10158018  0.88458806  0.82802657  1
  H+  H146  1  0.38152849  0.07064119  0.23007670  1
  H+  H147  1  0.61416443  0.37719960  0.67641889  1
  H+  H148  1  0.77191563  0.88788199  0.66875238  1
  H+  H149  1  0.97038222  0.86441204  0.84392445  1
  H+  H150  1  0.91416675  0.34513375  0.51282267  1
  H+  H151  1  0.38644525  0.36800753  0.83369396  1
  H+  H152  1  0.82426712  0.52853327  0.19956736  1
  H+  H153  1  0.66996534  0.07528807  0.22043833  1
  H+  H154  1  0.11435339  0.22484152  0.34198469  1
  H+  H155  1  0.60113037  0.37026592  0.37350517  1
  H+  H156  1  0.36512899  0.22740092  0.99384393  1
  H+  H157  1  0.89088594  0.06526517  0.22362694  1
  H+  H158  1  0.09705046  0.62559027  0.15941544  1
  H+  H159  1  0.39419801  0.59438295  0.65424103  1
  H+  H160  1  0.36035161  0.10502486  0.16733402  1
  H+  H161  1  0.99754347  0.60559258  0.83275064  1
  H+  H162  1  0.97734365  0.07440212  1.02430055  1
  H+  H163  1  0.11055453  0.98489106  0.68112362  1
  H+  H164  1  0.62909909  0.35495115  0.83876235  1
  H+  H165  1  0.63904867  0.77357190  0.65808565  1
  H+  H166  1  0.61029612  0.47666124  -0.00109220  1
  H+  H167  1  0.01157447  0.37964761  0.33261577  1
  H+  H168  1  0.43178555  0.63588890  0.83142826  1
  H+  H169  1  0.04038120  0.41258052  0.67456927  1
  H+  H170  1  0.37906963  0.71047630  0.68001075  1
  H+  H171  1  0.64799567  0.79873640  0.83701414  1
  H+  H172  1  0.09760022  0.24751496  0.48821187  1
  H+  H173  1  0.86992501  0.72287152  0.68656965  1
  H+  H174  1  0.35788171  0.64662203  0.15165098  1
  H+  H175  1  0.86674949  0.17617617  0.82319144  1
  H+  H176  1  0.59337688  0.98261737  0.81504583  1
  H+  H177  1  0.10655307  0.13410197  0.35495429  1
  H+  H178  1  0.14693415  0.51819914  0.98615994  1
  H+  H179  1  0.02283889  0.87552515  0.51020977  1
  H+  H180  1  0.21914080  0.61565033  0.16832286  1
  H+  H181  1  0.63831169  0.01717247  0.65111993  1
  H+  H182  1  0.15404948  0.61129333  0.49274797  1
  H+  H183  1  0.32259749  0.66758639  0.09152077  1
  H+  H184  1  0.73533454  0.60652128  0.67175230  1
  H+  H185  1  0.87195514  0.62630795  0.51451920  1
  H+  H186  1  0.76286475  0.87664747  0.15601329  1
  H+  H187  1  0.51733398  0.04698001  0.44229692  1
  H+  H188  1  0.13700928  0.11875659  0.83410227  1
  H+  H189  1  0.76853795  0.14151299  0.48182032  1
  H+  H190  1  0.93163360  0.34617726  0.89786197  1
  H+  H191  1  0.39831748  0.29653709  0.29970138  1
  H+  H192  1  0.89837006  0.27640683  0.98870926  1
  H+  H193  1  0.24598694  0.04204870  0.22190851  1
  H+  H194  1  0.13687336  0.37433817  0.01458967  1
  H+  H195  1  0.63066712  0.09649577  0.49575350  1
  H+  H196  1  0.58519261  0.66530395  0.10122222  1
  H+  H197  1  0.72869148  0.86903520  0.50588849  1
  H+  H198  1  0.13777829  0.29326982  0.15322460  1
  H+  H199  1  0.77274244  0.34722986  0.49870782  1
  H+  H200  1  0.49166575  0.39732882  0.49475079  1
  H+  H201  1  0.17974382  0.34974793  0.09678524  1
  H+  H202  1  0.86919581  0.38553460  0.33889869  1
  H+  H203  1  0.86663138  0.50485893  0.84933272  1
  H+  H204  1  0.88170626  0.93334435  0.47746620  1
  H+  H205  1  0.22982443  0.09884257  0.52036087  1
  H+  H206  1  0.35568893  0.37265338  0.66940807  1
  H+  H207  1  0.39313235  0.52363944  0.50268092  1
  H+  H208  1  0.10972318  0.48275498  0.16095527  1
  H+  H209  1  0.61278722  0.90386815  0.82536987  1
  H+  H210  1  0.48978209  0.37253154  0.32026798  1
  H+  H211  1  0.65603494  0.36678120  0.16093886  1
  H+  H212  1  -0.02772044  0.10469282  0.31430022  1
  H+  H213  1  0.84970873  0.98030407  0.15189050  1
  H+  H214  1  0.10861177  0.89577147  0.00059644  1
  H+  H215  1  0.22275693  0.36940687  0.64450019  1
  H+  H216  1  0.86061270  0.72376627  0.83751664  1
  H+  H217  1  0.63571437  0.51955664  0.83602943  1
  H+  H218  1  0.12879232  0.03125047  0.99425542  1
  H+  H219  1  0.53128406  0.64124092  0.99960193  1
  H+  H220  1  0.09167600  0.40849458  0.39755511  1
  H+  H221  1  0.15392095  0.78049095  0.32991914  1
  H+  H222  1  0.87889017  0.63864688  0.69775836  1
  H+  H223  1  0.91373465  0.28061793  0.33014704  1
  H+  H224  1  0.85867230  0.98099460  0.32863722  1
  H+  H225  1  0.27295280  0.62209619  0.98865071  1
  H+  H226  1  0.23101546  0.12172375  0.66530624  1
  H+  H227  1  0.38274423  0.40372176  0.15162528  1
  H+  H228  1  0.87739488  0.73661211  0.16323724  1
  H+  H229  1  0.47426810  0.65556179  0.30292482  1
  H+  H230  1  0.99147995  0.82457758  0.34092577  1
  H+  H231  1  0.22587343  0.60589845  0.32635433  1
  H+  H232  1  0.04292257  0.65187752  0.32403755  1
  H+  H233  1  0.90354894  0.59207284  0.32151175  1
  H+  H234  1  0.39397629  0.51060230  0.98173196  1
  H+  H235  1  0.87542150  0.47598959  0.00640949  1
  H+  H236  1  0.13602301  0.87052682  0.69443329  1
  H+  H237  1  0.36095665  0.22041576  0.67598003  1
  H+  H238  1  0.28444050  0.63883809  0.48847345  1
  H+  H239  1  0.49285849  0.12326430  -0.00905349  1
  H+  H240  1  0.07524306  0.59574971  0.80586056  1
  H+  H241  1  0.38399523  0.41188628  0.33368857  1
  H+  H242  1  0.64810949  0.61095408  0.66907627  1
  H+  H243  1  0.41162095  0.29206781  0.15628890  1
  H+  H244  1  0.73613759  0.13036824  0.97297377  1
  H+  H245  1  0.37337563  0.26186868  0.51176505  1
  H+  H246  1  0.82895385  0.64852430  0.42592700  1
  H+  H247  1  0.89589663  0.35795317  0.17796918  1
  H+  H248  1  0.14039595  0.02323096  0.36598254  1
  H+  H249  1  0.61178306  0.26058573  0.84757581  1
  H+  H250  1  0.64719280  0.12893189  0.98106892  1
  H+  H251  1  0.38757331  0.75796084  0.98740501  1
  H+  H252  1  0.86047460  0.43218988  0.49107668  1
  H+  H253  1  0.99449323  0.15717706  0.91481634  1
  H+  H254  1  0.11924542  0.86956200  0.15580531  1
  H+  H255  1  0.86954402  0.62052780  0.16564550  1
  H+  H256  1  0.64062986  0.10621496  0.65301501  1
  H+  H257  1  0.50986986  0.90534560  0.21664089  1
  H+  H258  1  0.07327169  0.67470672  0.06286630  1
  H+  H259  1  0.36326006  0.89056594  0.16301769  1
  H+  H260  1  0.38506719  1.01458313  0.51621647  1
  H+  H261  1  0.53126392  0.12969027  0.68444177  1
  H+  H262  1  0.14237194  0.38277156  0.65015815  1
  H+  H263  1  0.10076772  0.73501253  1.00371784  1
  H+  H264  1  0.38357024  0.36140334  -0.01061971  1
  H+  H265  1  0.51348734  0.87763068  0.67284731  1
  H+  H266  1  0.77585477  0.61765505  0.51432239  1
  H+  H267  1  0.87100364  0.62758055  0.99254498  1
  H+  H268  1  0.00042501  0.15278028  0.16395643  1
  H+  H269  1  0.16062578  0.08878474  0.89608686  1
  H+  H270  1  0.36486374  0.63077043  1.00364613  1
  H+  H271  1  0.89763871  0.36814064  0.67193392  1
  H+  H272  1  0.47355639  0.36362741  0.98958647  1
  H+  H273  1  0.89179142  0.11472539  0.32185314  1
  H+  H274  1  -0.02468933  0.62350163  -0.00544478  1
  H+  H275  1  0.17041846  0.08065244  0.58921068  1
  H+  H276  1  0.64070336  0.76258990  0.32483083  1
  H+  H277  1  0.39547761  1.02876915  0.32208578  1
  H+  H278  1  0.89851881  0.36686384  0.99011526  1
  H+  H279  1  0.13385294  0.10972890  0.12131306  1
  H+  H280  1  0.90411851  0.09356904  0.88797360  1
  H+  H281  1  -0.01433304  0.36103763  0.17626930  1
  H+  H282  1  0.72896983  0.60753965  0.84018927  1
  H+  H283  1  0.87421237  0.46863556  0.15408499  1
  H+  H284  1  0.65010432  0.51716868  0.33443053  1
  H+  H285  1  0.87342377  0.59920648  0.84832913  1
  H+  H286  1  0.80523375  0.92054117  -0.00722723  1
  H+  H287  1  0.28978957  0.39876362  0.14764438  1
  H+  H288  1  0.86487074  0.38509610  0.83523615  1
  H+  H289  1  0.15056966  0.55442111  0.65175001  1
  H+  H290  1  0.41408022  0.32483499  0.60448537  1
  H+  H291  1  0.07713838  0.92815850  0.74233835  1
  H+  H292  1  0.17327524  0.06815623  0.30469423  1
  H+  H293  1  0.99390475  0.62434091  0.67216000  1
  H+  H294  1  0.58779094  0.88413270  0.05302028  1
  H+  H295  1  0.78462856  0.65294416  0.15423178  1
  H+  H296  1  0.91774678  0.82199840  0.61516306  1
  H+  H297  1  0.95197545  0.34947654  0.57896125  1
  H+  H298  1  0.42293967  0.83083724  0.93303747  1
  H+  H299  1  0.91008441  0.57839994  0.93531305  1
  H+  H300  1  0.59904932  0.14112253  0.73586164  1
  H+  H301  1  0.33333345  0.66582678  0.39833874  1
  H+  H302  1  0.08908753  0.18003490  0.75940956  1
  H+  H303  1  0.91891266  0.09689284  0.56871823  1
  H+  H304  1  0.56545431  0.42265275  0.40890992  1
  H+  H305  1  0.83168106  0.40709857  0.74506349  1
  H+  H306  1  0.33418701  0.42113722  0.43163415  1
  H+  H307  1  0.83138587  0.15828079  0.72687474  1
  H+  H308  1  0.21843798  0.11875325  0.99083315  1
  H+  H309  1  0.18532148  0.59490313  0.55549334  1
  H+  H310  1  0.09566007  0.14247858  -0.01747088  1
  H+  H311  1  0.59585904  0.67141907  0.73187560  1
  H+  H312  1  0.41328571  0.33606944  0.89376581  1
  H+  H313  1  0.66607604  0.58197751  0.92649329  1
  H+  H314  1  0.06797412  0.17596291  0.43054001  1
  H+  H315  1  0.44199835  0.35385481  0.21520882  1
  H+  H316  1  0.46406735  0.85283029  0.31650504  1
  H+  H317  1  0.36276459  0.22706057  0.82428247  1
  H+  H318  1  0.13439965  0.28439486  1.00329092  1
  H+  H319  1  0.67699330  0.13268649  0.88795018  1
  H+  H320  1  0.85207750  0.41248137  0.06226595  1
  H+  H321  1  0.57773930  0.90689386  0.38663239  1
  H+  H322  1  0.46589054  0.54338158  0.93252190  1
  H+  H323  1  0.16552794  0.58375800  0.23097443  1
  H+  H324  1  0.12081114  0.40012043  0.14930516  1
  H+  H325  1  0.07761716  0.42760782  0.06604885  1
  H+  H326  1  0.34511369  0.92757223  0.39942170  1
  H+  H327  1  0.58261431  0.16057672  0.06181891  1
  H+  H328  1  0.32879154  0.16169819  0.73613981  1
  H+  H329  1  0.54806536  0.39871553  0.15123525  1
  H+  H330  1  0.66780255  0.83515636  0.56478373  1
  H+  H331  1  0.48677829  0.61073639  0.50446292  1
  H+  H332  1  0.08489835  0.89815225  0.41633885  1
  H+  H333  1  0.91221191  0.83446337  0.93430060  1
  H+  H334  1  0.67477813  0.58003223  0.58107865  1
  H+  H335  1  0.18898635  0.08439465  0.20888347  1
  H+  H336  1  0.47325866  0.12928920  0.89512577  1
  H+  H337  1  0.82587623  0.38920402  0.40010322  1
  H+  H338  1  0.11194950  0.46590598  0.72429768  1
  H+  H339  1  0.34917300  0.43056576  0.06131061  1
  H+  H340  1  0.09162386  0.66610995  0.38816967  1
  H+  H341  1  0.41028028  0.59447621  0.22269188  1
  H+  H342  1  0.22397682  0.81584034  0.18929460  1
  H+  H343  1  0.16090133  0.35067462  0.29204592  1
  H+  H344  1  0.64335669  0.61638201  0.98757752  1
  H+  H345  1  0.65462604  0.32405518  0.93508874  1
  H+  H346  1  0.42160790  0.07869078  0.61453547  1
  H+  H347  1  0.22582467  0.86852357  0.69859738  1
  H+  H348  1  0.60237329  0.66339643  0.41017589  1
  H+  H349  1  0.33569201  0.92429532  0.75280952  1
  H+  H350  1  0.57071862  0.13877324  0.41520063  1
  H+  H351  1  0.53268962  0.14123534  0.32155559  1
  H+  H352  1  0.66766911  0.07712403  0.55711645  1
  H+  H353  1  0.38795683  0.58568815  0.89105866  1
  H+  H354  1  0.86148085  0.18531863  0.40612073  1
  H+  H355  1  0.08297026  0.91746786  0.06446119  1
  H+  H356  1  0.17509372  0.54658595  0.91902276  1
  H+  H357  1  0.24124521  0.36127830  0.32801758  1
  H+  H358  1  0.32771590  0.14535255  0.45055631  1
  H+  H359  1  0.93620674  0.33696626  0.26529676  1
  H+  H360  1  0.58844801  0.42269904  0.06011169  1
  H+  H361  1  0.83579978  0.92134692  0.75992645  1
  H+  H362  1  0.16310442  0.83962989  0.92306320  1
  H+  H363  1  0.92632361  0.60952969  0.25159088  1
  H+  H364  1  0.67745426  0.31880645  0.57752925  1
  H+  H365  1  0.17415524  0.83742155  0.27158235  1
  H+  H366  1  0.82790109  0.93897388  0.42454454  1
  H+  H367  1  0.31577264  0.70250528  0.76863874  1
  H+  H368  1  0.58193133  0.41192653  0.76788617  1
  H+  H369  1  0.35155670  0.17987167  0.08204905  1
  H+  H370  1  1.00047963  0.65049856  0.57724408  1
  H+  H371  1  0.19327740  0.58283091  0.80233952  1
  H+  H372  1  0.42970649  0.57711472  0.59351873  1
  H+  H373  1  0.03506906  0.18316888  0.09869393  1
  H+  H374  1  0.81660230  0.90631871  0.09022919  1
  H+  H375  1  0.84313519  0.17021546  0.06039814  1
  H+  H376  1  0.13972217  0.43637749  0.83845304  1
  H+  H377  1  -0.00382503  0.40325361  0.84754750  1
  H+  H378  1  0.35934064  0.81555521  0.23651756  1
  H+  H379  1  0.11270960  0.23697134  0.65935122  1
  H+  H380  1  0.37771055  0.78602661  0.84421660  1
  H+  H381  1  0.36911468  0.22413293  0.37725333  1
  H+  H382  1  0.55376763  0.89693465  0.14300060  1
  H+  H383  1  0.14365732  0.78231798  0.57193917  1
  O2-  O384  1  0.05093115  0.19608121  0.14180693  1
  O2-  O385  1  0.06697347  0.18326036  0.47694296  1
  O2-  O386  1  0.09486186  0.18279414  0.80431154  1
  O2-  O387  1  0.07984974  0.42254239  0.14508654  1
  O2-  O388  1  0.10658535  0.39029412  0.47760336  1
  O2-  O389  1  0.11906578  0.47901650  0.84948091  1
  O2-  O390  1  0.06738764  0.65746615  0.14562796  1
  O2-  O391  1  0.09575040  0.66804248  0.46547683  1
  O2-  O392  1  0.04836877  0.63219131  0.80465859  1
  O2-  O393  1  0.09216748  0.90402465  0.14463377  1
  O2-  O394  1  0.08414971  0.90822095  0.49740837  1
  O2-  O395  1  0.07298047  0.91800434  0.81789729  1
  O2-  O396  1  0.35145088  0.18632963  0.12843416  1
  O2-  O397  1  0.32657660  0.14977448  0.49557479  1
  O2-  O398  1  0.33690701  0.16633970  0.81029957  1
  O2-  O399  1  0.35268464  0.43482639  0.13805939  1
  O2-  O400  1  0.32783317  0.41680955  0.47677528  1
  O2-  O401  1  0.33670403  0.42420119  0.80285758  1
  O2-  O402  1  0.32255277  0.67167800  0.13671079  1
  O2-  O403  1  0.34530194  0.67100544  0.47117662  1
  O2-  O404  1  0.29943215  0.68484747  0.81152068  1
  O2-  O405  1  0.37957004  0.94483991  0.13501619  1
  O2-  O406  1  0.34418261  0.91981982  0.47790835  1
  O2-  O407  1  0.32675737  0.92131875  0.82575086  1
  O2-  O408  1  0.57984372  0.15983162  0.13704410  1
  O2-  O409  1  0.55077917  0.10694856  0.45503189  1
  O2-  O410  1  0.60282343  0.09186969  0.81164589  1
  O2-  O411  1  0.60928293  0.42658052  0.13786243  1
  O2-  O412  1  0.54025715  0.44899305  0.47370673  1
  O2-  O413  1  0.58320746  0.41654476  0.81326796  1
  O2-  O414  1  0.58405065  0.66355876  0.14624483  1
  O2-  O415  1  0.59826988  0.66690007  0.48432022  1
  O2-  O416  1  0.60964831  0.68166321  0.81103275  1
  O2-  O417  1  0.60747600  0.91085946  0.12237880  1
  O2-  O418  1  0.58888816  0.91424355  0.46493519  1
  O2-  O419  1  0.57167514  0.92085222  0.80753267  1
  O2-  O420  1  0.83681992  0.16777937  0.14008030  1
  O2-  O421  1  0.82970615  0.17917288  0.46945267  1
  O2-  O422  1  0.81595110  0.13782904  0.79947984  1
  O2-  O423  1  0.84964843  0.40760067  0.14334098  1
  O2-  O424  1  0.83012012  0.37283228  0.47723788  1
  O2-  O425  1  0.82635791  0.40801711  0.82049816  1
  O2-  O426  1  0.84592442  0.67798656  0.14327364  1
  O2-  O427  1  0.83638929  0.64904385  0.49669683  1
  O2-  O428  1  0.83233258  0.66290683  0.82338011  1
  O2-  O429  1  0.82179767  0.91516883  0.13592849  1
  O2-  O430  1  0.83472575  0.94447548  0.46993106  1
  O2-  O431  1  0.84004977  0.92432677  0.80575555  1
  O2-  O432  1  0.19018032  0.03846079  0.23190752  1
  O2-  O433  1  0.16921655  0.07032157  0.53803423  1
  O2-  O434  1  0.16185045  0.08416501  0.85108609  1
  O2-  O435  1  0.18214017  0.35349783  0.14237009  1
  O2-  O436  1  0.14916038  0.34515961  0.50452610  1
  O2-  O437  1  0.16793136  0.36538693  0.83380284  1
  O2-  O438  1  0.16008516  0.58645828  0.18591604  1
  O2-  O439  1  0.18831192  0.58827855  0.51097315  1
  O2-  O440  1  0.13416076  0.53318183  0.79546502  1
  O2-  O441  1  0.16838889  0.81354530  0.19371833  1
  O2-  O442  1  0.17361906  0.83421832  0.54500399  1
  O2-  O443  1  0.14446304  0.80864257  0.82505121  1
  O2-  O444  1  0.34609819  0.05248892  0.19167955  1
  O2-  O445  1  0.41465548  0.07498274  0.53260554  1
  O2-  O446  1  0.49620752  0.14668386  0.85299954  1
  O2-  O447  1  0.44167247  0.35320869  0.17021539  1
  O2-  O448  1  0.39953670  0.32318070  0.52439800  1
  O2-  O449  1  0.41520678  0.33626443  0.84835379  1
  O2-  O450  1  0.41614680  0.59689354  0.17773380  1
  O2-  O451  1  0.42656874  0.58307413  0.51954865  1
  O2-  O452  1  0.37655617  0.59225217  0.84758145  1
  O2-  O453  1  0.33123153  0.81008059  0.19573863  1
  O2-  O454  1  0.42295165  0.84049322  0.50674827  1
  O2-  O455  1  0.41771770  0.84244521  0.86324028  1
  O2-  O456  1  0.67515105  0.08346541  0.17438828  1
  O2-  O457  1  0.66892904  0.07586274  0.51142239  1
  O2-  O458  1  0.68254200  0.15412751  0.84314026  1
  O2-  O459  1  0.68432583  0.33337675  0.17367566  1
  O2-  O460  1  0.67944813  0.31551545  0.53210390  1
  O2-  O461  1  0.65564477  0.32115006  0.85368490  1
  O2-  O462  1  0.67782902  0.58937000  0.18716888  1
  O2-  O463  1  0.67709769  0.58386953  0.53481786  1
  O2-  O464  1  0.66660013  0.58042129  0.85203175  1
  O2-  O465  1  0.67210172  0.82557724  0.18273630  1
  O2-  O466  1  0.66858506  0.83205375  0.51903934  1
  O2-  O467  1  0.67019830  0.85845057  0.85025214  1
  O2-  O468  1  0.88688867  0.06294032  0.17839652  1
  O2-  O469  1  0.92036122  0.10505043  0.52253474  1
  O2-  O470  1  0.95861836  0.14416489  0.87770875  1
  O2-  O471  1  0.92636227  0.32827997  0.19497053  1
  O2-  O472  1  0.96409240  0.35014714  0.53476489  1
  O2-  O473  1  0.93583192  0.35837679  0.85320810  1
  O2-  O474  1  0.88171766  0.57181766  0.18614331  1
  O2-  O475  1  0.95834321  0.61474371  0.54518040  1
  O2-  O476  1  0.90047882  0.56634327  0.86451229  1
  O2-  O477  1  0.92724487  0.82919100  0.19706702  1
  O2-  O478  1  0.91513381  0.81193786  0.53469583  1
  O2-  O479  1  0.90952349  0.83305545  0.85888727  1
  O2-  O480  1  0.17070012  0.08195304  0.34826040  1
  O2-  O481  1  0.16999612  0.09289048  0.64720046  1
  O2-  O482  1  0.15735284  0.09102704  0.97788308  1
  O2-  O483  1  0.18421030  0.31828089  0.31187401  1
  O2-  O484  1  0.16310597  0.34736021  0.62908796  1
  O2-  O485  1  0.17057517  0.34316130  1.01949960  1
  O2-  O486  1  0.16531173  0.57299235  0.31052788  1
  O2-  O487  1  0.17726763  0.61333670  0.63324350  1
  O2-  O488  1  0.18665794  0.56917164  0.96088464  1
  O2-  O489  1  0.17937360  0.84200078  0.31683904  1
  O2-  O490  1  0.16101680  0.83233630  0.70078104  1
  O2-  O491  1  0.16345823  0.84484374  0.96744618  1
  O2-  O492  1  0.42104759  0.08713045  0.30249724  1
  O2-  O493  1  0.42223003  0.08081080  0.65966475  1
  O2-  O494  1  0.43368916  0.09985067  0.96897862  1
  O2-  O495  1  0.43648846  0.35854915  0.29701288  1
  O2-  O496  1  0.41481636  0.32425669  0.64964893  1
  O2-  O497  1  0.41354401  0.33177967  0.97278927  1
  O2-  O498  1  0.41773188  0.60403041  0.30435245  1
  O2-  O499  1  0.43039506  0.57220959  0.63949216  1
  O2-  O500  1  0.43511475  0.56456424  0.95712571  1
  O2-  O501  1  0.40106285  0.82606351  0.30777950  1
  O2-  O502  1  0.39190256  0.81939524  0.66471197  1
  O2-  O503  1  0.42339903  0.82217733  0.97924088  1
  O2-  O504  1  0.66685398  0.07077163  0.29342221  1
  O2-  O505  1  0.66981750  0.07664174  0.63473471  1
  O2-  O506  1  0.67887244  0.10829911  0.95500747  1
  O2-  O507  1  0.68453325  0.33800523  0.30076774  1
  O2-  O508  1  0.67209896  0.32697784  0.65552535  1
  O2-  O509  1  0.64807727  0.31963435  0.97984256  1
  O2-  O510  1  0.68435986  0.57848436  0.32210968  1
  O2-  O511  1  0.67576064  0.57763704  0.65472446  1
  O2-  O512  1  0.67080378  0.58410608  0.97240906  1
  O2-  O513  1  0.66296282  0.81948623  0.30534335  1
  O2-  O514  1  0.66617005  0.83355437  0.64217432  1
  O2-  O515  1  0.62724727  0.75693805  0.98478257  1
  O2-  O516  1  0.91109966  0.07725380  0.30162576  1
  O2-  O517  1  0.91992998  0.08736233  0.64072878  1
  O2-  O518  1  0.99250643  0.13513125  1.02330064  1
  O2-  O519  1  0.93968222  0.34113782  0.31234788  1
  O2-  O520  1  0.93400210  0.34432494  0.65698415  1
  O2-  O521  1  0.93014810  0.33686860  0.97418926  1
  O2-  O522  1  0.94765083  0.63302241  0.29397905  1
  O2-  O523  1  0.94795434  0.59633109  0.70257296  1
  O2-  O524  1  0.91212789  0.58839124  0.98111664  1
  O2-  O525  1  0.93952724  0.77644364  0.32001288  1
  O2-  O526  1  0.91476122  0.82762113  0.65978011  1
  O2-  O527  1  0.90902506  0.82906034  0.98014098  1
  O2-  O528  1  0.06281196  0.17453595  -0.02151950  1
  O2-  O529  1  0.07474091  0.16598153  0.35981399  1
  O2-  O530  1  0.08884566  0.17756883  0.67555384  1
  O2-  O531  1  0.08404684  0.42434971  0.02127468  1
  O2-  O532  1  0.08496564  0.41589746  0.35332612  1
  O2-  O533  1  0.10387814  0.45050876  0.68069639  1
  O2-  O534  1  0.06983627  0.67505572  0.01798201  1
  O2-  O535  1  0.10025862  0.67239226  0.34322896  1
  O2-  O536  1  0.09275275  0.69974055  0.62468944  1
  O2-  O537  1  0.07691871  0.92180220  0.01971209  1
  O2-  O538  1  0.08382646  0.90250761  0.37129632  1
  O2-  O539  1  0.07981390  0.92519845  0.69668031  1
  O2-  O540  1  0.33601463  0.16714444  0.01043390  1
  O2-  O541  1  0.34059419  0.16236195  0.37041206  1
  O2-  O542  1  0.32653085  0.15925511  0.68989841  1
  O2-  O543  1  0.34048808  0.42377903  0.01599336  1
  O2-  O544  1  0.35054904  0.43557506  0.35307666  1
  O2-  O545  1  0.32612704  0.40589207  0.67916393  1
  O2-  O546  1  0.33210855  0.65983212  0.01074587  1
  O2-  O547  1  0.32695358  0.66437323  0.35223055  1
  O2-  O548  1  0.33892374  0.73095767  0.68888704  1
  O2-  O549  1  0.31197126  0.86177013  0.03205926  1
  O2-  O550  1  0.34566952  0.92932878  0.35388000  1
  O2-  O551  1  0.33121561  0.91813490  0.70665821  1
  O2-  O552  1  0.58275069  0.16214199  0.01586011  1
  O2-  O553  1  0.59038567  0.16702631  0.34099454  1
  O2-  O554  1  0.59387508  0.15676995  0.69348901  1
  O2-  O555  1  0.57564662  0.41773137  0.01569445  1
  O2-  O556  1  0.58054276  0.41076199  0.36695168  1
  O2-  O557  1  0.58157554  0.40637255  0.68921846  1
  O2-  O558  1  0.58979918  0.67422460  0.01866876  1
  O2-  O559  1  0.59902412  0.65642157  0.36408975  1
  O2-  O560  1  0.59609633  0.66768987  0.68660186  1
  O2-  O561  1  0.57411046  0.86556819  0.00846454  1
  O2-  O562  1  0.57104190  0.90217573  0.34133229  1
  O2-  O563  1  0.57513318  0.90763987  0.68371129  1
  O2-  O564  1  0.85093493  0.16984541  0.01557052  1
  O2-  O565  1  0.89746887  0.19657318  0.36602780  1
  O2-  O566  1  0.84013892  0.16757160  0.68136214  1
  O2-  O567  1  0.85445147  0.41572623  0.01739748  1
  O2-  O568  1  0.83120328  0.40490335  0.35605163  1
  O2-  O569  1  0.83752279  0.41336096  0.69934666  1
  O2-  O570  1  0.83355847  0.66184654  0.00434629  1
  O2-  O571  1  0.82826744  0.65060388  0.37916703  1
  O2-  O572  1  0.83916369  0.66218813  0.70153405  1
  O2-  O573  1  0.79730086  0.87308279  0.01885285  1
  O2-  O574  1  0.82679628  0.92176856  0.34822792  1
  O2-  O575  1  0.83269710  0.91945407  0.68375636  1
