# generated using pymatgen
data_H2O
_symmetry_space_group_name_H-M   'P 1'
_cell_length_a   17.97665481
_cell_length_b   17.95187700
_cell_length_c   21.99952408
_cell_angle_alpha   90.04770517
_cell_angle_beta   89.94477501
_cell_angle_gamma   119.94903545
_symmetry_Int_Tables_number   1
_chemical_formula_structural   H2O
_chemical_formula_sum   'H384 O192'
_cell_volume   6151.55947379
_cell_formula_units_Z   192
loop_
 _symmetry_equiv_pos_site_id
 _symmetry_equiv_pos_as_xyz
  1  'x, y, z'
loop_
 _atom_type_symbol
 _atom_type_oxidation_number
  H+  1.0
  O2-  -2.0
loop_
 _atom_site_type_symbol
 _atom_site_label
 _atom_site_symmetry_multiplicity
 _atom_site_fract_x
 _atom_site_fract_y
 _atom_site_fract_z
 _atom_site_occupancy
  H+  H0  1  0.77618132  0.39586039  0.33624308  1
  H+  H1  1  0.71663150  0.61713053  0.85585449  1
  H+  H2  1  0.15778737  0.83129894  0.22756876  1
  H+  H3  1  0.34183614  0.62241518  0.14819802  1
  H+  H4  1  0.03037105  0.89446014  0.16808810  1
  H+  H5  1  0.12775472  0.51609522  0.17839055  1
  H+  H6  1  0.35907146  0.89211867  0.49316118  1
  H+  H7  1  0.90042999  0.61811122  0.16147815  1
  H+  H8  1  0.09733843  0.88228366  0.82532885  1
  H+  H9  1  0.37104361  0.10924543  0.51656410  1
  H+  H10  1  0.38515650  0.36370468  0.16065310  1
  H+  H11  1  0.01486694  0.39234987  0.91193844  1
  H+  H12  1  0.47162312  0.81444030  0.17011669  1
  H+  H13  1  0.86603515  0.72083643  0.14138972  1
  H+  H14  1  0.53238975  0.13917349  0.68747973  1
  H+  H15  1  0.51253977  0.62592191  0.81957777  1
  H+  H16  1  0.64096548  0.77773325  0.65639216  1
  H+  H17  1  0.14133492  0.06845379  0.93272194  1
  H+  H18  1  0.26947964  0.89367462  0.49489217  1
  H+  H19  1  0.13243956  0.27913521  0.66800640  1
  H+  H20  1  0.99042197  0.94611486  1.04469100  1
  H+  H21  1  0.42337871  0.63617150  0.55220138  1
  H+  H22  1  0.85472423  0.70927875  0.67687164  1
  H+  H23  1  0.88535923  0.23808834  0.31989792  1
  H+  H24  1  1.02127621  0.38030806  0.50212181  1
  H+  H25  1  0.62173148  0.38084111  1.01237780  1
  H+  H26  1  0.87718045  0.52881781  0.32392891  1
  H+  H27  1  0.08219445  0.74870366  0.34543983  1
  H+  H28  1  0.13417986  0.61996679  0.65858590  1
  H+  H29  1  0.47360400  0.86834369  0.65469668  1
  H+  H30  1  0.47272928  0.85007204  -0.00905475  1
  H+  H31  1  0.42509474  0.32132795  0.31055346  1
  H+  H32  1  0.14260872  0.77253397  0.98848371  1
  H+  H33  1  0.89946730  0.88068306  0.33615846  1
  H+  H34  1  0.34146105  0.91500764  0.75759488  1
  H+  H35  1  0.79189456  0.23269616  0.43309454  1
  H+  H36  1  0.40112340  0.14895951  0.80729673  1
  H+  H37  1  0.61692511  0.50074329  0.86010594  1
  H+  H38  1  0.37529503  0.60285168  0.83677915  1
  H+  H39  1  0.95893086  0.85272171  0.83373393  1
  H+  H40  1  0.89346847  0.11854109  0.17520097  1
  H+  H41  1  0.62699892  0.02185625  0.32279553  1
  H+  H42  1  0.53731097  0.37119890  0.67379840  1
  H+  H43  1  0.11384163  0.53085487  0.86318276  1
  H+  H44  1  0.38276824  1.01894728  0.33375019  1
  H+  H45  1  0.13665720  0.11686959  0.51192751  1
  H+  H46  1  0.13595732  0.26188515  0.17073393  1
  H+  H47  1  0.14258758  0.39168757  1.01872264  1
  H+  H48  1  0.12924230  0.10453309  0.33291712  1
  H+  H49  1  0.14188033  1.01918667  0.17606691  1
  H+  H50  1  0.10930217  0.14065087  0.67589501  1
  H+  H51  1  0.97263394  0.11827214  0.66192334  1
  H+  H52  1  0.20810648  0.59283782  0.65736486  1
  H+  H53  1  0.91507922  0.07800176  0.23330843  1
  H+  H54  1  0.63675845  0.52751538  0.34613242  1
  H+  H55  1  0.13711035  0.35171741  0.78448141  1
  H+  H56  1  0.46900106  0.86170420  0.49408929  1
  H+  H57  1  0.71223018  0.11702157  0.49354565  1
  H+  H58  1  0.60972938  0.88940667  0.67108090  1
  H+  H59  1  0.16832075  0.33925534  0.61022871  1
  H+  H60  1  0.73421845  0.59386978  0.66741276  1
  H+  H61  1  0.34194201  0.47384717  0.31102795  1
  H+  H62  1  0.27641458  0.89137721  0.66829321  1
  H+  H63  1  0.32218914  0.14165441  0.84269839  1
  H+  H64  1  0.64973067  0.78903621  0.51079470  1
  H+  H65  1  0.87818734  0.27785510  0.50712751  1
  H+  H66  1  0.03066309  0.64330141  0.67560552  1
  H+  H67  1  0.12005434  0.66211608  0.82923092  1
  H+  H68  1  0.58071472  0.91282397  0.42385561  1
  H+  H69  1  0.85400507  0.98393809  0.15961861  1
  H+  H70  1  0.89433352  0.27389718  0.17492858  1
  H+  H71  1  0.18640584  0.10091507  0.83062537  1
  H+  H72  1  0.59811562  0.51153850  0.18514582  1
  H+  H73  1  0.98103502  0.61271420  0.50391024  1
  H+  H74  1  0.13063123  0.77181785  0.16867906  1
  H+  H75  1  0.09159285  0.20163531  0.33908940  1
  H+  H76  1  0.38437083  0.36085222  0.84588796  1
  H+  H77  1  0.92549171  0.28751046  0.98600144  1
  H+  H78  1  0.21287477  0.60655011  0.17416117  1
  H+  H79  1  0.60646120  0.84592538  0.16941725  1
  H+  H80  1  0.65048148  0.61472997  0.51918285  1
  H+  H81  1  0.86780400  0.72931644  0.49129112  1
  H+  H82  1  0.78400952  0.14029545  0.16175994  1
  H+  H83  1  0.36693426  0.89119110  0.66422304  1
  H+  H84  1  0.40088766  0.39502031  0.31651698  1
  H+  H85  1  0.58147215  0.62628023  0.15798677  1
  H+  H86  1  0.84539335  0.89468252  0.17039660  1
  H+  H87  1  0.37533166  0.48672643  0.00179642  1
  H+  H88  1  0.23437053  0.37508930  0.52037093  1
  H+  H89  1  0.26697354  0.13474649  0.50787917  1
  H+  H90  1  0.14102042  0.78058874  0.65992530  1
  H+  H91  1  0.61239738  0.89031686  0.48560973  1
  H+  H92  1  0.84852784  0.97314434  0.82969729  1
  H+  H93  1  0.09740433  0.36326472  0.34252254  1
  H+  H94  1  0.62710435  1.02436196  0.49599953  1
  H+  H95  1  0.86678879  0.10900439  0.84128208  1
  H+  H96  1  0.14182478  0.36790803  0.51285858  1
  H+  H97  1  0.87031350  0.88495597  0.01254619  1
  H+  H98  1  -0.03647469  0.33283868  0.32979299  1
  H+  H99  1  0.02002895  0.88967424  0.50128566  1
  H+  H100  1  0.41270062  0.03278698  0.80394633  1
  H+  H101  1  0.07396268  0.38797161  0.86011215  1
  H+  H102  1  0.22525674  0.11771816  0.66601815  1
  H+  H103  1  0.11372748  0.88270776  0.15964912  1
  H+  H104  1  0.35223635  0.20325693  0.35831508  1
  H+  H105  1  0.65773347  0.02221401  0.18174668  1
  H+  H106  1  0.37185458  0.46685742  0.68664541  1
  H+  H107  1  0.73272067  0.91413285  0.19232424  1
  H+  H108  1  0.11368321  0.01942574  0.99596447  1
  H+  H109  1  0.85096251  0.84921295  0.65765077  1
  H+  H110  1  0.10602369  0.47016208  0.49499972  1
  H+  H111  1  0.38734595  0.57038564  0.24086573  1
  H+  H112  1  0.84201764  0.23511053  0.81688794  1
  H+  H113  1  0.63915873  0.27037789  0.32277881  1
  H+  H114  1  0.11543025  0.12831977  0.16468206  1
  H+  H115  1  0.13571866  0.75634154  0.82085561  1
  H+  H116  1  0.85899408  0.14329455  0.66910459  1
  H+  H117  1  0.23326650  0.85980876  0.99403726  1
  H+  H118  1  0.29197377  0.89713360  0.82153510  1
  H+  H119  1  0.63658346  1.02062571  0.84242922  1
  H+  H120  1  0.89633488  0.61937972  0.50446875  1
  H+  H121  1  0.53957616  0.42805615  0.34116647  1
  H+  H122  1  0.38712337  0.11300936  0.66181789  1
  H+  H123  1  0.61320246  0.14495082  0.48868780  1
  H+  H124  1  0.11483602  0.89186854  0.67518914  1
  H+  H125  1  0.65799187  0.26121907  -0.00659419  1
  H+  H126  1  0.91817815  0.32248257  0.23849584  1
  H+  H127  1  0.35593333  0.11732925  0.35210559  1
  H+  H128  1  0.35699323  0.88403583  0.33662709  1
  H+  H129  1  0.86297336  0.64215121  0.33217559  1
  H+  H130  1  1.02655684  0.12889277  0.15749788  1
  H+  H131  1  1.02151763  0.63320539  0.15687566  1
  H+  H132  1  0.94057488  0.05068282  1.01593188  1
  H+  H133  1  0.62425845  0.76422495  0.82532132  1
  H+  H134  1  0.52324103  0.40078217  0.85193703  1
  H+  H135  1  0.77464980  0.89633199  0.34213034  1
  H+  H136  1  0.02507875  0.88856706  0.35046969  1
  H+  H137  1  0.95334260  0.10824470  0.84074422  1
  H+  H138  1  0.13459880  0.86983814  0.50817352  1
  H+  H139  1  0.60319069  0.63154541  0.82895573  1
  H+  H140  1  0.53583596  0.38596223  0.00866224  1
  H+  H141  1  0.09231202  0.22363834  0.82436323  1
  H+  H142  1  0.61073054  0.13421798  0.33846568  1
  H+  H143  1  0.37678024  0.77561975  0.49914872  1
  H+  H144  1  0.52491452  0.37999232  0.15498111  1
  H+  H145  1  0.21987950  0.86350613  0.32473307  1
  H+  H146  1  0.37971027  0.76833504  0.99015016  1
  H+  H147  1  0.24885447  0.63422421  0.49264019  1
  H+  H148  1  0.78368418  0.63669540  0.49529980  1
  H+  H149  1  0.59878660  0.67755458  0.45640213  1
  H+  H150  1  0.60323434  0.15316208  -0.06907911  1
  H+  H151  1  0.13395113  0.61200338  0.00545006  1
  H+  H152  1  0.13737193  0.87433136  0.32809607  1
  H+  H153  1  0.33195119  0.62858132  0.47859505  1
  H+  H154  1  0.45774194  0.60320195  0.14660207  1
  H+  H155  1  0.64651578  0.59679485  0.66514692  1
  H+  H156  1  0.15514805  0.57143116  0.27403909  1
  H+  H157  1  0.38993604  0.27480880  0.51429895  1
  H+  H158  1  0.95810699  0.06376488  0.34355564  1
  H+  H159  1  0.92827180  0.86671513  0.24688709  1
  H+  H160  1  0.89136818  0.03356750  0.50389428  1
  H+  H161  1  0.39186372  -0.02344111  0.16300290  1
  H+  H162  1  0.24237841  0.52153763  0.71688160  1
  H+  H163  1  0.35177313  0.71491891  0.82469909  1
  H+  H164  1  0.21463859  0.93328794  0.86450766  1
  H+  H165  1  0.86081400  0.45117308  0.82053630  1
  H+  H166  1  0.51994360  0.13333798  0.34128344  1
  H+  H167  1  0.56061585  0.75652487  0.13515277  1
  H+  H168  1  0.08139748  0.92084062  0.44268174  1
  H+  H169  1  0.59014562  0.41983243  0.09966454  1
  H+  H170  1  0.13375224  0.51249114  0.33269556  1
  H+  H171  1  0.20990147  0.60814681  0.84833866  1
  H+  H172  1  0.61079278  0.21163814  0.14174740  1
  H+  H173  1  0.62738001  0.46331288  0.67378594  1
  H+  H174  1  0.54346602  0.62689967  0.66647878  1
  H+  H175  1  0.39026285  0.23516038  0.01867448  1
  H+  H176  1  0.78778785  0.76439542  0.62493873  1
  H+  H177  1  0.32877801  0.91428638  0.39772171  1
  H+  H178  1  0.96787639  0.95390346  0.21214595  1
  H+  H179  1  0.87115517  0.85484012  0.83698329  1
  H+  H180  1  0.41032268  0.82736666  0.26046121  1
  H+  H181  1  0.95455452  0.11926948  -0.03185959  1
  H+  H182  1  0.17300415  0.70719512  0.43979527  1
  H+  H183  1  0.16400147  0.15493477  1.01250168  1
  H+  H184  1  0.84967545  0.94192052  0.43126170  1
  H+  H185  1  0.63586860  0.35331686  0.14227030  1
  H+  H186  1  0.50755084  0.88171744  0.32431058  1
  H+  H187  1  0.84669261  0.08581168  0.34639979  1
  H+  H188  1  0.87822548  0.59325799  0.98862120  1
  H+  H189  1  0.90032437  0.51562710  0.65703311  1
  H+  H190  1  0.89689531  0.38624818  0.00892818  1
  H+  H191  1  0.21228919  0.36660642  0.82773161  1
  H+  H192  1  0.63677403  0.14936148  0.83531621  1
  H+  H193  1  0.38454160  0.62323530  0.98719695  1
  H+  H194  1  0.77559156  0.14673754  1.00937428  1
  H+  H195  1  0.67849115  0.88464144  0.35318009  1
  H+  H196  1  1.02185968  0.63380164  1.00378110  1
  H+  H197  1  0.36833161  0.88518863  0.00487736  1
  H+  H198  1  0.01603340  0.37122458  0.00312977  1
  H+  H199  1  0.38656104  1.02239097  0.66050461  1
  H+  H200  1  0.88894039  0.78423614  0.33189871  1
  H+  H201  1  0.08493702  0.38410610  0.65210190  1
  H+  H202  1  0.12976372  0.18143564  0.07209721  1
  H+  H203  1  0.35791182  0.59977716  0.30151297  1
  H+  H204  1  0.64693241  0.29762726  0.85397482  1
  H+  H205  1  0.36847652  0.22543396  0.67498324  1
  H+  H206  1  0.26720845  0.37353433  0.15166741  1
  H+  H207  1  0.13255690  0.02496796  0.51390792  1
  H+  H208  1  0.37102783  -0.02475345  1.01184913  1
  H+  H209  1  0.20701207  0.33772061  0.32062038  1
  H+  H210  1  0.10386399  1.00762369  0.83209130  1
  H+  H211  1  0.34718420  0.71332568  0.15698396  1
  H+  H212  1  0.02583973  0.37976317  0.16761812  1
  H+  H213  1  0.60999416  0.97839903  0.66955147  1
  H+  H214  1  0.86833559  0.62699022  0.67876329  1
  H+  H215  1  0.43790197  0.58984981  0.61111116  1
  H+  H216  1  0.54543616  0.64850764  0.52021895  1
  H+  H217  1  0.11240335  -0.02154140  0.34892483  1
  H+  H218  1  0.89461607  0.12392141  0.50484910  1
  H+  H219  1  0.36404978  0.22748454  0.16857246  1
  H+  H220  1  0.84806414  0.71297674  0.83280471  1
  H+  H221  1  0.40053487  0.37062620  0.99880376  1
  H+  H222  1  0.58880950  0.17695267  0.42567873  1
  H+  H223  1  0.59544158  0.90060351  0.29544578  1
  H+  H224  1  0.07162362  0.91024450  0.76202541  1
  H+  H225  1  0.63879520  0.36393406  0.49572337  1
  H+  H226  1  0.85281583  0.57177854  0.84141272  1
  H+  H227  1  0.86330459  0.38959774  0.49399890  1
  H+  H228  1  0.88961679  0.51050828  0.99497636  1
  H+  H229  1  0.25691622  0.63492678  0.33486572  1
  H+  H230  1  0.41331452  0.85986911  0.16585255  1
  H+  H231  1  0.40875559  0.12568050  1.01055513  1
  H+  H232  1  0.40243205  0.28112125  0.84166296  1
  H+  H233  1  0.61193096  0.77844030  0.91766897  1
  H+  H234  1  0.88891302  0.52283428  0.16996720  1
  H+  H235  1  0.03116871  0.14725619  0.49780464  1
  H+  H236  1  0.37569776  0.77149841  0.32091678  1
  H+  H237  1  0.56099550  0.68092196  0.35724918  1
  H+  H238  1  0.68187352  0.05796383  0.94054499  1
  H+  H239  1  0.37365550  0.92748444  0.09940798  1
  H+  H240  1  0.73948115  0.35467606  0.66422980  1
  H+  H241  1  0.76167608  0.62686637  0.00469296  1
  H+  H242  1  0.41150973  0.08402346  0.27698847  1
  H+  H243  1  0.13631913  0.35240622  0.17488287  1
  H+  H244  1  0.12439600  0.60989181  0.49976211  1
  H+  H245  1  0.38883725  0.85683826  0.83367895  1
  H+  H246  1  0.52026610  0.88367342  0.82547179  1
  H+  H247  1  0.44617818  0.60614327  0.70544716  1
  H+  H248  1  0.38617138  0.11477988  0.18477177  1
  H+  H249  1  0.21909678  0.10430858  0.33621770  1
  H+  H250  1  0.40963619  0.07942095  0.94861325  1
  H+  H251  1  0.86277516  0.47823429  0.49430499  1
  H+  H252  1  0.74248937  0.63228356  0.33354578  1
  H+  H253  1  0.59380541  0.65946235  0.72774269  1
  H+  H254  1  0.73139887  0.36552520  0.49679623  1
  H+  H255  1  0.37375504  1.01583429  0.51200498  1
  H+  H256  1  0.78187904  0.90585389  0.48827364  1
  H+  H257  1  0.50314507  0.12238799  0.81295380  1
  H+  H258  1  0.74982756  0.35011498  1.00445279  1
  H+  H259  1  0.71746492  0.58542702  0.11222782  1
  H+  H260  1  0.67134397  0.32523141  0.08637915  1
  H+  H261  1  0.71906099  0.62193040  0.12969593  1
  H+  H262  1  0.26861107  0.63986566  0.00454287  1
  H+  H263  1  0.33221732  0.57502109  0.68464915  1
  H+  H264  1  0.62075062  0.47954932  0.49909698  1
  H+  H265  1  0.89586591  0.82734659  0.56184992  1
  H+  H266  1  0.64211852  0.08286313  0.99257657  1
  H+  H267  1  0.85944408  -0.01821225  0.67539241  1
  H+  H268  1  0.28118993  0.37922457  0.68006210  1
  H+  H269  1  0.72690739  0.10960919  0.84215606  1
  H+  H270  1  0.08788118  0.47406602  0.64282343  1
  H+  H271  1  0.58679176  0.79971242  -0.01801522  1
  H+  H272  1  0.11225669  -0.02080226  0.67829755  1
  H+  H273  1  0.17414788  0.27422752  1.01039484  1
  H+  H274  1  0.52983399  0.39054680  0.49564169  1
  H+  H275  1  0.12200268  0.23410268  0.49703214  1
  H+  H276  1  0.78242146  0.37984607  0.14961911  1
  H+  H277  1  0.61641711  0.93860314  0.01561508  1
  H+  H278  1  0.61867714  0.40131382  0.85903766  1
  H+  H279  1  0.88558415  0.86878629  0.50103775  1
  H+  H280  1  0.10907077  0.63209779  0.15766525  1
  H+  H281  1  0.39695998  0.36776360  0.52200177  1
  H+  H282  1  0.72181479  0.11371189  0.65234002  1
  H+  H283  1  0.40163400  0.35979863  0.66910434  1
  H+  H284  1  0.35333699  0.46686568  0.83184917  1
  H+  H285  1  0.93759327  0.38153652  0.83968059  1
  H+  H286  1  0.28759777  0.39467153  0.00007284  1
  H+  H287  1  0.38773692  0.49772873  0.53570425  1
  H+  H288  1  0.41142327  0.58056079  0.89539872  1
  H+  H289  1  0.07076916  0.16533716  0.73355438  1
  H+  H290  1  0.33730529  0.16678667  0.73384832  1
  H+  H291  1  0.18309304  0.85080185  0.90631843  1
  H+  H292  1  0.27594771  0.13581861  0.16807728  1
  H+  H293  1  0.07185253  0.39537300  0.40288112  1
  H+  H294  1  0.40704607  0.07793285  0.57979281  1
  H+  H295  1  0.43045420  0.35956340  0.22123301  1
  H+  H296  1  0.31673276  0.04548929  0.89472496  1
  H+  H297  1  0.37143409  0.51154732  0.15211342  1
  H+  H298  1  0.65883157  0.08484210  0.59429048  1
  H+  H299  1  0.32070088  0.42424886  0.37457030  1
  H+  H300  1  0.14837262  0.30776666  0.26333523  1
  H+  H301  1  0.84186045  0.17591051  0.10209709  1
  H+  H302  1  0.62551453  0.85454556  0.83195472  1
  H+  H303  1  0.32893313  0.40838091  0.09111064  1
  H+  H304  1  0.89744495  0.33271887  0.56890729  1
  H+  H305  1  0.95298181  0.37507444  0.65339776  1
  H+  H306  1  0.69255676  0.88317297  0.25712163  1
  H+  H307  1  0.63864284  0.10027638  0.17140294  1
  H+  H308  1  0.82061269  0.16616677  0.41958054  1
  H+  H309  1  0.72490004  0.87009919  0.66205239  1
  H+  H310  1  0.05786351  0.92395271  0.07475422  1
  H+  H311  1  0.67144274  0.08855822  0.26892103  1
  H+  H312  1  0.82148046  0.16954975  0.76252435  1
  H+  H313  1  0.67865549  0.57364348  0.57291191  1
  H+  H314  1  0.02523612  0.43673524  0.75470532  1
  H+  H315  1  0.35734626  0.17340444  0.07783481  1
  H+  H316  1  0.57549910  0.86227629  0.06598515  1
  H+  H317  1  0.32978159  0.40393555  0.77440012  1
  H+  H318  1  0.43053232  0.33173407  0.60816901  1
  H+  H319  1  0.07683648  0.15625656  0.40373134  1
  H+  H320  1  0.81635888  0.64940909  0.77686094  1
  H+  H321  1  0.42407996  0.33414425  0.94103587  1
  H+  H322  1  0.67323608  0.34771268  0.91712139  1
  H+  H323  1  0.84022855  0.67117513  0.39629331  1
  H+  H324  1  0.14344410  0.78496350  0.50077122  1
  H+  H325  1  0.41678101  0.84188061  0.59444543  1
  H+  H326  1  0.36765506  0.45712192  0.47133294  1
  H+  H327  1  0.32778529  0.66806814  0.06295422  1
  H+  H328  1  0.91423594  0.08859155  0.60245611  1
  H+  H329  1  0.59320781  0.44420677  0.40632595  1
  H+  H330  1  0.92236026  0.58006625  0.60171504  1
  H+  H331  1  -0.00692253  0.65783194  0.34717828  1
  H+  H332  1  0.61599759  0.18663983  0.77638600  1
  H+  H333  1  0.91077260  0.58806442  0.26253319  1
  H+  H334  1  0.82746533  0.92102845  0.73533922  1
  H+  H335  1  0.32576624  0.15589206  0.44848805  1
  H+  H336  1  0.84963748  0.22858412  0.67079124  1
  H+  H337  1  0.65520267  0.76047964  0.36073240  1
  H+  H338  1  0.47375513  0.11204101  0.18734970  1
  H+  H339  1  0.76679866  0.10409863  0.33730213  1
  H+  H340  1  0.53411097  0.12948721  -0.01737846  1
  H+  H341  1  0.59288046  0.65660067  0.08905303  1
  H+  H342  1  0.08526014  0.13026378  0.82838432  1
  H+  H343  1  0.83444943  0.42987825  0.39540425  1
  H+  H344  1  0.90298988  0.81874251  0.92843142  1
  H+  H345  1  0.55665571  0.12347210  0.10637258  1
  H+  H346  1  0.32398600  0.67376431  0.38900179  1
  H+  H347  1  0.16701933  0.07697346  0.23706114  1
  H+  H348  1  0.16424536  0.08753306  0.60780812  1
  H+  H349  1  0.13887607  0.48111040  0.01691526  1
  H+  H350  1  0.01619398  0.39120032  0.75679749  1
  H+  H351  1  0.65993459  0.60428941  0.91922601  1
  H+  H352  1  0.28111506  0.05077306  0.90882670  1
  H+  H353  1  0.95714796  0.84706068  0.99096056  1
  H+  H354  1  0.85929665  0.39218212  0.72110874  1
  H+  H355  1  0.85108428  0.92202301  0.07404285  1
  H+  H356  1  0.65543742  0.64002881  0.34274034  1
  H+  H357  1  0.09541653  0.68279580  0.73273013  1
  H+  H358  1  0.85407306  0.70751186  -0.00643273  1
  H+  H359  1  0.57972661  0.91892528  0.76612739  1
  H+  H360  1  0.30939164  0.64100921  0.77235887  1
  H+  H361  1  0.86201431  0.67237704  0.08009124  1
  H+  H362  1  0.76209672  0.88105687  0.82550198  1
  H+  H363  1  0.41329118  0.82466515  0.89471446  1
  H+  H364  1  0.16738705  0.31953446  0.94693827  1
  H+  H365  1  0.64654169  0.26663756  0.67110487  1
  H+  H366  1  0.87171496  0.38298597  0.16705935  1
  H+  H367  1  0.09170794  0.41248508  0.11026143  1
  H+  H368  1  0.67341329  0.32434760  0.26294029  1
  H+  H369  1  0.47987236  0.64775728  0.97159781  1
  H+  H370  1  0.07970574  0.68998521  0.42235010  1
  H+  H371  1  0.63110166  0.57783539  0.23959220  1
  H+  H372  1  0.89125635  0.54581052  0.89689034  1
  H+  H373  1  0.63917466  0.36683793  0.67135804  1
  H+  H374  1  0.16422937  0.59126736  0.94361572  1
  H+  H375  1  0.61755348  0.13475238  0.67632992  1
  H+  H376  1  0.63231713  0.25821759  0.48871779  1
  H+  H377  1  0.15175229  0.58331471  0.56291314  1
  H+  H378  1  0.63666633  0.70386013  -0.00989876  1
  H+  H379  1  0.85836224  0.40706436  0.07032327  1
  H+  H380  1  0.80515084  0.24077231  0.03236772  1
  H+  H381  1  0.67459374  0.85482081  0.56396450  1
  H+  H382  1  0.16849871  0.83978298  0.60049218  1
  H+  H383  1  0.07895709  0.66714965  0.06470495  1
  O2-  O384  1  0.08826313  0.16033487  0.14692190  1
  O2-  O385  1  0.09099903  0.17346310  0.48196231  1
  O2-  O386  1  0.05900049  0.16306007  0.81070940  1
  O2-  O387  1  0.08807194  0.40976962  0.15558035  1
  O2-  O388  1  0.08023783  0.40796485  0.48475002  1
  O2-  O389  1  0.04193890  0.41703767  0.87161980  1
  O2-  O390  1  0.08152853  0.66410339  0.14051486  1
  O2-  O391  1  0.11822265  0.69029646  0.45968352  1
  O2-  O392  1  0.10209003  0.69753756  0.80563972  1
  O2-  O393  1  0.08685430  0.91967675  0.14775745  1
  O2-  O394  1  0.08164847  0.92152155  0.48854993  1
  O2-  O395  1  0.06491182  0.90877260  0.80877375  1
  O2-  O396  1  0.33803516  0.16586791  0.15622965  1
  O2-  O397  1  0.32904741  0.16266359  0.49373882  1
  O2-  O398  1  0.36413785  0.17843015  0.81240046  1
  O2-  O399  1  0.32794133  0.40651435  0.13669898  1
  O2-  O400  1  0.35624017  0.44043280  0.51393174  1
  O2-  O401  1  0.32186488  0.40444838  0.81965768  1
  O2-  O402  1  0.31146925  0.65506239  0.13821723  1
  O2-  O403  1  0.30951822  0.66777922  0.47520739  1
  O2-  O404  1  0.31655584  0.65156310  0.81678201  1
  O2-  O405  1  0.40666309  0.94030933  0.13808603  1
  O2-  O406  1  0.33102451  0.92592752  0.48000210  1
  O2-  O407  1  0.34964541  0.91961370  0.80319717  1
  O2-  O408  1  0.57920471  0.14705920  0.14649011  1
  O2-  O409  1  0.59227748  0.18335297  0.47184039  1
  O2-  O410  1  0.61365302  0.18715908  0.82169272  1
  O2-  O411  1  0.58745069  0.41293397  0.14560114  1
  O2-  O412  1  0.58924782  0.42172535  0.47828838  1
  O2-  O413  1  0.58807856  0.43555333  0.84520852  1
  O2-  O414  1  0.56498387  0.65739892  0.12779332  1
  O2-  O415  1  0.60387758  0.67722006  0.50136535  1
  O2-  O416  1  0.57296524  0.65494681  0.80391170  1
  O2-  O417  1  0.56098391  0.81202909  0.13851576  1
  O2-  O418  1  0.57889867  0.91647837  0.46842070  1
  O2-  O419  1  0.58147779  0.91743772  0.81156199  1
  O2-  O420  1  0.84449197  0.16970609  0.14706044  1
  O2-  O421  1  0.80682348  0.19432030  0.45460881  1
  O2-  O422  1  0.82186851  0.17386294  0.80774604  1
  O2-  O423  1  0.84569700  0.41409662  0.14539203  1
  O2-  O424  1  0.83105440  0.41800827  0.47889960  1
  O2-  O425  1  0.85207043  0.39881131  0.79496780  1
  O2-  O426  1  0.89162373  0.69121133  0.12079907  1
  O2-  O427  1  0.84252543  0.66815014  0.47750768  1
  O2-  O428  1  0.81312957  0.65063616  0.82176002  1
  O2-  O429  1  0.81508902  0.92149928  0.15029090  1
  O2-  O430  1  0.84398388  0.93572446  0.47733205  1
  O2-  O431  1  0.82321605  0.91366573  0.81166967  1
  O2-  O432  1  0.17026530  0.08012855  0.19185336  1
  O2-  O433  1  0.16567270  0.08604477  0.52881230  1
  O2-  O434  1  0.12915639  0.06877423  0.84802591  1
  O2-  O435  1  0.16782967  0.32198607  0.18782632  1
  O2-  O436  1  0.17266493  0.33851356  0.52949841  1
  O2-  O437  1  0.14815678  0.34205105  0.82634803  1
  O2-  O438  1  0.15394080  0.57708446  0.19229621  1
  O2-  O439  1  0.15181433  0.57817827  0.51714153  1
  O2-  O440  1  0.15386759  0.59383203  0.86702854  1
  O2-  O441  1  0.15813378  0.83261466  0.18254348  1
  O2-  O442  1  0.16943562  0.84252913  0.52070903  1
  O2-  O443  1  0.18988328  0.87118496  0.86065224  1
  O2-  O444  1  0.41450200  0.08376887  0.20329310  1
  O2-  O445  1  0.40120010  0.07651761  0.53109934  1
  O2-  O446  1  0.44351666  0.09609334  0.79701539  1
  O2-  O447  1  0.41799923  0.33729405  0.17930669  1
  O2-  O448  1  0.42732955  0.33492203  0.52905226  1
  O2-  O449  1  0.42278397  0.33889090  0.86032645  1
  O2-  O450  1  0.39830962  0.57378395  0.16386305  1
  O2-  O451  1  0.44735461  0.59935895  0.56175612  1
  O2-  O452  1  0.40807487  0.57393830  0.84974429  1
  O2-  O453  1  0.41814041  0.81158197  0.18584221  1
  O2-  O454  1  0.41021772  0.83705750  0.51142894  1
  O2-  O455  1  0.41419299  0.82198767  0.84917909  1
  O2-  O456  1  0.67854358  0.08299806  0.19028093  1
  O2-  O457  1  0.65444513  0.08405834  0.51268104  1
  O2-  O458  1  0.66900722  0.07857451  0.86224642  1
  O2-  O459  1  0.66583793  0.31985273  0.13122171  1
  O2-  O460  1  0.66778184  0.33067789  0.50767965  1
  O2-  O461  1  0.66216153  0.35290679  0.87382315  1
  O2-  O462  1  0.58935204  0.55538128  0.20630653  1
  O2-  O463  1  0.67802871  0.57920600  0.52751923  1
  O2-  O464  1  0.65647789  0.59151066  0.87242028  1
  O2-  O465  1  0.68463774  0.90835873  0.21902809  1
  O2-  O466  1  0.67458460  0.85187379  0.51853545  1
  O2-  O467  1  0.65335178  0.82120617  0.84609323  1
  O2-  O468  1  0.91931163  0.08282491  0.18888311  1
  O2-  O469  1  0.92296860  0.09411843  0.52130892  1
  O2-  O470  1  0.89350624  0.07592625  0.85616487  1
  O2-  O471  1  0.92269759  0.33287537  0.19263623  1
  O2-  O472  1  0.91126472  0.33620815  0.52480528  1
  O2-  O473  1  0.87377178  0.34728458  0.83486112  1
  O2-  O474  1  0.91940919  0.58282815  0.18554414  1
  O2-  O475  1  0.92300926  0.58559068  0.52072484  1
  O2-  O476  1  0.87636798  0.53463835  0.85300144  1
  O2-  O477  1  0.93609333  0.89207727  0.20473169  1
  O2-  O478  1  0.91031904  0.83406564  0.51769939  1
  O2-  O479  1  0.89940459  0.82168461  0.85038639  1
  O2-  O480  1  0.16148198  0.07616560  0.31698288  1
  O2-  O481  1  0.16389041  0.08911786  0.65321344  1
  O2-  O482  1  0.15813667  0.07295899  0.97558833  1
  O2-  O483  1  0.14564615  0.30464400  0.30919142  1
  O2-  O484  1  0.16558946  0.34102533  0.65552340  1
  O2-  O485  1  0.18358907  0.33323869  0.98935340  1
  O2-  O486  1  0.16023006  0.57301421  0.31915603  1
  O2-  O487  1  0.15442589  0.58338969  0.63733147  1
  O2-  O488  1  0.16677839  0.58442118  0.98869992  1
  O2-  O489  1  0.16005533  0.83868950  0.30967579  1
  O2-  O490  1  0.17155811  0.84182546  0.64575571  1
  O2-  O491  1  0.17700370  0.83221212  0.97258888  1
  O2-  O492  1  0.41226440  0.08203761  0.32318318  1
  O2-  O493  1  0.41776450  0.08388257  0.64443467  1
  O2-  O494  1  0.43126687  0.08716633  0.99015095  1
  O2-  O495  1  0.44791158  0.38242781  0.30373269  1
  O2-  O496  1  0.43305589  0.33044209  0.65354650  1
  O2-  O497  1  0.42865530  0.33707610  0.98598802  1
  O2-  O498  1  0.37959536  0.56250637  0.28598999  1
  O2-  O499  1  0.41714698  0.56739832  0.67153444  1
  O2-  O500  1  0.42012837  0.59902811  0.97033080  1
  O2-  O501  1  0.40878086  0.83297981  0.30604168  1
  O2-  O502  1  0.41380090  0.84231505  0.63930608  1
  O2-  O503  1  0.41425531  0.82901620  0.97388834  1
  O2-  O504  1  0.66604469  0.08443239  0.31416333  1
  O2-  O505  1  0.66006209  0.08342661  0.63949636  1
  O2-  O506  1  0.67939459  0.05744316  0.98594198  1
  O2-  O507  1  0.67165071  0.33005728  0.30683114  1
  O2-  O508  1  0.67694389  0.32813452  0.65554973  1
  O2-  O509  1  0.68593302  0.32460441  1.00009861  1
  O2-  O510  1  0.67699454  0.60297653  0.32445755  1
  O2-  O511  1  0.67379409  0.56313697  0.65051630  1
  O2-  O512  1  0.66402437  0.60921426  0.98853381  1
  O2-  O513  1  0.70577637  0.85605053  0.33286582  1
  O2-  O514  1  0.66609133  0.83833054  0.64320454  1
  O2-  O515  1  0.58615920  0.75235232  0.95786766  1
  O2-  O516  1  0.89818594  0.03004782  0.32706295  1
  O2-  O517  1  0.91134210  0.08846634  0.64760839  1
  O2-  O518  1  0.97016992  0.11343055  1.00952364  1
  O2-  O519  1  0.90722908  0.29866471  0.30906246  1
  O2-  O520  1  0.88635145  0.34089191  0.64924856  1
  O2-  O521  1  0.96166589  0.34966519  0.97831175  1
  O2-  O522  1  0.90495794  0.59039150  0.30768884  1
  O2-  O523  1  0.92175407  0.57669348  0.64694636  1
  O2-  O524  1  0.91411459  0.56770038  0.97547582  1
  O2-  O525  1  0.92528639  0.84575836  0.31982687  1
  O2-  O526  1  0.84851348  0.79894458  0.63524731  1
  O2-  O527  1  0.89865318  0.81119458  0.97348603  1
  O2-  O528  1  0.17298935  0.20478889  0.03909296  1
  O2-  O529  1  0.06700113  0.14396440  0.35922110  1
  O2-  O530  1  0.07659547  0.17008801  0.68820134  1
  O2-  O531  1  0.11095750  0.42130021  0.03342484  1
  O2-  O532  1  0.06968382  0.39572081  0.35775520  1
  O2-  O533  1  0.04983456  0.41040170  0.64149778  1
  O2-  O534  1  0.08208817  0.66633609  0.01898432  1
  O2-  O535  1  0.03783915  0.70468645  0.37301349  1
  O2-  O536  1  0.09236994  0.67677840  0.68669893  1
  O2-  O537  1  0.03628800  0.93231654  0.03482874  1
  O2-  O538  1  0.08518224  0.91909625  0.36675517  1
  O2-  O539  1  0.08228367  0.91846826  0.69226191  1
  O2-  O540  1  0.37179543  0.17629481  0.03393536  1
  O2-  O541  1  0.32147545  0.14341633  0.37097380  1
  O2-  O542  1  0.33374643  0.16409535  0.68867992  1
  O2-  O543  1  0.34840135  0.42633528  0.01580819  1
  O2-  O544  1  0.32274351  0.41393446  0.33133711  1
  O2-  O545  1  0.34007523  0.40267267  0.69678296  1
  O2-  O546  1  0.33100695  0.67031759  0.01722030  1
  O2-  O547  1  0.32142673  0.67090352  0.34430551  1
  O2-  O548  1  0.28103890  0.57906034  0.70120105  1
  O2-  O549  1  0.33872443  0.91393434  0.02423876  1
  O2-  O550  1  0.32788342  0.91531485  0.35255230  1
  O2-  O551  1  0.33775790  0.92269774  0.68232443  1
  O2-  O552  1  0.59792906  0.15361914  -0.02485369  1
  O2-  O553  1  0.58183212  0.16599246  0.35384981  1
  O2-  O554  1  0.59429389  0.16894643  0.69724587  1
  O2-  O555  1  0.59469749  0.41368647  0.02612382  1
  O2-  O556  1  0.59793968  0.45658362  0.36095123  1
  O2-  O557  1  0.59946731  0.40080499  0.68672813  1
  O2-  O558  1  0.66199814  0.68011609  0.01968900  1
  O2-  O559  1  0.61688950  0.69863641  0.37545218  1
  O2-  O560  1  0.60250508  0.66153847  0.68237633  1
  O2-  O561  1  0.57482418  0.87704881  0.02229622  1
  O2-  O562  1  0.57250561  0.91335650  0.33196317  1
  O2-  O563  1  0.57928838  0.91908383  0.68674277  1
  O2-  O564  1  0.82520607  0.19963412  0.02748517  1
  O2-  O565  1  0.82552341  0.12679945  0.35467151  1
  O2-  O566  1  0.82218452  0.16745941  0.68315130  1
  O2-  O567  1  0.85333144  0.40052845  0.02477646  1
  O2-  O568  1  0.83540200  0.43537338  0.35080981  1
  O2-  O569  1  0.85411409  0.39607364  0.67497687  1
  O2-  O570  1  0.82529142  0.64737183  0.01008880  1
  O2-  O571  1  0.83583572  0.67540097  0.35136133  1
  O2-  O572  1  0.83238483  0.65113635  0.69424660  1
  O2-  O573  1  0.88706868  0.93747640  0.03694148  1
  O2-  O574  1  0.86195580  0.94438402  0.35751493  1
  O2-  O575  1  0.82678320  0.92075891  0.68942775  1
