# generated using pymatgen
data_H2O
_symmetry_space_group_name_H-M   'P 1'
_cell_length_a   17.99402944
_cell_length_b   17.99068390
_cell_length_c   21.99275860
_cell_angle_alpha   89.99384066
_cell_angle_beta   89.97412150
_cell_angle_gamma   120.00479008
_symmetry_Int_Tables_number   1
_chemical_formula_structural   H2O
_chemical_formula_sum   'H384 O192'
_cell_volume   6165.45876662
_cell_formula_units_Z   192
loop_
 _symmetry_equiv_pos_site_id
 _symmetry_equiv_pos_as_xyz
  1  'x, y, z'
loop_
 _atom_type_symbol
 _atom_type_oxidation_number
  H+  1.0
  O2-  -2.0
loop_
 _atom_site_type_symbol
 _atom_site_label
 _atom_site_symmetry_multiplicity
 _atom_site_fract_x
 _atom_site_fract_y
 _atom_site_fract_z
 _atom_site_occupancy
  H+  H0  1  0.71314420  0.12019163  0.83757492  1
  H+  H1  1  0.46884661  0.61018291  0.31686294  1
  H+  H2  1  0.78966030  0.13469776  0.50001199  1
  H+  H3  1  0.18176375  0.58550167  0.38755316  1
  H+  H4  1  0.63672715  0.77621917  0.66129291  1
  H+  H5  1  0.85833181  0.88941998  0.67210215  1
  H+  H6  1  0.10915375  0.84446048  0.64805126  1
  H+  H7  1  -0.02701652  0.86221761  -0.01906658  1
  H+  H8  1  0.09957278  -0.01949903  0.99961005  1
  H+  H9  1  -0.01744934  0.34854134  0.17154304  1
  H+  H10  1  0.42075975  0.82690797  0.90824218  1
  H+  H11  1  0.02569413  0.63845003  0.49916005  1
  H+  H12  1  0.49723066  0.78145646  0.60315684  1
  H+  H13  1  0.89009370  0.35815520  0.32082069  1
  H+  H14  1  0.38853525  0.75252036  0.99632317  1
  H+  H15  1  0.12294607  0.93741727  0.16609344  1
  H+  H16  1  0.58545926  0.08688779  0.47753803  1
  H+  H17  1  1.01530102  0.13295879  1.00666704  1
  H+  H18  1  0.39187196  0.29018924  0.51829466  1
  H+  H19  1  0.88282115  0.11276480  -0.00385155  1
  H+  H20  1  0.87542140  0.09849647  0.32168413  1
  H+  H21  1  0.82493177  0.38871403  0.70027445  1
  H+  H22  1  0.22792405  0.61848137  0.84033301  1
  H+  H23  1  0.47794239  0.60120887  0.99523991  1
  H+  H24  1  0.16257647  0.74158778  1.03278175  1
  H+  H25  1  0.47233224  0.11479312  0.82377935  1
  H+  H26  1  0.47774296  0.86643633  0.48928917  1
  H+  H27  1  0.03446719  0.36581013  0.68271374  1
  H+  H28  1  0.13167977  0.61449245  0.34416979  1
  H+  H29  1  0.99175543  0.57527215  1.00518796  1
  H+  H30  1  0.15059253  0.13677076  0.17947695  1
  H+  H31  1  0.43836179  0.07286248  0.97213188  1
  H+  H32  1  0.47892352  0.37657583  0.51204472  1
  H+  H33  1  0.88053463  0.11578369  0.65548061  1
  H+  H34  1  0.85930057  0.89156629  0.16482528  1
  H+  H35  1  0.38270807  0.61300768  0.66445602  1
  H+  H36  1  0.11178804  0.72697323  0.48808303  1
  H+  H37  1  0.34796925  0.97875165  0.85336329  1
  H+  H38  1  0.95609157  0.35966495  0.99012920  1
  H+  H39  1  0.63906155  0.27151094  0.32386963  1
  H+  H40  1  0.71898388  0.61079331  0.66806113  1
  H+  H41  1  0.58531421  0.92925212  1.04812598  1
  H+  H42  1  0.61432905  0.72757317  0.82774061  1
  H+  H43  1  0.85259042  0.87754432  0.82282389  1
  H+  H44  1  0.69175772  0.36301063  0.68837025  1
  H+  H45  1  0.25780710  0.91004654  0.93372100  1
  H+  H46  1  0.93198212  0.03919460  0.51291139  1
  H+  H47  1  0.37887826  0.15199377  0.17302464  1
  H+  H48  1  0.12975399  0.22957977  0.80434891  1
  H+  H49  1  0.13955021  0.61521079  0.50022419  1
  H+  H50  1  0.84107462  0.77525537  0.20832754  1
  H+  H51  1  0.60567451  0.48337202  0.16726618  1
  H+  H52  1  0.63327803  0.85435201  0.50736876  1
  H+  H53  1  0.87272028  0.27014495  0.98843256  1
  H+  H54  1  0.69485441  0.16705213  0.52375242  1
  H+  H55  1  0.34482032  0.11992634  0.01043116  1
  H+  H56  1  0.44227251  0.81878298  0.57562432  1
  H+  H57  1  0.12354747  0.73317251  0.01434450  1
  H+  H58  1  0.24431302  0.14509107  0.18607847  1
  H+  H59  1  0.94492059  0.40107121  0.66990841  1
  H+  H60  1  0.64494446  0.33583654  0.88283117  1
  H+  H61  1  0.64158210  0.77103330  0.32097577  1
  H+  H62  1  0.14269920  0.36406115  0.83149730  1
  H+  H63  1  0.86996075  0.21770190  0.15700095  1
  H+  H64  1  0.60696174  0.18379779  0.11531568  1
  H+  H65  1  0.65380025  0.12290206  0.99853495  1
  H+  H66  1  0.91380869  0.07576947  0.22893415  1
  H+  H67  1  0.86251899  0.72335302  -0.01965188  1
  H+  H68  1  0.33814152  0.67393823  0.42500174  1
  H+  H69  1  0.83432799  0.37480324  -0.00971618  1
  H+  H70  1  0.37087522  0.64378528  0.32884487  1
  H+  H71  1  0.61524474  0.40035687  0.16306724  1
  H+  H72  1  1.01986114  0.90888494  0.33901326  1
  H+  H73  1  0.36644672  0.01306900  0.17800152  1
  H+  H74  1  0.88285561  0.53323393  0.67692608  1
  H+  H75  1  0.86515291  0.86116854  0.50388495  1
  H+  H76  1  0.72901200  0.36193492  0.32333234  1
  H+  H77  1  0.25989099  0.88895444  0.84574829  1
  H+  H78  1  0.62327142  0.23791449  0.17464228  1
  H+  H79  1  0.12265535  0.38646220  0.15942477  1
  H+  H80  1  0.20914406  0.10382437  0.99175707  1
  H+  H81  1  0.32990249  0.40929361  0.09731147  1
  H+  H82  1  0.63651169  0.85944824  0.83890328  1
  H+  H83  1  0.61599412  0.35564118  -0.01075599  1
  H+  H84  1  0.14655977  0.11387191  0.82776762  1
  H+  H85  1  0.59953513  0.25564684  0.52382860  1
  H+  H86  1  0.23410278  0.85336225  0.33322939  1
  H+  H87  1  0.52532889  0.39378024  1.00133111  1
  H+  H88  1  0.52457833  0.87586978  0.83232963  1
  H+  H89  1  0.60366479  0.71850895  0.50411088  1
  H+  H90  1  0.70560754  0.60421742  0.21433303  1
  H+  H91  1  0.77652140  0.46822943  0.58798102  1
  H+  H92  1  0.11447176  0.57840681  0.99912761  1
  H+  H93  1  0.64880999  0.11919230  0.17707090  1
  H+  H94  1  0.60608342  0.14166616  0.82588449  1
  H+  H95  1  0.32761827  0.92034530  0.55621677  1
  H+  H96  1  0.37715664  0.71434935  0.65072239  1
  H+  H97  1  0.77292022  0.43761019  0.49083585  1
  H+  H98  1  0.96914632  0.84210198  0.15010959  1
  H+  H99  1  0.48274971  0.61539786  0.67211751  1
  H+  H100  1  0.36943793  0.39326081  0.33251156  1
  H+  H101  1  0.36371611  0.47971265  0.33171137  1
  H+  H102  1  0.87820281  0.13252959  0.49540539  1
  H+  H103  1  1.03443492  0.38638338  0.50107073  1
  H+  H104  1  0.64256919  0.86034938  0.32522143  1
  H+  H105  1  0.01056196  0.89146695  0.81974003  1
  H+  H106  1  0.17488186  0.34495621  0.58584811  1
  H+  H107  1  0.34080589  0.18384976  0.39614915  1
  H+  H108  1  0.85619803  0.73202478  0.66837417  1
  H+  H109  1  0.38673717  0.52665256  0.83989916  1
  H+  H110  1  0.36069972  0.63989435  0.48751491  1
  H+  H111  1  0.36596139  0.39054590  0.82335712  1
  H+  H112  1  0.66723273  0.34532052  0.23939318  1
  H+  H113  1  0.40456248  0.87876143  0.33502092  1
  H+  H114  1  0.50107628  0.90193721  0.14476777  1
  H+  H115  1  0.84647583  0.48089573  0.79736468  1
  H+  H116  1  0.16132751  0.58518029  0.89654180  1
  H+  H117  1  0.36571221  0.38966380  0.15847715  1
  H+  H118  1  0.47978353  0.37502146  0.17039081  1
  H+  H119  1  0.53722756  0.88858551  0.66816815  1
  H+  H120  1  0.39473259  0.35890010  0.97945278  1
  H+  H121  1  0.86423680  0.97442428  0.00541142  1
  H+  H122  1  0.83583760  0.46326067  -0.01678570  1
  H+  H123  1  0.72457171  0.85861758  0.16708286  1
  H+  H124  1  0.37157709  0.39069759  0.67839958  1
  H+  H125  1  0.11761304  0.47353347  0.15787389  1
  H+  H126  1  0.31692219  0.84233091  0.06902362  1
  H+  H127  1  0.38696592  0.86698109  0.85891453  1
  H+  H128  1  0.10948958  0.46975161  0.34405533  1
  H+  H129  1  0.14074149  0.97094847  0.67713875  1
  H+  H130  1  0.86496141  0.98178556  0.15651728  1
  H+  H131  1  0.06914476  0.38947818  0.07084739  1
  H+  H132  1  0.89687973  0.62899082  0.51932771  1
  H+  H133  1  0.61359175  0.23283294  0.01165057  1
  H+  H134  1  0.26817445  0.37115417  1.00065256  1
  H+  H135  1  0.59580672  0.98217673  0.14341714  1
  H+  H136  1  0.40010724  0.78705136  0.32941224  1
  H+  H137  1  0.39212928  0.28283220  0.32188211  1
  H+  H138  1  0.27428993  0.38660705  0.82455266  1
  H+  H139  1  0.99974061  0.12299985  0.80128024  1
  H+  H140  1  0.62675896  0.89692623  0.67448886  1
  H+  H141  1  0.72010509  0.84703952  0.50582890  1
  H+  H142  1  0.38352528  0.03819711  0.64604294  1
  H+  H143  1  0.46775293  0.37380120  0.80355795  1
  H+  H144  1  0.27126656  0.13599962  0.81633273  1
  H+  H145  1  0.14391407  0.36482746  0.32416582  1
  H+  H146  1  0.76848604  0.88771227  0.67224289  1
  H+  H147  1  0.60379715  0.22344586  0.67288057  1
  H+  H148  1  0.37645106  0.15132562  0.66843172  1
  H+  H149  1  1.01178627  0.30021246  1.04130934  1
  H+  H150  1  0.73427812  0.85918371  0.99098866  1
  H+  H151  1  0.89728404  0.61422965  0.16337479  1
  H+  H152  1  0.63202026  0.90144213  0.99752580  1
  H+  H153  1  0.14067429  0.16117586  0.50421523  1
  H+  H154  1  0.77948627  0.63534992  0.50227239  1
  H+  H155  1  0.84814419  0.22066549  0.82366659  1
  H+  H156  1  0.87994278  0.60970564  0.82423069  1
  H+  H157  1  0.27357360  0.61764556  1.00374436  1
  H+  H158  1  0.61383645  0.72900336  0.15712737  1
  H+  H159  1  0.27971645  0.14651518  0.33848362  1
  H+  H160  1  0.92133526  0.37696622  0.82998071  1
  H+  H161  1  0.91155111  0.72809892  0.11174005  1
  H+  H162  1  0.47491185  0.61567591  0.84074417  1
  H+  H163  1  0.09529002  0.71085199  0.80977584  1
  H+  H164  1  0.88436271  0.86228845  0.98714489  1
  H+  H165  1  0.23621705  0.37005888  0.32291314  1
  H+  H166  1  0.38377918  0.25064196  0.67261042  1
  H+  H167  1  0.52553517  0.39111114  0.33669380  1
  H+  H168  1  0.15114701  0.77377733  0.17865429  1
  H+  H169  1  0.23135492  0.36350062  0.17051731  1
  H+  H170  1  0.37683590  -0.00705433  0.33455572  1
  H+  H171  1  0.97700360  0.35469706  0.32704399  1
  H+  H172  1  0.39103756  0.51832192  0.67177337  1
  H+  H173  1  0.97932259  0.61346510  0.32325257  1
  H+  H174  1  0.85329236  0.23087375  0.67962458  1
  H+  H175  1  0.63705672  0.02547218  0.66157458  1
  H+  H176  1  0.72632045  0.37746860  0.18004195  1
  H+  H177  1  0.28186552  0.63030227  0.65701384  1
  H+  H178  1  0.70623928  0.36342223  0.82453018  1
  H+  H179  1  0.10851610  0.97766649  0.49563459  1
  H+  H180  1  0.87885592  0.65069291  0.34227266  1
  H+  H181  1  0.13282682  0.23908675  0.34232950  1
  H+  H182  1  0.72558272  0.61112449  0.97618700  1
  H+  H183  1  0.04860911  0.15365310  0.50563354  1
  H+  H184  1  0.86934737  0.47790272  0.32636438  1
  H+  H185  1  0.39602295  0.12180467  0.32542425  1
  H+  H186  1  0.11680575  0.86138558  0.82040554  1
  H+  H187  1  0.12566082  0.11425312  0.98768961  1
  H+  H188  1  0.28381494  0.15589810  0.49417053  1
  H+  H189  1  0.17181062  0.57748570  0.59016832  1
  H+  H190  1  0.48386261  0.17357910  0.96501159  1
  H+  H191  1  0.64197724  0.53161537  0.82177935  1
  H+  H192  1  0.17217741  0.33363192  0.23074015  1
  H+  H193  1  0.72918628  0.10972801  0.32600548  1
  H+  H194  1  0.47701841  0.61458287  0.16699834  1
  H+  H195  1  0.86110228  0.64548792  0.67387659  1
  H+  H196  1  0.35699959  0.64016753  0.83729130  1
  H+  H197  1  0.82041213  0.94829413  0.49078994  1
  H+  H198  1  0.79584447  0.49683902  0.43404531  1
  H+  H199  1  0.12073068  0.72644781  0.34008956  1
  H+  H200  1  0.10485920  0.97827204  0.82278045  1
  H+  H201  1  0.60971652  0.63841597  0.67708786  1
  H+  H202  1  0.21745115  0.86429607  0.49935329  1
  H+  H203  1  0.22945081  0.60470811  0.17068168  1
  H+  H204  1  0.11845894  0.90439382  -0.00056490  1
  H+  H205  1  0.04311622  0.39421364  0.84081562  1
  H+  H206  1  0.13406983  0.14818253  0.66138994  1
  H+  H207  1  0.12987421  0.26250908  -0.01576411  1
  H+  H208  1  0.65423610  0.03329406  0.98848525  1
  H+  H209  1  0.59874608  0.62852005  0.50144391  1
  H+  H210  1  0.61144917  0.63710589  0.82457647  1
  H+  H211  1  0.38187603  0.03383657  0.50862592  1
  H+  H212  1  0.88015186  0.77456582  0.83235607  1
  H+  H213  1  -0.03433013  0.60087066  0.82155279  1
  H+  H214  1  0.28515444  0.64928017  0.33288037  1
  H+  H215  1  0.35722346  0.45926991  0.00318489  1
  H+  H216  1  0.48092824  0.37338873  0.68475558  1
  H+  H217  1  0.12287626  0.64079718  0.65609680  1
  H+  H218  1  0.14247163  0.37512753  0.51525309  1
  H+  H219  1  -0.03110713  0.87002038  0.65293920  1
  H+  H220  1  0.11940014  0.47982634  0.49255743  1
  H+  H221  1  0.37268894  0.52946606  0.49903402  1
  H+  H222  1  0.37031433  0.40357872  0.49218031  1
  H+  H223  1  0.39209472  0.28337784  0.17363013  1
  H+  H224  1  0.59052674  0.37405360  0.48330684  1
  H+  H225  1  0.83777201  0.16849911  0.06406603  1
  H+  H226  1  0.88003771  1.02687110  0.65777478  1
  H+  H227  1  0.70787915  0.48365446  0.55560636  1
  H+  H228  1  0.70102041  0.35158216  0.98079459  1
  H+  H229  1  0.33864675  0.89439492  0.65781432  1
  H+  H230  1  0.16264437  -0.02567428  0.17944262  1
  H+  H231  1  0.47496602  0.12928850  0.18007569  1
  H+  H232  1  0.10287539  0.88842640  0.48310770  1
  H+  H233  1  0.35481063  0.62406123  0.16030663  1
  H+  H234  1  0.36157488  0.61425076  1.00609512  1
  H+  H235  1  0.96015607  0.86718734  0.50244516  1
  H+  H236  1  0.25187626  0.89050381  0.63844226  1
  H+  H237  1  0.47889693  0.12112794  0.65830354  1
  H+  H238  1  0.77737608  0.13028661  0.15497512  1
  H+  H239  1  0.86029669  0.73109829  0.50102086  1
  H+  H240  1  0.60602382  0.63670707  0.16138985  1
  H+  H241  1  0.14828520  0.28452292  0.51727239  1
  H+  H242  1  0.88614881  0.87035441  0.34101696  1
  H+  H243  1  0.89336825  0.54171497  0.50828913  1
  H+  H244  1  0.38934837  0.28225153  0.82548367  1
  H+  H245  1  0.88104229  0.60325085  0.96807502  1
  H+  H246  1  0.38472541  0.89112701  0.18930386  1
  H+  H247  1  0.59700951  0.22655213  0.81625454  1
  H+  H248  1  0.36174903  0.13828304  0.81252076  1
  H+  H249  1  0.90057958  0.33190641  0.89613404  1
  H+  H250  1  -0.11057198  0.10969311  0.16817823  1
  H+  H251  1  0.30117960  0.89855129  0.02180917  1
  H+  H252  1  0.14323273  0.52217625  0.65214066  1
  H+  H253  1  0.76785312  0.13998889  0.67295078  1
  H+  H254  1  0.15309606  0.36932272  0.66735987  1
  H+  H255  1  0.87516373  1.01034704  0.32446133  1
  H+  H256  1  0.38923611  0.52224032  0.16656470  1
  H+  H257  1  0.61828056  -0.02480422  0.48751201  1
  H+  H258  1  0.02568420  0.13882258  0.15838195  1
  H+  H259  1  0.61607495  0.63604938  0.00168687  1
  H+  H260  1  0.24296588  0.37054344  0.66140359  1
  H+  H261  1  0.18861885  0.83343066  0.97378777  1
  H+  H262  1  0.14543114  0.12876692  0.33451839  1
  H+  H263  1  0.90011691  0.49554901  0.13622144  1
  H+  H264  1  0.90400159  0.25810972  0.52184216  1
  H+  H265  1  0.82064969  0.90957627  0.76131480  1
  H+  H266  1  0.61312592  0.39902122  0.78640477  1
  H+  H267  1  0.23172411  0.61887538  0.49560602  1
  H+  H268  1  0.77211881  0.87632749  0.34261068  1
  H+  H269  1  0.86385746  0.22232478  0.33962671  1
  H+  H270  1  0.63910681  0.10719322  0.31865256  1
  H+  H271  1  0.41049303  0.84956346  1.00479209  1
  H+  H272  1  0.98610186  0.61711473  0.17472751  1
  H+  H273  1  0.83998383  0.65899926  0.03581101  1
  H+  H274  1  0.62943995  0.50796075  0.51133920  1
  H+  H275  1  0.08568816  0.04796444  0.65836352  1
  H+  H276  1  0.77221925  0.64156718  0.82388663  1
  H+  H277  1  0.54207054  0.14006124  0.03796043  1
  H+  H278  1  0.62605564  0.97592421  0.33763353  1
  H+  H279  1  0.52662128  0.13779120  0.32354924  1
  H+  H280  1  0.11651474  0.62922178  0.16385032  1
  H+  H281  1  0.81136679  0.67109789  0.12777602  1
  H+  H282  1  0.77926693  0.14149165  0.00280777  1
  H+  H283  1  0.89179860  0.13761799  0.84152195  1
  H+  H284  1  0.63822484  0.25142137  0.51687050  1
  H+  H285  1  0.75244268  0.87338457  0.82740247  1
  H+  H286  1  0.63604282  0.52355084  0.98612023  1
  H+  H287  1  0.90922201  0.83663182  0.89131727  1
  H+  H288  1  0.57829424  0.14584931  0.38269676  1
  H+  H289  1  0.85600012  0.43700617  0.07729621  1
  H+  H290  1  0.19038238  0.66357971  0.97491501  1
  H+  H291  1  0.58273832  0.42655626  0.06339985  1
  H+  H292  1  0.66389563  0.10256499  0.90014027  1
  H+  H293  1  0.33869766  0.17680840  0.11276353  1
  H+  H294  1  0.67484825  0.09588123  0.57272629  1
  H+  H295  1  0.41599540  0.10503528  0.88191946  1
  H+  H296  1  0.92294711  0.31478452  0.23040706  1
  H+  H297  1  0.36416310  0.89090360  0.50291789  1
  H+  H298  1  0.65699994  0.55944332  0.57718725  1
  H+  H299  1  0.63052448  0.52677347  0.68289332  1
  H+  H300  1  0.83830598  0.91521545  0.06501641  1
  H+  H301  1  0.37150306  0.15628424  0.49028647  1
  H+  H302  1  0.42572455  0.85544150  0.23632567  1
  H+  H303  1  0.12690130  0.76405008  0.64391926  1
  H+  H304  1  0.08316578  0.40619628  0.39958672  1
  H+  H305  1  0.33687151  0.41896800  0.73702821  1
  H+  H306  1  0.82981407  0.67412315  0.76376415  1
  H+  H307  1  0.17417835  0.82205376  0.27442137  1
  H+  H308  1  0.12531787  0.48917308  0.83160133  1
  H+  H309  1  0.46033486  0.61571667  0.50751399  1
  H+  H310  1  0.07638233  0.66342918  0.39839479  1
  H+  H311  1  0.90681951  0.83804981  0.59490728  1
  H+  H312  1  0.91667092  0.58399653  0.61254725  1
  H+  H313  1  0.27404600  0.05989140  0.05686522  1
  H+  H314  1  0.08359816  0.94108731  0.39849236  1
  H+  H315  1  0.27075009  0.84475329  0.74720553  1
  H+  H316  1  0.81977433  0.89965568  0.40845629  1
  H+  H317  1  0.57499416  0.41658385  0.42406219  1
  H+  H318  1  0.22173775  0.05101164  0.55819363  1
  H+  H319  1  0.23078812  0.86977814  0.18569110  1
  H+  H320  1  0.33724442  0.17584657  0.73112551  1
  H+  H321  1  0.07406072  0.93238964  0.73144844  1
  H+  H322  1  0.35265736  0.94416842  0.39783822  1
  H+  H323  1  0.91907536  0.58710885  0.26415517  1
  H+  H324  1  0.90167531  0.78748626  0.33857903  1
  H+  H325  1  0.66927355  0.82671413  0.22777179  1
  H+  H326  1  0.90895065  0.84262962  0.25339645  1
  H+  H327  1  0.43680270  0.34732831  0.91967112  1
  H+  H328  1  0.93134499  0.09060908  0.57282466  1
  H+  H329  1  0.64267470  0.77221317  0.98990589  1
  H+  H330  1  0.97588153  0.28510385  0.57011403  1
  H+  H331  1  0.10217455  0.62744538  0.82299190  1
  H+  H332  1  0.31300116  0.84571933  0.75008066  1
  H+  H333  1  0.98095857  0.19169142  0.87393692  1
  H+  H334  1  0.82425300  0.15895294  0.76646308  1
  H+  H335  1  0.16183325  0.32281825  0.88916749  1
  H+  H336  1  0.34265956  0.42510997  0.42860245  1
  H+  H337  1  0.01734666  0.86060486  0.08516741  1
  H+  H338  1  0.66005219  0.57627041  0.88922867  1
  H+  H339  1  0.83629698  0.42004904  0.38489912  1
  H+  H340  1  0.57423687  0.16026290  0.72991913  1
  H+  H341  1  0.12718726  0.34800962  0.98623863  1
  H+  H342  1  0.67511297  0.07558086  0.22851884  1
  H+  H343  1  0.42323624  0.34440450  0.26287748  1
  H+  H344  1  0.41907455  0.57316303  0.93558955  1
  H+  H345  1  0.14802241  0.83027635  0.55159008  1
  H+  H346  1  0.16172261  0.08722619  0.57786323  1
  H+  H347  1  0.90649171  0.56523561  0.91174249  1
  H+  H348  1  0.83747219  0.16385043  0.39939515  1
  H+  H349  1  0.58757309  0.66601334  0.06262434  1
  H+  H350  1  0.91531028  0.08764722  0.93644201  1
  H+  H351  1  0.35698516  0.72885272  0.83795749  1
  H+  H352  1  0.11191992  0.18762342  0.40523726  1
  H+  H353  1  0.16491282  0.08343755  0.89245864  1
  H+  H354  1  0.08062894  0.16738310  0.06397679  1
  H+  H355  1  0.65758326  0.35449985  0.62250271  1
  H+  H356  1  0.67610731  0.83376092  0.89881859  1
  H+  H357  1  0.41858197  0.09615001  0.25929754  1
  H+  H358  1  0.66632376  0.83269175  0.59952046  1
  H+  H359  1  0.17288567  0.09992642  0.26976688  1
  H+  H360  1  0.61204259  0.38657262  0.34088574  1
  H+  H361  1  0.03438480  0.63989004  0.66943703  1
  H+  H362  1  0.53531501  0.88916307  0.34098605  1
  H+  H363  1  0.08945889  0.41801113  0.74001504  1
  H+  H364  1  0.58291587  0.67157106  0.73657728  1
  H+  H365  1  0.58252498  0.90575097  0.77222404  1
  H+  H366  1  0.32142032  0.64545250  0.09965504  1
  H+  H367  1  0.63151814  0.11284118  0.66104216  1
  H+  H368  1  0.17019426  0.57584616  0.23152215  1
  H+  H369  1  0.12317571  0.81177366  0.87632637  1
  H+  H370  1  0.59363124  0.91828957  0.42705376  1
  H+  H371  1  0.42507765  0.10511128  0.55946407  1
  H+  H372  1  0.07488351  0.64152894  0.10448717  1
  H+  H373  1  0.85035110  0.67772814  0.40323164  1
  H+  H374  1  0.50453645  0.09947974  0.47442139  1
  H+  H375  1  -0.01526327  0.51988809  0.06266659  1
  H+  H376  1  0.90543795  0.34050334  0.61328515  1
  H+  H377  1  0.11324884  0.23062478  0.15676064  1
  H+  H378  1  0.41118334  0.58219660  0.25725020  1
  H+  H379  1  0.43947233  0.34925464  0.61253601  1
  H+  H380  1  0.34453494  0.94563432  0.12222099  1
  H+  H381  1  0.12142738  0.01386257  0.33452475  1
  H+  H382  1  0.38657286  0.77630169  0.49016316  1
  H+  H383  1  0.62419078  0.57761071  0.25348849  1
  O2-  O384  1  0.08496380  0.17058909  0.14045830  1
  O2-  O385  1  0.10967755  0.18995101  0.49096185  1
  O2-  O386  1  0.12305434  0.17608026  0.78483382  1
  O2-  O387  1  0.08963387  0.41324448  0.14242663  1
  O2-  O388  1  0.09202596  0.41686801  0.48187071  1
  O2-  O389  1  0.09676066  0.42547722  0.81789375  1
  O2-  O390  1  0.08661259  0.65949884  0.14756075  1
  O2-  O391  1  0.08279016  0.66413797  0.47870886  1
  O2-  O392  1  0.06453061  0.64800463  0.80577242  1
  O2-  O393  1  -0.01059627  0.81816563  0.11788397  1
  O2-  O394  1  0.07501654  0.92323544  0.47315014  1
  O2-  O395  1  0.07085995  0.91988671  0.80340098  1
  O2-  O396  1  0.34650225  0.18620860  0.15679559  1
  O2-  O397  1  0.34268424  0.18956717  0.47829299  1
  O2-  O398  1  0.33046259  0.16872394  0.79842985  1
  O2-  O399  1  0.33282680  0.41741056  0.14237711  1
  O2-  O400  1  0.33924032  0.42963952  0.47340855  1
  O2-  O401  1  0.33468814  0.42152397  0.80988621  1
  O2-  O402  1  0.31688912  0.64536352  0.14470620  1
  O2-  O403  1  0.33188812  0.67387245  0.47014503  1
  O2-  O404  1  0.32366848  0.66774752  0.82461263  1
  O2-  O405  1  0.33392742  0.94813976  0.16581378  1
  O2-  O406  1  0.33081608  0.92120040  0.51091244  1
  O2-  O407  1  0.31309457  0.91956092  0.87033865  1
  O2-  O408  1  0.59813341  0.17802614  0.15985750  1
  O2-  O409  1  0.54352001  0.08776386  0.44961859  1
  O2-  O410  1  0.57036500  0.16485767  0.80447381  1
  O2-  O411  1  0.58427926  0.42824989  0.14517755  1
  O2-  O412  1  0.57213020  0.41470164  0.47180322  1
  O2-  O413  1  0.61736401  0.44972056  0.76516139  1
  O2-  O414  1  0.58045190  0.66714831  0.14066004  1
  O2-  O415  1  0.56718036  0.65754642  0.49089190  1
  O2-  O416  1  0.58080849  0.66807539  0.81099378  1
  O2-  O417  1  0.55236468  0.93537000  0.11819675  1
  O2-  O418  1  0.58622275  0.91588857  0.47327917  1
  O2-  O419  1  0.58330435  0.89603689  0.81633079  1
  O2-  O420  1  0.83728819  0.15793019  0.13808933  1
  O2-  O421  1  0.84918292  0.16537120  0.48367131  1
  O2-  O422  1  0.82301267  0.15922014  0.81188489  1
  O2-  O423  1  0.90470599  0.45733244  0.10586505  1
  O2-  O424  1  0.81453125  0.46220726  0.45649850  1
  O2-  O425  1  0.80996751  0.41886347  0.78182093  1
  O2-  O426  1  0.85925500  0.66655335  0.11164345  1
  O2-  O427  1  0.83987044  0.66985745  0.48865404  1
  O2-  O428  1  0.83336182  0.67327051  0.80922391  1
  O2-  O429  1  0.83406177  0.92047846  0.14111566  1
  O2-  O430  1  0.80812323  0.89113202  0.47905162  1
  O2-  O431  1  0.81838969  0.90572466  0.80807723  1
  O2-  O432  1  0.18506883  0.11795162  0.20335160  1
  O2-  O433  1  0.18722313  0.07388273  0.54101703  1
  O2-  O434  1  0.16965721  0.07901587  0.84734090  1
  O2-  O435  1  0.17024400  0.33310916  0.18509518  1
  O2-  O436  1  0.16950157  0.34363215  0.53565515  1
  O2-  O437  1  0.16526366  0.32542516  0.84356848  1
  O2-  O438  1  0.16632279  0.57549627  0.18735586  1
  O2-  O439  1  0.17063816  0.58373208  0.51123983  1
  O2-  O440  1  0.16333078  0.58309139  0.85137519  1
  O2-  O441  1  0.17271971  0.82772806  0.20136309  1
  O2-  O442  1  0.15416591  0.83355255  0.50621810  1
  O2-  O443  1  0.14421327  0.82741395  0.83479705  1
  O2-  O444  1  0.41576310  0.10571816  0.19464970  1
  O2-  O445  1  0.41677693  0.09732920  0.51461763  1
  O2-  O446  1  0.41018480  0.08810580  0.83869565  1
  O2-  O447  1  0.42009304  0.34620708  0.18690694  1
  O2-  O448  1  0.42462678  0.34867280  0.53627481  1
  O2-  O449  1  0.42195408  0.34356798  0.83683049  1
  O2-  O450  1  0.41707922  0.58181428  0.18359061  1
  O2-  O451  1  0.39747633  0.58959591  0.51497835  1
  O2-  O452  1  0.41589783  0.58516989  0.85827647  1
  O2-  O453  1  0.41311196  0.85601229  0.19273209  1
  O2-  O454  1  0.41859336  0.83680327  0.50720093  1
  O2-  O455  1  0.41821724  0.83531153  0.86261202  1
  O2-  O456  1  0.67605335  0.08328982  0.18359624  1
  O2-  O457  1  0.68472634  0.10858256  0.52725657  1
  O2-  O458  1  0.65673816  0.10479846  0.85525718  1
  O2-  O459  1  0.66657102  0.34872530  0.19305565  1
  O2-  O460  1  0.72565548  0.43929746  0.56224392  1
  O2-  O461  1  0.64547664  0.33475466  0.83773648  1
  O2-  O462  1  0.64316316  0.57755753  0.21059974  1
  O2-  O463  1  0.67635933  0.55573044  0.53537240  1
  O2-  O464  1  0.66662869  0.58706631  0.84413971  1
  O2-  O465  1  0.66559137  0.82161077  0.18282215  1
  O2-  O466  1  0.65938125  0.82299735  0.52650476  1
  O2-  O467  1  0.67404009  0.83297153  0.85248106  1
  O2-  O468  1  0.92104707  0.08039933  0.18313029  1
  O2-  O469  1  0.94598060  0.09654043  0.52626879  1
  O2-  O470  1  0.94119030  0.13318477  0.86064118  1
  O2-  O471  1  0.92292548  0.31030044  0.18555050  1
  O2-  O472  1  0.94465588  0.30830843  0.54830144  1
  O2-  O473  1  0.90603745  0.32415441  0.85107633  1
  O2-  O474  1  0.92336989  0.58554173  0.18622100  1
  O2-  O475  1  0.92369230  0.59416622  0.53367356  1
  O2-  O476  1  0.90205414  0.56972381  0.83291762  1
  O2-  O477  1  0.89252515  0.83160033  0.20827725  1
  O2-  O478  1  0.90239013  0.83517808  0.52088574  1
  O2-  O479  1  0.90786192  0.83682222  0.84532176  1
  O2-  O480  1  0.16953762  0.09142630  0.31688698  1
  O2-  O481  1  0.11030428  0.09982782  0.63292638  1
  O2-  O482  1  0.15308372  0.08160635  0.97063710  1
  O2-  O483  1  0.17506198  0.33653979  0.30775636  1
  O2-  O484  1  0.18174398  0.34166200  0.64613999  1
  O2-  O485  1  0.15974236  0.32255661  0.96746762  1
  O2-  O486  1  0.16617696  0.58245273  0.34471899  1
  O2-  O487  1  0.17460595  0.58098661  0.63564488  1
  O2-  O488  1  0.16979609  0.60208619  0.97510656  1
  O2-  O489  1  0.17384401  0.81790033  0.32045302  1
  O2-  O490  1  0.14716782  0.82679400  0.62901503  1
  O2-  O491  1  0.22234843  0.89611295  0.97229168  1
  O2-  O492  1  0.42275831  0.09024147  0.30747615  1
  O2-  O493  1  0.41939518  0.10133283  0.64045930  1
  O2-  O494  1  0.42841900  0.12053737  0.96302943  1
  O2-  O495  1  0.42351583  0.34422269  0.30865684  1
  O2-  O496  1  0.42853342  0.33875343  0.65755388  1
  O2-  O497  1  0.43246229  0.33741732  0.96415343  1
  O2-  O498  1  0.40845099  0.58311512  0.30329059  1
  O2-  O499  1  0.42056762  0.58062794  0.65748302  1
  O2-  O500  1  0.41709401  0.56680018  0.98097668  1
  O2-  O501  1  0.43559916  0.84939653  0.31998426  1
  O2-  O502  1  0.45992442  0.80371148  0.61555829  1
  O2-  O503  1  0.42082894  0.81123348  0.97895973  1
  O2-  O504  1  0.67001243  0.07544564  0.30870548  1
  O2-  O505  1  0.66562270  0.08620427  0.64571007  1
  O2-  O506  1  0.68360242  0.09783411  0.97622296  1
  O2-  O507  1  0.66722295  0.33374291  0.31139412  1
  O2-  O508  1  0.64114789  0.32743663  0.66282124  1
  O2-  O509  1  0.63762764  0.31889126  0.97063082  1
  O2-  O510  1  0.61297348  0.60187782  0.32673778  1
  O2-  O511  1  0.65682930  0.57723224  0.65615221  1
  O2-  O512  1  0.66286914  0.58160833  0.96623060  1
  O2-  O513  1  0.67371690  0.83172174  0.30829298  1
  O2-  O514  1  0.66765498  0.83643040  0.64580342  1
  O2-  O515  1  0.67578706  0.83134186  0.97238132  1
  O2-  O516  1  0.90065592  0.06616176  0.30303251  1
  O2-  O517  1  0.90800134  0.08438386  0.63839520  1
  O2-  O518  1  0.91174045  0.08023455  0.98126300  1
  O2-  O519  1  0.91721068  0.32297070  0.31106758  1
  O2-  O520  1  0.89476391  0.34765964  0.65682527  1
  O2-  O521  1  0.89789163  0.33052474  0.97199445  1
  O2-  O522  1  0.91790591  0.58333364  0.30968655  1
  O2-  O523  1  0.91643467  0.59035250  0.65773589  1
  O2-  O524  1  0.90402878  0.56464103  0.95715909  1
  O2-  O525  1  0.92522532  0.84860733  0.32346278  1
  O2-  O526  1  0.90806180  0.83726544  0.64117625  1
  O2-  O527  1  0.91235536  0.83260749  0.96616049  1
  O2-  O528  1  0.07766962  0.16462524  0.01807750  1
  O2-  O529  1  0.10867003  0.18070851  0.36084201  1
  O2-  O530  1  0.03354915  0.12749423  0.76392273  1
  O2-  O531  1  0.04833674  0.36030859  0.02978064  1
  O2-  O532  1  0.08191487  0.40755163  0.35445442  1
  O2-  O533  1  0.09037367  0.41371153  0.69430186  1
  O2-  O534  1  0.02849480  0.56702707  0.03496656  1
  O2-  O535  1  0.08144882  0.66244858  0.35333430  1
  O2-  O536  1  0.09734961  0.67673196  0.66701567  1
  O2-  O537  1  0.07476307  0.91870844  0.01207009  1
  O2-  O538  1  0.08292096  0.94494837  0.35279861  1
  O2-  O539  1  0.07922828  0.93904299  0.68523044  1
  O2-  O540  1  0.29676156  0.11458322  0.03552401  1
  O2-  O541  1  0.34105190  0.17948260  0.35117456  1
  O2-  O542  1  0.34676492  0.18370784  0.68406978  1
  O2-  O543  1  0.32748150  0.39817829  0.01709190  1
  O2-  O544  1  0.33567538  0.41998700  0.34811501  1
  O2-  O545  1  0.33981222  0.42063145  0.69060057  1
  O2-  O546  1  0.33200699  0.64563781  0.02102962  1
  O2-  O547  1  0.34562821  0.67841627  0.34610980  1
  O2-  O548  1  0.34243003  0.65814151  0.67171545  1
  O2-  O549  1  0.34596901  0.89704478  0.04738419  1
  O2-  O550  1  0.35094606  0.93384479  0.35432859  1
  O2-  O551  1  0.31659256  0.92553393  0.63470379  1
  O2-  O552  1  0.60345348  0.17961199  0.03473941  1
  O2-  O553  1  0.58773578  0.16481753  0.33928182  1
  O2-  O554  1  0.57533871  0.16060651  0.68385036  1
  O2-  O555  1  0.58572096  0.42483062  0.01824248  1
  O2-  O556  1  0.58332869  0.41754696  0.35647580  1
  O2-  O557  1  0.52693944  0.42071434  0.74717325  1
  O2-  O558  1  0.58589077  0.66620153  0.01703856  1
  O2-  O559  1  0.58200183  0.65207638  0.33487297  1
  O2-  O560  1  0.58058550  0.67059513  0.69047231  1
  O2-  O561  1  0.61061008  0.94108235  0.00627671  1
  O2-  O562  1  0.59707740  0.91601555  0.35483297  1
  O2-  O563  1  0.59320125  0.92470618  0.68834517  1
  O2-  O564  1  0.84106153  0.17294701  0.01797186  1
  O2-  O565  1  0.83107916  0.16155430  0.35472718  1
  O2-  O566  1  0.82870644  0.16923344  0.68807244  1
  O2-  O567  1  0.80248063  0.40482632  0.00213123  1
  O2-  O568  1  0.83877800  0.41595562  0.34034382  1
  O2-  O569  1  0.80581884  0.42841437  0.71526671  1
  O2-  O570  1  0.83324349  0.66085484  -0.00921997  1
  O2-  O571  1  0.85673124  0.68720165  0.35887053  1
  O2-  O572  1  0.82655230  0.67262456  0.68576141  1
  O2-  O573  1  0.83833920  0.91349952  0.01918087  1
  O2-  O574  1  0.83002646  0.90658911  0.36213137  1
  O2-  O575  1  0.82813418  0.91846744  0.68996728  1
