# generated using pymatgen
data_H2O
_symmetry_space_group_name_H-M   'P 1'
_cell_length_a   17.99462086
_cell_length_b   17.99664829
_cell_length_c   22.00989402
_cell_angle_alpha   90.00252611
_cell_angle_beta   90.02042604
_cell_angle_gamma   119.99353292
_symmetry_Int_Tables_number   1
_chemical_formula_structural   H2O
_chemical_formula_sum   'H384 O192'
_cell_volume   6173.21167599
_cell_formula_units_Z   192
loop_
 _symmetry_equiv_pos_site_id
 _symmetry_equiv_pos_as_xyz
  1  'x, y, z'
loop_
 _atom_type_symbol
 _atom_type_oxidation_number
  H+  1.0
  O2-  -2.0
loop_
 _atom_site_type_symbol
 _atom_site_label
 _atom_site_symmetry_multiplicity
 _atom_site_fract_x
 _atom_site_fract_y
 _atom_site_fract_z
 _atom_site_occupancy
  H+  H0  1  0.13356187  0.16505989  0.16652733  1
  H+  H1  1  0.10569751  -0.02462819  0.82689265  1
  H+  H2  1  0.33624847  0.42242006  0.49301769  1
  H+  H3  1  0.89563365  0.12516175  0.51309209  1
  H+  H4  1  0.38458957  0.10629005  0.19462999  1
  H+  H5  1  0.83339355  0.37680586  0.35877367  1
  H+  H6  1  0.38870142  0.53312311  0.99615252  1
  H+  H7  1  0.72848738  0.12421293  0.50671201  1
  H+  H8  1  0.09407072  0.93045487  -0.05957335  1
  H+  H9  1  0.14581307  0.76010584  0.84622502  1
  H+  H10  1  0.65106370  0.55290091  0.98422514  1
  H+  H11  1  0.85968198  0.88331732  0.16450757  1
  H+  H12  1  0.82058956  0.62604601  0.15329832  1
  H+  H13  1  0.98791387  0.36829548  0.49908260  1
  H+  H14  1  0.85387607  0.93632620  0.43248380  1
  H+  H15  1  0.15150948  0.74554539  0.34537306  1
  H+  H16  1  0.61480642  -0.02903322  1.00113510  1
  H+  H17  1  0.02334856  0.38621356  0.00416469  1
  H+  H18  1  0.08019674  -0.07300025  0.42846418  1
  H+  H19  1  0.87984320  0.89248000  0.34189601  1
  H+  H20  1  0.50771673  0.11988464  0.35776032  1
  H+  H21  1  0.53062408  0.63976809  0.64539199  1
  H+  H22  1  0.48447495  0.35536380  0.50104871  1
  H+  H23  1  0.39068336  0.37277544  0.84311905  1
  H+  H24  1  0.55644481  0.67290245  0.50745653  1
  H+  H25  1  0.86729979  0.72408745  0.82589601  1
  H+  H26  1  0.30976356  0.39425072  0.16974806  1
  H+  H27  1  0.11708818  0.10576796  0.80521098  1
  H+  H28  1  0.46780405  0.09807551  0.19342699  1
  H+  H29  1  0.68228069  0.83186061  0.27187385  1
  H+  H30  1  0.19747848  0.39073216  0.14889944  1
  H+  H31  1  0.61164079  0.25552321  0.33387483  1
  H+  H32  1  0.48367951  0.09974467  0.49237494  1
  H+  H33  1  0.11651993  0.62799001  0.83762442  1
  H+  H34  1  0.12839837  0.72930459  0.16123344  1
  H+  H35  1  0.58429405  0.16591829  0.70273485  1
  H+  H36  1  0.38617309  0.23121748  0.17166870  1
  H+  H37  1  1.02490572  0.65052600  0.48925121  1
  H+  H38  1  0.70292661  0.35037099  0.17630779  1
  H+  H39  1  0.89891680  0.57428310  0.19986849  1
  H+  H40  1  0.64475547  0.36989566  0.64726969  1
  H+  H41  1  0.10878979  0.89893813  0.16583187  1
  H+  H42  1  0.10664077  0.96734915  0.67196792  1
  H+  H43  1  0.12623379  0.61203184  0.50387501  1
  H+  H44  1  0.65621847  0.77196408  0.33047091  1
  H+  H45  1  0.59892850  0.88029584  0.16620367  1
  H+  H46  1  0.88155070  -0.00196684  0.49274392  1
  H+  H47  1  0.12506779  0.52292974  0.99712605  1
  H+  H48  1  0.86994707  0.23094661  0.49486491  1
  H+  H49  1  0.28826447  0.14151639  0.02406775  1
  H+  H50  1  0.37527271  0.40549448  0.00883347  1
  H+  H51  1  0.88246876  0.77696883  0.16892680  1
  H+  H52  1  0.34001741  0.06765369  0.66124372  1
  H+  H53  1  0.63005362  0.75264316  0.66089424  1
  H+  H54  1  0.90126025  0.97993934  0.83642889  1
  H+  H55  1  0.45718686  0.86657510  0.31804828  1
  H+  H56  1  0.37363214  0.77481484  0.32020566  1
  H+  H57  1  0.30820967  0.65441217  0.79839680  1
  H+  H58  1  0.85295243  0.21579902  0.83202132  1
  H+  H59  1  0.23310798  0.11062758  0.50422409  1
  H+  H60  1  0.62323989  0.39853529  0.47691096  1
  H+  H61  1  0.62705794  0.48499469  0.66551812  1
  H+  H62  1  0.27009218  0.62505304  0.15949135  1
  H+  H63  1  1.08986782  0.43551404  0.73401749  1
  H+  H64  1  0.73986760  0.61399639  0.83101430  1
  H+  H65  1  0.63844255  0.15945948  0.88244164  1
  H+  H66  1  0.86072023  1.01104370  -0.00777457  1
  H+  H67  1  0.64071953  0.76079736  0.49194604  1
  H+  H68  1  0.87122736  0.64221112  1.00211460  1
  H+  H69  1  0.25200924  0.12607845  0.34088948  1
  H+  H70  1  0.97622153  0.86690895  0.99022287  1
  H+  H71  1  0.16198418  0.28937589  0.16769121  1
  H+  H72  1  0.64655186  0.52576550  0.83430342  1
  H+  H73  1  0.63148010  0.85504939  0.66677591  1
  H+  H74  1  0.97974950  0.12576538  0.85260460  1
  H+  H75  1  0.60654224  0.12370529  0.16840077  1
  H+  H76  1  0.68614499  0.58614514  0.13639424  1
  H+  H77  1  0.39314479  0.86565141  0.83133748  1
  H+  H78  1  0.30770626  0.23292300  0.71658481  1
  H+  H79  1  -0.02845573  0.35959693  0.83939013  1
  H+  H80  1  0.54593618  0.81994929  0.03131388  1
  H+  H81  1  0.34253004  0.71716670  0.99915008  1
  H+  H82  1  0.86839548  0.10295168  -0.01251396  1
  H+  H83  1  0.85883837  0.97022195  0.67990736  1
  H+  H84  1  0.12611876  0.89716748  0.83138572  1
  H+  H85  1  0.14174997  0.61866630  0.32811429  1
  H+  H86  1  0.90477499  0.33856988  0.30532257  1
  H+  H87  1  0.65476817  0.63186220  0.50014032  1
  H+  H88  1  0.40243359  0.29508746  0.65298863  1
  H+  H89  1  0.38731100  0.61558039  0.17328730  1
  H+  H90  1  0.83467695  0.47663309  0.34847094  1
  H+  H91  1  0.35844461  0.11076307  0.84484755  1
  H+  H92  1  1.01473191  0.90005760  0.49388785  1
  H+  H93  1  0.79275792  0.40156637  0.48630033  1
  H+  H94  1  0.75092435  0.63541398  0.97908124  1
  H+  H95  1  0.10996219  0.63344855  0.01319416  1
  H+  H96  1  0.23984482  0.13656475  0.84395647  1
  H+  H97  1  0.70974304  0.05078970  0.99490591  1
  H+  H98  1  0.12855657  0.37150230  0.50828657  1
  H+  H99  1  0.38538342  0.85209766  0.65027311  1
  H+  H100  1  0.62124102  -0.00708720  0.48273601  1
  H+  H101  1  0.13433238  0.86351714  0.66836322  1
  H+  H102  1  0.73620046  0.61827801  0.65246078  1
  H+  H103  1  0.63034065  0.77304027  0.17293372  1
  H+  H104  1  0.89937415  0.89006050  0.50380422  1
  H+  H105  1  0.14237563  0.10831587  0.65989284  1
  H+  H106  1  0.51659523  0.64498500  0.15849530  1
  H+  H107  1  0.22706014  0.82467587  0.88774442  1
  H+  H108  1  0.55069097  0.89004072  0.07828626  1
  H+  H109  1  0.53295642  0.63584067  0.83005233  1
  H+  H110  1  0.57131484  0.35550044  0.33055271  1
  H+  H111  1  0.08082848  0.36466635  0.16617136  1
  H+  H112  1  0.91340750  0.33296292  0.93441022  1
  H+  H113  1  0.87179458  0.25429177  0.14211210  1
  H+  H114  1  0.86110856  0.33587635  0.13325658  1
  H+  H115  1  0.67350525  0.88807795  0.97180494  1
  H+  H116  1  0.85923047  0.22007223  0.35510192  1
  H+  H117  1  0.86524984  0.23407909  0.01211296  1
  H+  H118  1  0.33984563  0.21739949  0.71338910  1
  H+  H119  1  0.62491934  0.64648654  0.82436401  1
  H+  H120  1  0.64172016  0.32413317  0.99350180  1
  H+  H121  1  0.60847593  0.97812333  0.81887047  1
  H+  H122  1  0.22902605  0.37239287  0.65605192  1
  H+  H123  1  0.73917736  0.88856390  0.49517154  1
  H+  H124  1  0.64954963  0.53987113  0.49222203  1
  H+  H125  1  0.22061667  0.35987535  0.82236693  1
  H+  H126  1  0.85759095  0.88177556  0.67871490  1
  H+  H127  1  0.37916682  0.28108436  0.85147607  1
  H+  H128  1  0.59311305  0.97983032  0.33171491  1
  H+  H129  1  0.89046437  0.52505836  0.51080662  1
  H+  H130  1  0.64605153  0.28214437  0.63891246  1
  H+  H131  1  0.11963498  0.48283382  0.49590480  1
  H+  H132  1  0.39843026  0.05274658  0.28953098  1
  H+  H133  1  0.21380343  0.07895432  0.65735100  1
  H+  H134  1  0.39804879  0.61926628  0.63483819  1
  H+  H135  1  0.75786240  0.63242733  0.33235464  1
  H+  H136  1  0.89540953  0.61671772  0.83858040  1
  H+  H137  1  0.89684193  0.79858465  0.50001891  1
  H+  H138  1  0.78541917  0.40246582  0.82564839  1
  H+  H139  1  0.97142310  0.11132686  0.32146291  1
  H+  H140  1  0.71800338  0.86156539  0.17323502  1
  H+  H141  1  0.13083743  0.51102057  0.17615946  1
  H+  H142  1  0.15070347  0.83540813  0.11266278  1
  H+  H143  1  0.78490862  0.65872887  0.48537117  1
  H+  H144  1  0.63668205  0.79141963  0.98657801  1
  H+  H145  1  0.25270827  0.62953349  1.00176923  1
  H+  H146  1  0.81914454  0.66712814  0.09037896  1
  H+  H147  1  0.88105600  0.40054779  0.49426732  1
  H+  H148  1  0.35966540  0.86725790  -0.02673243  1
  H+  H149  1  0.15373851  0.33433687  0.57516312  1
  H+  H150  1  0.11676621  0.15383691  0.33235045  1
  H+  H151  1  0.44609952  0.11780665  0.82520523  1
  H+  H152  1  0.02921314  0.88774280  0.33985197  1
  H+  H153  1  0.20292081  0.59776351  0.85966389  1
  H+  H154  1  0.57368823  0.18705366  0.52867584  1
  H+  H155  1  0.47698420  0.09612100  0.63807025  1
  H+  H156  1  0.50181381  0.67599203  0.00772119  1
  H+  H157  1  0.13457560  0.28968231  0.31439075  1
  H+  H158  1  0.35941555  0.49587790  0.82019864  1
  H+  H159  1  0.72209839  0.11067974  0.84748939  1
  H+  H160  1  0.62125078  0.52153405  0.31842282  1
  H+  H161  1  0.16116935  0.31316210  0.87843331  1
  H+  H162  1  0.42598173  0.56004638  0.47603289  1
  H+  H163  1  0.85010518  0.92095091  0.77914017  1
  H+  H164  1  0.45954050  0.85387677  0.99432880  1
  H+  H165  1  0.94569788  0.66840079  0.22419957  1
  H+  H166  1  0.46827309  0.08338995  -0.00769302  1
  H+  H167  1  0.13528920  0.76870238  0.67356594  1
  H+  H168  1  0.37027564  0.61087324  -0.01140937  1
  H+  H169  1  0.88432321  0.36027771  0.83833542  1
  H+  H170  1  0.14284889  0.60514855  0.17806366  1
  H+  H171  1  0.63831036  0.12829342  0.50601665  1
  H+  H172  1  0.22993445  0.86797625  0.15697841  1
  H+  H173  1  0.35582349  0.97655113  0.81644246  1
  H+  H174  1  0.91996245  0.30701094  0.65130486  1
  H+  H175  1  0.86644316  0.72887343  0.66940456  1
  H+  H176  1  0.35303561  -0.03528611  0.97562791  1
  H+  H177  1  0.89134921  0.77065530  0.32301154  1
  H+  H178  1  0.77727054  0.88098391  0.00873006  1
  H+  H179  1  0.02988513  0.14808510  0.49566469  1
  H+  H180  1  0.62782234  0.77491249  0.82603403  1
  H+  H181  1  0.34251830  0.43020198  0.71586427  1
  H+  H182  1  0.65059226  0.28550069  0.48775663  1
  H+  H183  1  0.10782919  0.48175892  0.34589302  1
  H+  H184  1  0.12187300  0.15779321  0.02012204  1
  H+  H185  1  0.24140264  0.62821885  0.65237421  1
  H+  H186  1  0.72564384  0.85744233  0.67494461  1
  H+  H187  1  0.37411283  0.13022221  0.34667848  1
  H+  H188  1  0.35437300  0.88271121  0.16294029  1
  H+  H189  1  0.00153834  0.37081514  0.14137449  1
  H+  H190  1  0.36337113  0.11733618  0.49018708  1
  H+  H191  1  0.62886590  0.61240273  0.32860647  1
  H+  H192  1  0.62542080  0.01264359  0.17991385  1
  H+  H193  1  0.32342559  0.65784825  0.09760012  1
  H+  H194  1  0.87682220  0.49102628  1.00948972  1
  H+  H195  1  0.17746512  0.10436007  0.38487224  1
  H+  H196  1  0.57286837  0.41769191  0.42519151  1
  H+  H197  1  0.97414510  0.86737492  0.17342187  1
  H+  H198  1  0.36105429  -0.03942834  0.65498732  1
  H+  H199  1  0.40493860  0.00258557  0.49655958  1
  H+  H200  1  0.26321004  0.63409533  0.48957567  1
  H+  H201  1  0.53687580  0.39893262  0.66417514  1
  H+  H202  1  0.86566418  0.44378787  0.16895261  1
  H+  H203  1  0.52828881  0.39219666  0.82031043  1
  H+  H204  1  0.86722231  0.09346001  0.17604966  1
  H+  H205  1  0.35397541  0.97022363  0.17231733  1
  H+  H206  1  0.35587722  0.86111452  0.46441445  1
  H+  H207  1  0.86768621  0.88691918  0.01200447  1
  H+  H208  1  0.63201651  0.12004975  0.33315146  1
  H+  H209  1  0.12001093  0.23027209  0.77515792  1
  H+  H210  1  1.09402413  0.67453097  0.39251420  1
  H+  H211  1  0.56019790  0.17438464  0.88911832  1
  H+  H212  1  0.25924622  0.87005742  0.98751561  1
  H+  H213  1  0.21789373  0.86690707  0.45010986  1
  H+  H214  1  0.40820886  0.62441750  0.83790684  1
  H+  H215  1  0.37924462  0.77028692  0.17075390  1
  H+  H216  1  0.12205645  0.23461861  0.68069994  1
  H+  H217  1  0.12167137  0.24428555  0.01248505  1
  H+  H218  1  0.03418064  0.64377878  0.83101391  1
  H+  H219  1  0.37312221  0.21124391  0.49738846  1
  H+  H220  1  0.35364573  0.00177404  0.35293540  1
  H+  H221  1  0.12655833  0.76152951  0.01076106  1
  H+  H222  1  0.38661027  0.33857131  0.50250509  1
  H+  H223  1  0.12915678  0.27392051  0.50955676  1
  H+  H224  1  0.59938816  0.50106709  0.15681857  1
  H+  H225  1  0.27308430  0.63635711  0.34044997  1
  H+  H226  1  0.48585820  0.87203321  0.83177396  1
  H+  H227  1  0.33758294  0.61294656  0.48494762  1
  H+  H228  1  0.14543565  0.37241043  -0.01448457  1
  H+  H229  1  0.04477810  0.64242340  0.17889477  1
  H+  H230  1  0.36414322  0.36528037  0.34014079  1
  H+  H231  1  0.88684373  0.01742677  0.32807639  1
  H+  H232  1  0.10346742  0.48039013  0.83394269  1
  H+  H233  1  0.89337797  0.85944471  0.84276422  1
  H+  H234  1  0.61558669  0.12821012  0.64997313  1
  H+  H235  1  0.59603482  0.08510455  0.01406893  1
  H+  H236  1  0.85390128  0.59491371  0.34381626  1
  H+  H237  1  0.60828032  0.88696512  0.81797022  1
  H+  H238  1  0.14819634  0.04445062  0.99482556  1
  H+  H239  1  0.62004069  0.25609609  0.17611223  1
  H+  H240  1  0.85715046  0.13056070  0.34339555  1
  H+  H241  1  0.87135011  0.73291951  1.00310914  1
  H+  H242  1  0.86863337  0.99834597  0.17512352  1
  H+  H243  1  0.23433491  0.37481702  -0.01010977  1
  H+  H244  1  0.39105652  0.74214460  0.81283776  1
  H+  H245  1  0.31524462  0.36013003  0.43663105  1
  H+  H246  1  0.97396114  0.86165601  0.66114008  1
  H+  H247  1  0.88369165  0.10289655  0.66793124  1
  H+  H248  1  0.98344201  0.62058610  0.99754750  1
  H+  H249  1  0.27580382  0.36732443  0.33657401  1
  H+  H250  1  0.89857122  0.53340778  0.66485296  1
  H+  H251  1  0.63384832  0.43948449  1.01372054  1
  H+  H252  1  0.97632777  0.11031529  0.66942522  1
  H+  H253  1  0.10772538  0.39345490  0.34022851  1
  H+  H254  1  0.41682108  0.58395899  0.90111393  1
  H+  H255  1  0.53239785  0.90673703  0.48629957  1
  H+  H256  1  0.49227881  0.40120250  -0.00182712  1
  H+  H257  1  0.62619933  0.00780348  0.64740304  1
  H+  H258  1  0.96785705  0.36942193  0.35943208  1
  H+  H259  1  0.34646055  0.16439282  0.11681519  1
  H+  H260  1  0.77954002  0.39667307  0.66399060  1
  H+  H261  1  0.11875880  0.73289680  0.48125120  1
  H+  H262  1  0.16679839  0.88258578  0.34498759  1
  H+  H263  1  0.71956431  0.11614639  0.33286070  1
  H+  H264  1  0.64721298  0.37985006  0.83971205  1
  H+  H265  1  0.16123697  0.58868504  0.56443030  1
  H+  H266  1  0.92636684  0.09181583  0.57093584  1
  H+  H267  1  0.08163665  0.91161993  0.73379015  1
  H+  H268  1  0.42487901  0.27805832  0.33759749  1
  H+  H269  1  0.24028028  0.12708512  0.18336660  1
  H+  H270  1  0.73679449  0.36740080  0.33963159  1
  H+  H271  1  0.40359866  0.82853528  0.23253609  1
  H+  H272  1  0.87069387  0.40102663  0.66629911  1
  H+  H273  1  1.03545661  0.64549584  0.68236299  1
  H+  H274  1  0.64698110  0.88289756  0.49030815  1
  H+  H275  1  0.87901250  0.67070046  0.47753227  1
  H+  H276  1  0.75962682  0.11458915  0.16460331  1
  H+  H277  1  0.76922764  0.17500577  0.02469972  1
  H+  H278  1  0.11862023  0.97986301  0.34431282  1
  H+  H279  1  0.27322993  0.88446781  0.81342060  1
  H+  H280  1  0.40117428  0.53392448  0.17932867  1
  H+  H281  1  0.41663864  0.06045331  0.57901431  1
  H+  H282  1  0.82732804  0.19157217  0.69060749  1
  H+  H283  1  0.75137838  0.10267118  0.67176618  1
  H+  H284  1  0.78462748  0.40898524  1.00937601  1
  H+  H285  1  0.39615355  0.62945160  0.33361625  1
  H+  H286  1  0.36415220  0.12138987  1.02241470  1
  H+  H287  1  0.66392394  0.07478019  0.58951932  1
  H+  H288  1  0.82010203  0.14193860  0.10446848  1
  H+  H289  1  0.60233468  0.17054340  -0.00569289  1
  H+  H290  1  0.66069771  0.30318334  0.86741777  1
  H+  H291  1  0.92820924  0.59157576  0.93470148  1
  H+  H292  1  0.56697152  0.92125670  0.38925433  1
  H+  H293  1  0.10106574  0.19391197  0.10744118  1
  H+  H294  1  0.16794583  0.08184658  0.56139513  1
  H+  H295  1  0.15448959  0.63238733  0.66305304  1
  H+  H296  1  0.30109409  0.17690545  0.78835114  1
  H+  H297  1  0.40128061  0.55847536  0.54612406  1
  H+  H298  1  0.64168047  0.31108366  0.27111544  1
  H+  H299  1  0.42867014  0.60145323  0.27594434  1
  H+  H300  1  0.09563210  0.67415590  0.74316205  1
  H+  H301  1  0.45547297  0.34354051  0.24325171  1
  H+  H302  1  0.55823206  0.18745861  0.78271031  1
  H+  H303  1  0.84050092  0.66857493  0.76364699  1
  H+  H304  1  0.91859846  0.84234964  0.60072246  1
  H+  H305  1  0.51873524  0.87571186  0.66250499  1
  H+  H306  1  0.67088864  0.84131408  0.87959645  1
  H+  H307  1  0.39533273  0.52947907  0.64068997  1
  H+  H308  1  0.43199544  0.34086403  0.58877642  1
  H+  H309  1  0.57616664  0.35937629  0.18721041  1
  H+  H310  1  0.92404864  0.83363984  0.26621942  1
  H+  H311  1  0.89035422  0.36812618  -0.00538991  1
  H+  H312  1  0.91640672  0.57443881  0.30434619  1
  H+  H313  1  0.10660759  0.39148402  0.82368145  1
  H+  H314  1  0.08213097  0.41283679  0.06321989  1
  H+  H315  1  0.93503069  0.59415470  0.60709049  1
  H+  H316  1  0.17602534  0.35739279  0.26083525  1
  H+  H317  1  0.52617754  0.64627582  0.34499042  1
  H+  H318  1  0.91926802  0.38288426  0.23205340  1
  H+  H319  1  0.97717212  0.84967768  0.84472766  1
  H+  H320  1  0.87292055  0.64293967  0.67184028  1
  H+  H321  1  0.59108083  0.67607546  0.40292757  1
  H+  H322  1  0.56863175  0.14358984  0.10952040  1
  H+  H323  1  0.58864717  0.42118478  0.76056710  1
  H+  H324  1  0.82932010  0.42593730  0.10036805  1
  H+  H325  1  0.18518035  0.11883162  0.94697050  1
  H+  H326  1  0.93999834  0.07435673  0.91321946  1
  H+  H327  1  0.40315036  0.40412693  0.16765374  1
  H+  H328  1  0.54594874  0.14022546  0.78240715  1
  H+  H329  1  0.41995772  0.83325660  0.92358015  1
  H+  H330  1  0.41334142  0.08035006  0.93263748  1
  H+  H331  1  0.90119225  0.06572023  0.23985971  1
  H+  H332  1  0.43208327  0.35859703  0.94138280  1
  H+  H333  1  0.68131644  0.58934241  0.59032999  1
  H+  H334  1  0.14312715  0.81248525  0.94846318  1
  H+  H335  1  0.62192204  0.64073350  0.65237387  1
  H+  H336  1  0.59347141  0.63251490  0.13474173  1
  H+  H337  1  0.83186905  0.91385606  0.10331520  1
  H+  H338  1  0.85249521  0.57995241  0.53901910  1
  H+  H339  1  0.89912147  0.53000970  0.83929504  1
  H+  H340  1  0.66109847  0.07891767  0.23728687  1
  H+  H341  1  0.10944598  0.98720298  0.17089813  1
  H+  H342  1  0.93503405  0.35088046  0.23336186  1
  H+  H343  1  0.14724948  0.86500327  0.49363410  1
  H+  H344  1  0.11689641  -0.00657437  0.49173224  1
  H+  H345  1  0.30920646  0.07117571  0.72781534  1
  H+  H346  1  0.91264843  0.82898806  0.93416343  1
  H+  H347  1  0.14292091  0.57795922  0.93474371  1
  H+  H348  1  0.12033195  0.15131483  0.49189951  1
  H+  H349  1  0.11493813  0.89533733  -0.00165971  1
  H+  H350  1  0.37116709  0.39639456  0.65732814  1
  H+  H351  1  0.33395523  0.91260069  0.72005908  1
  H+  H352  1  0.28405334  0.47555245  0.77640203  1
  H+  H353  1  0.36303570  0.67736265  0.70876174  1
  H+  H354  1  0.61022463  0.49398758  0.06297546  1
  H+  H355  1  0.34915346  0.43301482  0.06981868  1
  H+  H356  1  0.81801130  0.14305566  0.78082456  1
  H+  H357  1  0.33078882  0.67125659  0.39979925  1
  H+  H358  1  0.16503018  0.57498308  0.27246668  1
  H+  H359  1  0.17720524  0.10101925  0.23920167  1
  H+  H360  1  0.35134175  0.17012478  0.40324009  1
  H+  H361  1  0.23065583  0.86341947  0.66233481  1
  H+  H362  1  0.57574705  0.91151857  0.72400937  1
  H+  H363  1  0.67895522  0.34912544  0.54384833  1
  H+  H364  1  0.78658278  0.88412418  0.34044333  1
  H+  H365  1  0.65775271  0.05824990  0.90210968  1
  H+  H366  1  0.93204349  0.34748514  0.55867907  1
  H+  H367  1  0.50744454  0.87898433  0.16722443  1
  H+  H368  1  0.82228270  0.67545446  0.38964043  1
  H+  H369  1  0.09504539  0.42306851  0.43458060  1
  H+  H370  1  0.68743242  0.59896826  0.91341791  1
  H+  H371  1  1.00077949  0.39790540  0.65620545  1
  H+  H372  1  0.42606194  0.84505883  0.58482789  1
  H+  H373  1  0.57488151  0.16579382  0.41222194  1
  H+  H374  1  0.07379342  0.07581185  0.86666797  1
  H+  H375  1  0.84027821  0.42410371  0.76427056  1
  H+  H376  1  0.83421408  0.16098565  0.44110969  1
  H+  H377  1  0.37823719  0.73293892  0.64882717  1
  H+  H378  1  0.14184292  0.37662275  0.66445900  1
  H+  H379  1  0.08412354  0.18058493  0.39018270  1
  H+  H380  1  0.12900556  0.49851643  0.67504221  1
  H+  H381  1  0.56041572  0.70706560  0.06798652  1
  H+  H382  1  0.08357086  0.66027878  0.07710103  1
  H+  H383  1  0.68486595  0.38384450  0.93708380  1
  O2-  O384  1  0.10845592  0.20040676  0.15320323  1
  O2-  O385  1  0.08983020  0.18149932  0.47824313  1
  O2-  O386  1  0.09046613  0.16973786  0.75957613  1
  O2-  O387  1  0.06649187  0.40342795  0.14472615  1
  O2-  O388  1  0.09509893  0.42142613  0.48081894  1
  O2-  O389  1  0.07746595  0.42278818  0.81041014  1
  O2-  O390  1  0.09794425  0.66493696  0.15483941  1
  O2-  O391  1  0.08246622  0.66875276  0.47371520  1
  O2-  O392  1  0.09568449  0.67020874  0.81846060  1
  O2-  O393  1  0.07476494  0.92697348  0.15685997  1
  O2-  O394  1  0.07902477  0.93077942  0.47605938  1
  O2-  O395  1  0.08716224  0.91509688  0.81419587  1
  O2-  O396  1  0.34625780  0.17012254  0.16265640  1
  O2-  O397  1  0.33530843  0.15193092  0.48081622  1
  O2-  O398  1  0.30138642  0.16475516  0.83198198  1
  O2-  O399  1  0.36893729  0.42997012  0.15346790  1
  O2-  O400  1  0.32025577  0.36306298  0.48200273  1
  O2-  O401  1  0.31534782  0.44843081  0.79247549  1
  O2-  O402  1  0.32928480  0.65935096  0.14253683  1
  O2-  O403  1  0.32254035  0.65700285  0.47459834  1
  O2-  O404  1  0.37034341  0.68399223  0.79397948  1
  O2-  O405  1  0.32596013  0.91542642  0.14903847  1
  O2-  O406  1  0.37787058  0.89349841  0.50223508  1
  O2-  O407  1  0.33366824  0.91818056  0.79950769  1
  O2-  O408  1  0.57359197  0.15197493  0.15387362  1
  O2-  O409  1  0.59110813  0.17599886  0.48938173  1
  O2-  O410  1  0.62025104  0.19979362  0.90081620  1
  O2-  O411  1  0.55272112  0.39957420  0.18946249  1
  O2-  O412  1  0.58859288  0.42724582  0.46871639  1
  O2-  O413  1  0.58872564  0.42136552  0.80623646  1
  O2-  O414  1  0.57396642  0.67509273  0.13645344  1
  O2-  O415  1  0.60970120  0.69407367  0.48483068  1
  O2-  O416  1  0.59007201  0.67192168  0.81172186  1
  O2-  O417  1  0.56871671  0.91031915  0.15018632  1
  O2-  O418  1  0.59152563  0.93250807  0.46778861  1
  O2-  O419  1  0.57666844  0.91860531  0.80289970  1
  O2-  O420  1  0.82088302  0.14008430  0.14964588  1
  O2-  O421  1  0.83853072  0.16792542  0.48633749  1
  O2-  O422  1  0.81854180  0.15291709  0.82484673  1
  O2-  O423  1  0.81424317  0.41045256  0.14464064  1
  O2-  O424  1  0.85634588  0.43738776  0.48352050  1
  O2-  O425  1  0.84465779  0.42568924  0.80948135  1
  O2-  O426  1  0.80504891  0.66552757  0.13489063  1
  O2-  O427  1  0.84430368  0.69741023  0.46804648  1
  O2-  O428  1  0.83917574  0.66409325  0.80904524  1
  O2-  O429  1  0.82951397  0.91433038  0.14935515  1
  O2-  O430  1  0.85382390  0.93722849  0.47819604  1
  O2-  O431  1  0.86260604  0.92037493  0.82287864  1
  O2-  O432  1  0.17801467  0.10014086  0.19489514  1
  O2-  O433  1  0.17048139  0.08476878  0.51584523  1
  O2-  O434  1  0.12270822  0.07830628  0.84310730  1
  O2-  O435  1  0.19873426  0.35511042  0.18177620  1
  O2-  O436  1  0.15160889  0.33336787  0.52869369  1
  O2-  O437  1  0.16075322  0.31683944  0.83358525  1
  O2-  O438  1  0.16834601  0.56988523  0.19203720  1
  O2-  O439  1  0.15482344  0.58016857  0.51966665  1
  O2-  O440  1  0.14126652  0.57134879  0.86506550  1
  O2-  O441  1  0.16274186  0.83370903  0.15563225  1
  O2-  O442  1  0.18115815  0.83721933  0.48711796  1
  O2-  O443  1  0.18012449  0.82231947  0.86376120  1
  O2-  O444  1  0.40863897  0.07026717  0.20976321  1
  O2-  O445  1  0.42157011  0.06343973  0.50507388  1
  O2-  O446  1  0.39527683  0.08413962  0.85065748  1
  O2-  O447  1  0.45934943  0.34590412  0.19731899  1
  O2-  O448  1  0.42699131  0.31815974  0.51962253  1
  O2-  O449  1  0.42093013  0.34300992  0.85583752  1
  O2-  O450  1  0.42470215  0.59497061  0.19150868  1
  O2-  O451  1  0.37777325  0.53787783  0.50413724  1
  O2-  O452  1  0.42218194  0.58205151  0.85549301  1
  O2-  O453  1  0.40865715  0.83057429  0.18506895  1
  O2-  O454  1  0.43951786  0.86791074  0.52239744  1
  O2-  O455  1  0.42404696  0.83771659  0.84847527  1
  O2-  O456  1  0.66112594  0.07475044  0.19164467  1
  O2-  O457  1  0.66733127  0.09276525  0.51922837  1
  O2-  O458  1  0.65940270  0.08221290  0.86143256  1
  O2-  O459  1  0.64434531  0.31572484  0.19295878  1
  O2-  O460  1  0.68018889  0.34889607  0.49875875  1
  O2-  O461  1  0.68699039  0.36646575  0.86301860  1
  O2-  O462  1  0.62440163  0.54942834  0.12711826  1
  O2-  O463  1  0.68429464  0.59840628  0.51017387  1
  O2-  O464  1  0.68029909  0.58610866  0.84954980  1
  O2-  O465  1  0.65875202  0.83279163  0.18947537  1
  O2-  O466  1  0.67808638  0.85379715  0.50641770  1
  O2-  O467  1  0.65140916  0.83691760  0.83737732  1
  O2-  O468  1  0.89715526  0.06191895  0.19289294  1
  O2-  O469  1  0.93077251  0.09812498  0.52580283  1
  O2-  O470  1  0.97792319  0.07988566  0.87729064  1
  O2-  O471  1  0.89948541  0.31293359  0.12478309  1
  O2-  O472  1  0.92728083  0.33870515  0.51399473  1
  O2-  O473  1  0.91149160  0.32812211  0.85529993  1
  O2-  O474  1  0.94807006  0.61533811  0.22383324  1
  O2-  O475  1  0.90780955  0.58577819  0.52851085  1
  O2-  O476  1  0.92715263  0.58946018  0.85646733  1
  O2-  O477  1  0.91209362  0.83430540  0.18810675  1
  O2-  O478  1  0.93012641  0.85759742  0.51798175  1
  O2-  O479  1  0.91720863  0.82144787  0.85934226  1
  O2-  O480  1  0.18668290  0.09752532  0.34198700  1
  O2-  O481  1  0.15807607  0.06883959  0.63978619  1
  O2-  O482  1  0.18275107  0.10779866  0.99047778  1
  O2-  O483  1  0.16638440  0.35191148  0.30546480  1
  O2-  O484  1  0.16556835  0.34060782  0.64785301  1
  O2-  O485  1  0.17673208  0.34351003  0.97046393  1
  O2-  O486  1  0.16300446  0.57750654  0.31755363  1
  O2-  O487  1  0.17798623  0.59812076  0.64435595  1
  O2-  O488  1  0.15067023  0.58337746  0.98189716  1
  O2-  O489  1  0.21083461  0.86568389  0.33978744  1
  O2-  O490  1  0.16433364  0.83051526  0.65485021  1
  O2-  O491  1  0.15480225  0.82243401  0.99254045  1
  O2-  O492  1  0.39902062  0.05851711  0.33458576  1
  O2-  O493  1  0.41626974  0.05887640  0.62511882  1
  O2-  O494  1  0.40915672  0.06253819  0.97570733  1
  O2-  O495  1  0.45323322  0.33805548  0.31915056  1
  O2-  O496  1  0.43235324  0.35219271  0.63468292  1
  O2-  O497  1  0.43186750  0.36441493  0.98574293  1
  O2-  O498  1  0.43045616  0.60226195  0.32081473  1
  O2-  O499  1  0.42629502  0.58636088  0.62000670  1
  O2-  O500  1  0.41114463  0.59108192  0.97632997  1
  O2-  O501  1  0.39831331  0.83170586  0.30005250  1
  O2-  O502  1  0.42094073  0.82978027  0.63267695  1
  O2-  O503  1  0.40536892  0.83077313  0.96849487  1
  O2-  O504  1  0.66298772  0.09390712  0.31276521  1
  O2-  O505  1  0.66087072  0.06995097  0.63608261  1
  O2-  O506  1  0.64972089  0.03081097  0.98449290  1
  O2-  O507  1  0.64037352  0.31575256  0.31646246  1
  O2-  O508  1  0.67777382  0.34420342  0.62913230  1
  O2-  O509  1  0.68186817  0.38377458  0.98310395  1
  O2-  O510  1  0.65907746  0.58290916  0.31109767  1
  O2-  O511  1  0.67645225  0.58774909  0.63558438  1
  O2-  O512  1  0.69024063  0.61018119  0.96123314  1
  O2-  O513  1  0.69761387  0.83036645  0.31477088  1
  O2-  O514  1  0.66587082  0.82571942  0.65692596  1
  O2-  O515  1  0.68643264  0.84200699  0.96621834  1
  O2-  O516  1  0.90981002  0.07697532  0.30949341  1
  O2-  O517  1  0.91835783  0.07822926  0.65132558  1
  O2-  O518  1  0.86568300  0.05587835  0.96348209  1
  O2-  O519  1  0.90441589  0.33683461  0.34993573  1
  O2-  O520  1  0.94075987  0.36575550  0.63809606  1
  O2-  O521  1  0.91648766  0.33409704  0.97994977  1
  O2-  O522  1  0.88259618  0.55821925  0.34219135  1
  O2-  O523  1  0.93433285  0.59523497  0.65241824  1
  O2-  O524  1  0.92392692  0.59193817  0.98027512  1
  O2-  O525  1  0.92856855  0.83215604  0.31150956  1
  O2-  O526  1  0.91399917  0.83425417  0.64547812  1
  O2-  O527  1  0.91432772  0.83182687  0.98020803  1
  O2-  O528  1  0.09207037  0.18815229  0.03395820  1
  O2-  O529  1  0.07994824  0.17716998  0.34522076  1
  O2-  O530  1  0.09605741  0.17233581  0.69250368  1
  O2-  O531  1  0.08437068  0.41830300  0.01827672  1
  O2-  O532  1  0.07839385  0.42053923  0.36209854  1
  O2-  O533  1  0.09581697  0.43670815  0.68832438  1
  O2-  O534  1  0.08218377  0.66594360  0.03185271  1
  O2-  O535  1  0.10777349  0.68394300  0.34851136  1
  O2-  O536  1  0.09643216  0.67928359  0.69712690  1
  O2-  O537  1  0.09026853  0.93126828  -0.01535134  1
  O2-  O538  1  0.08621470  0.92094620  0.36129389  1
  O2-  O539  1  0.08037381  0.90745859  0.68852589  1
  O2-  O540  1  0.34369353  0.15614982  0.04296460  1
  O2-  O541  1  0.35599080  0.17416847  0.35786800  1
  O2-  O542  1  0.28976919  0.06033618  0.68591529  1
  O2-  O543  1  0.34222887  0.43337339  0.02519348  1
  O2-  O544  1  0.30977615  0.34920287  0.36095595  1
  O2-  O545  1  0.33816150  0.42478697  0.67099469  1
  O2-  O546  1  0.31463006  0.65848312  0.01565099  1
  O2-  O547  1  0.33352435  0.67232836  0.35402738  1
  O2-  O548  1  0.34993077  0.67101295  0.66485204  1
  O2-  O549  1  0.31901760  0.89907958  -0.03087158  1
  O2-  O550  1  0.27294778  0.91603004  0.38748401  1
  O2-  O551  1  0.32493322  0.90317649  0.67539239  1
  O2-  O552  1  0.57081391  0.12232369  0.02244239  1
  O2-  O553  1  0.56964683  0.16013980  0.36687370  1
  O2-  O554  1  0.58674307  0.16347414  0.65839596  1
  O2-  O555  1  0.60338765  0.47234773  0.01986470  1
  O2-  O556  1  0.54048188  0.38626835  0.34492391  1
  O2-  O557  1  0.59603208  0.42465505  0.68136577  1
  O2-  O558  1  0.55016688  0.72745104  0.02779959  1
  O2-  O559  1  0.58873049  0.67078477  0.35813440  1
  O2-  O560  1  0.58931158  0.67026993  0.66384021  1
  O2-  O561  1  0.54504394  0.87552424  0.03287085  1
  O2-  O562  1  0.55770081  0.91968798  0.34466669  1
  O2-  O563  1  0.57942587  0.90603278  0.67901391  1
  O2-  O564  1  0.82299371  0.17429757  0.02682609  1
  O2-  O565  1  0.82684093  0.15752443  0.36339421  1
  O2-  O566  1  0.80884291  0.13090854  0.69400727  1
  O2-  O567  1  0.84353513  0.43082878  0.02569032  1
  O2-  O568  1  0.79720002  0.40450992  0.35708247  1
  O2-  O569  1  0.83781598  0.42715178  0.68325696  1
  O2-  O570  1  0.83703752  0.67017134  0.01503389  1
  O2-  O571  1  0.82086417  0.66239208  0.34558736  1
  O2-  O572  1  0.83733909  0.66852274  0.68495878  1
  O2-  O573  1  0.83470071  0.91315454  0.02907691  1
  O2-  O574  1  0.84911261  0.92222967  0.35615063  1
  O2-  O575  1  0.82767233  0.91072814  0.69643981  1
