# generated using pymatgen
data_H2O
_symmetry_space_group_name_H-M   'P 1'
_cell_length_a   17.98618164
_cell_length_b   17.98371616
_cell_length_c   21.99317770
_cell_angle_alpha   89.96605138
_cell_angle_beta   90.00565893
_cell_angle_gamma   119.99110698
_symmetry_Int_Tables_number   1
_chemical_formula_structural   H2O
_chemical_formula_sum   'H384 O192'
_cell_volume   6161.34961750
_cell_formula_units_Z   192
loop_
 _symmetry_equiv_pos_site_id
 _symmetry_equiv_pos_as_xyz
  1  'x, y, z'
loop_
 _atom_type_symbol
 _atom_type_oxidation_number
  H+  1.0
  O2-  -2.0
loop_
 _atom_site_type_symbol
 _atom_site_label
 _atom_site_symmetry_multiplicity
 _atom_site_fract_x
 _atom_site_fract_y
 _atom_site_fract_z
 _atom_site_occupancy
  H+  H0  1  0.96560352  0.48448514  0.40332816  1
  H+  H1  1  0.65493289  0.53967618  0.98159461  1
  H+  H2  1  0.11783179  0.99072479  0.34763350  1
  H+  H3  1  0.13121683  0.27410653  0.17229677  1
  H+  H4  1  0.35871943  0.14239387  0.84671844  1
  H+  H5  1  0.65037539  0.54566127  0.17876947  1
  H+  H6  1  0.37864470  0.02855284  0.84308115  1
  H+  H7  1  0.61948489  0.98251837  1.00365834  1
  H+  H8  1  0.38151119  0.03098684  0.99881970  1
  H+  H9  1  0.92571242  0.31874943  0.59774643  1
  H+  H10  1  0.60929884  0.96480000  0.34209632  1
  H+  H11  1  0.26799764  0.88691697  0.33910816  1
  H+  H12  1  0.91385628  0.83844158  0.23083032  1
  H+  H13  1  0.85955487  0.22436822  0.16602194  1
  H+  H14  1  0.35623631  0.39639175  0.82574862  1
  H+  H15  1  0.10079511  0.13055110  0.16906824  1
  H+  H16  1  0.51353746  0.89123905  0.34371820  1
  H+  H17  1  0.58410027  0.91873755  0.76093646  1
  H+  H18  1  0.71466284  0.85990948  0.99697385  1
  H+  H19  1  0.76027093  0.12735257  0.66842617  1
  H+  H20  1  0.80121864  0.85001339  0.33571446  1
  H+  H21  1  0.65355923  0.36486089  -0.00335673  1
  H+  H22  1  0.85857773  0.89066193  0.49294724  1
  H+  H23  1  0.70226845  0.62786535  0.60243043  1
  H+  H24  1  0.48101552  0.36558720  0.50056970  1
  H+  H25  1  0.14166491  0.86380812  0.66417213  1
  H+  H26  1  0.85257078  0.89566622  0.00656818  1
  H+  H27  1  0.08452399  0.62876911  0.35686322  1
  H+  H28  1  0.86498724  0.86144462  0.65674109  1
  H+  H29  1  0.09810443  0.37674070  0.84494728  1
  H+  H30  1  0.96965944  0.62645503  0.50640546  1
  H+  H31  1  0.60589747  0.72191744  0.15701997  1
  H+  H32  1  0.28449557  0.61118985  0.66155208  1
  H+  H33  1  0.35523655  0.37253203  0.16935668  1
  H+  H34  1  1.00807373  0.64465413  0.34115226  1
  H+  H35  1  0.45633523  0.30469882  0.97073859  1
  H+  H36  1  0.89616138  0.35195606  0.34508862  1
  H+  H37  1  0.12136414  0.23741414  0.49958774  1
  H+  H38  1  0.14382044  0.36867631  0.50986090  1
  H+  H39  1  0.65803319  0.24924745  0.18311979  1
  H+  H40  1  0.13740567  0.87445420  0.51248251  1
  H+  H41  1  0.24794760  0.88028490  0.16792390  1
  H+  H42  1  0.86877643  0.38336092  0.63814655  1
  H+  H43  1  0.61346497  0.38528720  0.48767512  1
  H+  H44  1  0.56939941  0.90599151  0.44244749  1
  H+  H45  1  0.63528951  0.80865242  0.23427055  1
  H+  H46  1  0.88902716  0.34812409  0.50374034  1
  H+  H47  1  0.61664787  0.60331722  0.51471193  1
  H+  H48  1  0.78237173  0.38478024  0.01168152  1
  H+  H49  1  0.34690166  0.20888098  0.17597647  1
  H+  H50  1  0.14221904  0.73167319  0.80812391  1
  H+  H51  1  0.21980901  0.61558233  0.49544706  1
  H+  H52  1  0.98505981  0.11420876  0.49520919  1
  H+  H53  1  0.01638196  0.38469227  0.16396375  1
  H+  H54  1  0.38583840  0.02114652  0.50382661  1
  H+  H55  1  0.77498364  0.65031985  0.16206684  1
  H+  H56  1  0.47576360  0.60559519  0.32761894  1
  H+  H57  1  0.72546551  0.31658066  0.34251689  1
  H+  H58  1  0.13797312  0.76073449  1.04322853  1
  H+  H59  1  0.78935440  0.62926167  0.83356517  1
  H+  H60  1  0.64106293  0.62867209  0.17398584  1
  H+  H61  1  0.14001032  1.00620975  0.20167410  1
  H+  H62  1  0.12965931  0.86725832  0.82666290  1
  H+  H63  1  0.35660590  0.88563031  0.49390511  1
  H+  H64  1  0.82241075  0.76523433  0.63428423  1
  H+  H65  1  0.33674117  0.16719783  0.40626913  1
  H+  H66  1  0.33666014  0.42802923  0.40582708  1
  H+  H67  1  0.89862933  0.59487893  0.84564021  1
  H+  H68  1  0.23721053  0.12835952  0.33333641  1
  H+  H69  1  0.36533114  0.23178832  0.34992263  1
  H+  H70  1  0.09985969  0.11703125  0.01694126  1
  H+  H71  1  0.13847950  1.02840942  0.49073641  1
  H+  H72  1  0.67480062  0.60067477  0.79336861  1
  H+  H73  1  0.24319348  0.12487778  0.49088234  1
  H+  H74  1  0.96299505  0.61231807  0.17501277  1
  H+  H75  1  0.98579465  0.86756478  0.18343404  1
  H+  H76  1  0.13379707  0.72551754  0.66247450  1
  H+  H77  1  0.15911338  0.38664453  0.32108084  1
  H+  H78  1  0.87751787  0.61673600  0.17339121  1
  H+  H79  1  0.17470923  0.08935273  0.25070357  1
  H+  H80  1  0.36918769  0.54678613  0.66234306  1
  H+  H81  1  0.85125654  0.87871034  0.82397689  1
  H+  H82  1  0.61249812  0.48828150  0.33833651  1
  H+  H83  1  0.42173512  0.34636962  0.59834634  1
  H+  H84  1  0.77765737  0.04562477  0.95916694  1
  H+  H85  1  0.39486623  0.76554064  0.65273387  1
  H+  H86  1  0.71818706  0.10904678  0.83285535  1
  H+  H87  1  0.60168809  0.12707878  0.83239507  1
  H+  H88  1  0.36866187  0.13708237  0.50005559  1
  H+  H89  1  0.10668759  0.73754272  0.50099279  1
  H+  H90  1  0.84749739  0.19127260  0.33509712  1
  H+  H91  1  0.02235494  0.38245501  0.68206503  1
  H+  H92  1  0.38473436  0.64213983  -0.00588578  1
  H+  H93  1  0.84054232  0.41765475  0.55147787  1
  H+  H94  1  0.61348253  0.39067274  0.67273885  1
  H+  H95  1  0.52896671  0.89269733  0.66999016  1
  H+  H96  1  0.13066330  0.26837904  0.84578189  1
  H+  H97  1  0.62206344  0.73837989  0.67770346  1
  H+  H98  1  0.37608408  0.13533665  0.64964335  1
  H+  H99  1  0.93149929  0.05683857  0.31954408  1
  H+  H100  1  0.26926013  0.89010454  0.49510638  1
  H+  H101  1  0.89178927  0.78044189  0.32827552  1
  H+  H102  1  0.62209317  -0.01320452  0.66862079  1
  H+  H103  1  0.38100858  0.36729319  0.34106868  1
  H+  H104  1  0.37503082  0.64827659  0.48844089  1
  H+  H105  1  0.47624109  0.62415721  -0.01201262  1
  H+  H106  1  0.61312680  -0.03060378  0.15667920  1
  H+  H107  1  0.88245864  0.11407799  0.66476593  1
  H+  H108  1  0.16714604  0.78834734  0.15646860  1
  H+  H109  1  0.14368455  0.26210619  -0.00142422  1
  H+  H110  1  0.61307594  0.20886575  0.34227402  1
  H+  H111  1  0.29370440  0.65446793  0.32380695  1
  H+  H112  1  0.23463031  0.87015913  0.66139742  1
  H+  H113  1  0.10343460  0.38599369  0.14991108  1
  H+  H114  1  0.47203919  0.37055954  0.33648578  1
  H+  H115  1  0.95649363  0.33626622  0.86468325  1
  H+  H116  1  0.47000907  0.11891752  0.99795611  1
  H+  H117  1  0.87645256  0.47773554  0.63976360  1
  H+  H118  1  0.13634219  0.51951503  0.16036289  1
  H+  H119  1  0.28238898  0.39945969  0.50175567  1
  H+  H120  1  0.04870160  0.83391226  -0.05382434  1
  H+  H121  1  0.49303482  0.11502111  0.65112039  1
  H+  H122  1  0.63292192  0.09888494  0.31926362  1
  H+  H123  1  0.35550227  0.14616718  0.01768395  1
  H+  H124  1  0.81231060  0.29492250  0.31132834  1
  H+  H125  1  0.61042164  0.63966655  -0.00199497  1
  H+  H126  1  0.64574174  0.28644082  0.66076726  1
  H+  H127  1  0.63642734  0.09807520  0.66401842  1
  H+  H128  1  0.09745042  0.89872356  0.25343212  1
  H+  H129  1  0.37539992  0.73317510  0.81083531  1
  H+  H130  1  0.14671110  0.13077840  0.48925706  1
  H+  H131  1  0.86739345  0.73423331  0.15781879  1
  H+  H132  1  0.38426735  0.73769447  0.33342629  1
  H+  H133  1  0.05570400  0.51256590  0.00702384  1
  H+  H134  1  0.52427923  0.38910874  0.82470958  1
  H+  H135  1  0.86873420  0.33824500  0.86117224  1
  H+  H136  1  0.93164347  0.41957318  0.02821004  1
  H+  H137  1  0.34223542  0.92878773  0.76435117  1
  H+  H138  1  0.70027066  0.84196155  0.51202052  1
  H+  H139  1  0.61027734  0.88914441  1.00367647  1
  H+  H140  1  0.85755731  0.47291110  0.17019268  1
  H+  H141  1  0.59853420  0.18146186  0.74543470  1
  H+  H142  1  0.72718190  0.11865346  0.51627983  1
  H+  H143  1  0.61921624  0.14026756  0.50439945  1
  H+  H144  1  0.13208317  0.61839064  0.49755718  1
  H+  H145  1  0.86327011  0.11598535  0.98728948  1
  H+  H146  1  0.37491107  0.74107912  0.00219408  1
  H+  H147  1  0.77063678  0.36935708  0.84186193  1
  H+  H148  1  0.21501486  0.10830811  0.85905290  1
  H+  H149  1  0.17638689  0.64979500  0.29430962  1
  H+  H150  1  0.63230663  0.61876506  0.33660391  1
  H+  H151  1  0.74436545  0.12211685  0.16899968  1
  H+  H152  1  0.10842456  0.37974624  0.68535604  1
  H+  H153  1  0.87444457  0.01448065  0.83248910  1
  H+  H154  1  0.86909339  0.20292856  0.05989127  1
  H+  H155  1  0.64039462  0.11274260  0.16732087  1
  H+  H156  1  0.11204208  0.13709746  0.67389413  1
  H+  H157  1  0.53935073  0.43037944  0.13782667  1
  H+  H158  1  0.65489817  0.32707264  0.56037685  1
  H+  H159  1  0.77404194  0.65371891  0.00066647  1
  H+  H160  1  0.84297975  0.09761128  0.33140820  1
  H+  H161  1  0.14773900  0.65195526  0.13142218  1
  H+  H162  1  0.58191972  0.91544930  0.09538083  1
  H+  H163  1  0.27865985  0.89187710  0.01813541  1
  H+  H164  1  0.10490967  0.62099509  0.01586370  1
  H+  H165  1  0.57949265  0.37060741  0.28767745  1
  H+  H166  1  0.10294509  0.50930809  0.86791619  1
  H+  H167  1  0.39375786  0.11275411  0.18035523  1
  H+  H168  1  0.38713274  0.28933293  0.85084237  1
  H+  H169  1  0.76238634  0.88010519  0.82492374  1
  H+  H170  1  0.11581979  0.57471499  0.94397405  1
  H+  H171  1  0.96097399  0.87198254  0.98941147  1
  H+  H172  1  0.05740497  0.42064956  0.32592494  1
  H+  H173  1  0.38633270  0.89291342  0.32339213  1
  H+  H174  1  0.91950069  0.88062185  0.33197428  1
  H+  H175  1  0.46589294  0.61125857  0.84149358  1
  H+  H176  1  0.72360249  0.87322007  0.65896221  1
  H+  H177  1  0.52951386  0.27766764  0.25832939  1
  H+  H178  1  0.87071500  0.21591604  0.48371765  1
  H+  H179  1  0.88823864  0.11575351  0.49091821  1
  H+  H180  1  0.14377055  0.50856605  0.32785168  1
  H+  H181  1  0.88841069  0.01815490  0.49390662  1
  H+  H182  1  0.38608203  0.51291220  0.16805225  1
  H+  H183  1  0.63289179  0.87216725  0.66181083  1
  H+  H184  1  0.38868101  0.11709040  0.33381327  1
  H+  H185  1  0.52198390  0.88896820  0.82024246  1
  H+  H186  1  0.62200090  0.84767140  0.17313056  1
  H+  H187  1  0.13881756  0.77558451  0.32031421  1
  H+  H188  1  0.88051716  0.53694107  0.51108260  1
  H+  H189  1  0.60999654  0.13149633  0.00332930  1
  H+  H190  1  0.96247533  0.10571817  0.18217590  1
  H+  H191  1  0.88960296  0.53184812  0.33629921  1
  H+  H192  1  0.84979568  0.12877806  0.81997134  1
  H+  H193  1  0.52199877  0.62833735  0.15369367  1
  H+  H194  1  0.36888471  0.48356095  0.34291532  1
  H+  H195  1  0.09741698  0.18954046  0.43492388  1
  H+  H196  1  0.63478982  0.51133944  0.82708316  1
  H+  H197  1  0.60408673  0.72692820  0.83346585  1
  H+  H198  1  0.10105259  0.12848920  0.83641290  1
  H+  H199  1  0.36943812  0.63024001  0.15291203  1
  H+  H200  1  0.01763394  0.12862968  0.01197094  1
  H+  H201  1  0.44673444  0.61443633  0.56327388  1
  H+  H202  1  0.27130116  0.37816273  0.15554505  1
  H+  H203  1  0.13671350  0.01535337  1.01626239  1
  H+  H204  1  0.18266457  0.82744077  0.25882921  1
  H+  H205  1  0.11319951  0.47973389  0.48851945  1
  H+  H206  1  0.52478895  0.39024725  0.67575765  1
  H+  H207  1  0.88407532  0.35985162  0.17593364  1
  H+  H208  1  0.01766131  0.88075416  0.67163061  1
  H+  H209  1  0.74474383  0.36084079  0.32848265  1
  H+  H210  1  0.59360110  0.39979230  0.17514375  1
  H+  H211  1  0.15146635  0.13735501  0.32856711  1
  H+  H212  1  0.34969257  0.48110094  0.82786023  1
  H+  H213  1  0.27568956  0.89720831  0.81908251  1
  H+  H214  1  0.72010711  0.09284793  0.32091206  1
  H+  H215  1  0.87428525  0.78207531  0.99559369  1
  H+  H216  1  0.62934857  0.86316528  0.83663601  1
  H+  H217  1  0.14887356  0.90028118  0.04799651  1
  H+  H218  1  0.21703929  0.35990046  0.84220822  1
  H+  H219  1  0.27523183  0.31969180  1.00979309  1
  H+  H220  1  0.21738777  0.10658720  0.64143674  1
  H+  H221  1  0.12943848  0.60784214  0.85420491  1
  H+  H222  1  0.62609206  0.77109394  0.99293253  1
  H+  H223  1  0.17086390  0.34247743  0.22571341  1
  H+  H224  1  0.68077414  0.66512121  0.66212302  1
  H+  H225  1  0.21342048  0.10717833  0.00518272  1
  H+  H226  1  1.02336127  0.79507828  0.96606883  1
  H+  H227  1  0.88038088  0.26479806  0.65760558  1
  H+  H228  1  -0.02812925  0.11496469  0.66772251  1
  H+  H229  1  0.23339293  0.60327442  0.15647854  1
  H+  H230  1  0.85680465  0.13165090  0.16464192  1
  H+  H231  1  0.03839923  0.89536212  0.34414521  1
  H+  H232  1  0.88668059  0.78653050  0.50360460  1
  H+  H233  1  0.22519125  0.36794078  0.66295714  1
  H+  H234  1  0.47799418  0.87231486  0.98995454  1
  H+  H235  1  0.37647623  -0.02536604  0.66811493  1
  H+  H236  1  0.39240120  0.36665291  0.50312938  1
  H+  H237  1  0.45780101  0.32925246  0.20327546  1
  H+  H238  1  0.85325362  0.64846252  0.49522458  1
  H+  H239  1  0.37472824  0.89266100  0.15780196  1
  H+  H240  1  0.83366715  0.97546192  0.00678782  1
  H+  H241  1  0.36414606  0.40551144  0.67210043  1
  H+  H242  1  0.73412095  0.14069862  -0.02334115  1
  H+  H243  1  0.32951322  0.22114475  0.03277956  1
  H+  H244  1  0.60137374  0.63659166  0.83650314  1
  H+  H245  1  0.59145479  0.87220016  0.50248635  1
  H+  H246  1  0.38741691  0.87045739  0.83480661  1
  H+  H247  1  0.89046986  0.72897326  0.68774742  1
  H+  H248  1  0.13020148  1.02202396  0.65557954  1
  H+  H249  1  0.90881577  0.61462985  0.66729810  1
  H+  H250  1  0.88522612  0.76946910  0.84202804  1
  H+  H251  1  0.62939249  0.26631873  0.50131796  1
  H+  H252  1  0.47529697  0.85652041  0.16612881  1
  H+  H253  1  0.04786003  0.17366864  0.33869856  1
  H+  H254  1  0.38178456  0.61879206  0.83550394  1
  H+  H255  1  0.77107342  0.65231898  0.34025475  1
  H+  H256  1  0.10308044  0.97449661  0.83019181  1
  H+  H257  1  0.37707564  0.77503027  0.50493303  1
  H+  H258  1  0.46619759  0.94064865  0.28049282  1
  H+  H259  1  0.37478963  0.48642828  0.49932201  1
  H+  H260  1  0.53163810  0.12969330  0.16043420  1
  H+  H261  1  0.15167698  0.51498257  0.67422387  1
  H+  H262  1  0.63149948  0.35608275  0.84394048  1
  H+  H263  1  0.59060043  0.71385388  0.35359430  1
  H+  H264  1  0.51978540  0.12574462  0.34012940  1
  H+  H265  1  0.98144717  0.35576057  0.49623020  1
  H+  H266  1  0.16501416  0.60787005  0.66023015  1
  H+  H267  1  0.87263933  -0.00599536  0.16413376  1
  H+  H268  1  0.68694402  0.84062037  0.33179612  1
  H+  H269  1  0.90344586  0.58130138  0.27182417  1
  H+  H270  1  0.62621521  0.26434987  0.84626916  1
  H+  H271  1  0.66991243  0.32498647  0.93768189  1
  H+  H272  1  0.38719877  0.28163741  0.65250017  1
  H+  H273  1  0.80192894  0.65000948  0.67985577  1
  H+  H274  1  0.86259554  0.98510825  0.67255106  1
  H+  H275  1  0.71196580  0.61953774  0.50334542  1
  H+  H276  1  0.38110667  1.02431391  0.33349288  1
  H+  H277  1  0.62954574  0.01782256  0.83344390  1
  H+  H278  1  0.38331681  -0.01348021  0.16482005  1
  H+  H279  1  0.01377712  0.13052563  0.82966440  1
  H+  H280  1  0.59883209  0.83826198  0.33158996  1
  H+  H281  1  0.88030630  0.89926140  0.15706141  1
  H+  H282  1  0.88623009  0.62027801  -0.00523340  1
  H+  H283  1  0.24368876  0.37964563  0.32545636  1
  H+  H284  1  0.04764959  0.63526287  0.66320326  1
  H+  H285  1  0.39246949  0.61348804  0.32013999  1
  H+  H286  1  0.36694549  0.88135134  0.67238593  1
  H+  H287  1  0.13774194  0.25840466  0.33775988  1
  H+  H288  1  0.16924764  0.84242331  0.57002224  1
  H+  H289  1  0.55771805  0.65188557  0.41297379  1
  H+  H290  1  0.92957850  0.59851954  0.60032858  1
  H+  H291  1  0.82685227  0.91830931  0.72916174  1
  H+  H292  1  0.61326034  0.47486364  0.49040755  1
  H+  H293  1  0.08535815  0.16615227  0.73562867  1
  H+  H294  1  0.58379575  0.41054966  0.76491443  1
  H+  H295  1  0.41611711  0.83808746  0.89283474  1
  H+  H296  1  0.82246808  0.16686204  0.72806306  1
  H+  H297  1  0.90869032  0.84155675  0.56415099  1
  H+  H298  1  0.86307317  0.45316785  0.84343349  1
  H+  H299  1  0.90479326  0.32270632  0.23547091  1
  H+  H300  1  0.38858533  0.87119030  0.99163157  1
  H+  H301  1  0.87288015  0.43670546  0.42846969  1
  H+  H302  1  0.18697100  0.59465158  0.24277566  1
  H+  H303  1  0.56995465  0.70786849  0.51352225  1
  H+  H304  1  0.16980349  0.33766167  0.57121476  1
  H+  H305  1  0.15840221  0.83210247  0.98018957  1
  H+  H306  1  0.13125459  0.88385200  0.19150488  1
  H+  H307  1  0.88831712  0.07147641  0.89101112  1
  H+  H308  1  0.65813751  0.31884624  0.22656139  1
  H+  H309  1  0.06870167  0.15511977  0.10931539  1
  H+  H310  1  0.65072896  0.82440562  0.57545720  1
  H+  H311  1  0.09676818  0.42218294  0.43073496  1
  H+  H312  1  0.61619970  0.22286080  0.00869734  1
  H+  H313  1  0.34153044  0.67211602  0.42928644  1
  H+  H314  1  0.51342565  0.13144677  0.83263346  1
  H+  H315  1  0.84968785  0.21625672  0.83192411  1
  H+  H316  1  0.85276676  0.66444574  0.77720846  1
  H+  H317  1  0.35345157  0.93204825  0.06577340  1
  H+  H318  1  0.47874023  0.10894745  0.50309581  1
  H+  H319  1  0.73027942  0.37124398  0.63961125  1
  H+  H320  1  0.33010237  0.42947407  0.73187892  1
  H+  H321  1  0.65780810  0.83535745  0.89849277  1
  H+  H322  1  0.76717256  0.38066540  0.50266718  1
  H+  H323  1  0.82700499  0.67948358  0.43496612  1
  H+  H324  1  0.32202340  0.17952184  0.79689220  1
  H+  H325  1  1.02507319  0.90331523  0.49886224  1
  H+  H326  1  0.43185706  0.08136642  0.59236592  1
  H+  H327  1  0.12502547  0.66555481  0.75567959  1
  H+  H328  1  0.83857977  0.92684984  0.09765804  1
  H+  H329  1  0.15695159  0.82423940  0.87822842  1
  H+  H330  1  0.36637547  0.71854293  0.15491628  1
  H+  H331  1  0.00623498  0.41334927  0.06429913  1
  H+  H332  1  0.55993334  0.41410273  0.00406372  1
  H+  H333  1  0.66832270  0.08260399  0.92408313  1
  H+  H334  1  0.58375307  0.15124620  0.43861801  1
  H+  H335  1  0.67531752  0.09854553  0.58070411  1
  H+  H336  1  0.82800079  0.41836413  0.07638757  1
  H+  H337  1  0.07235442  0.68358424  0.43965791  1
  H+  H338  1  0.32758904  0.14775702  0.70305850  1
  H+  H339  1  0.42656667  0.08823944  0.24029659  1
  H+  H340  1  1.01360344  0.88557040  0.82721541  1
  H+  H341  1  0.07284192  0.91347985  0.73218926  1
  H+  H342  1  0.59473717  0.67545363  0.73486358  1
  H+  H343  1  0.32553153  0.91631480  0.40218266  1
  H+  H344  1  0.22991229  0.10265941  0.18321085  1
  H+  H345  1  0.41708301  0.57365272  0.22708806  1
  H+  H346  1  0.91882091  0.56872698  0.90860497  1
  H+  H347  1  0.46690494  0.86299653  0.50712251  1
  H+  H348  1  0.66686967  0.60121114  0.27301137  1
  H+  H349  1  0.34635093  0.67483294  0.06108716  1
  H+  H350  1  0.39300092  0.31632470  0.25345234  1
  H+  H351  1  0.41136575  0.59552057  0.92809056  1
  H+  H352  1  0.58798379  0.15651070  0.09761106  1
  H+  H353  1  0.43466873  0.36602682  0.89699640  1
  H+  H354  1  0.68258840  0.20903997  0.70888645  1
  H+  H355  1  0.89033319  0.05805433  0.24073993  1
  H+  H356  1  0.90498819  0.83437860  0.89760594  1
  H+  H357  1  0.40775778  0.08462157  0.90570431  1
  H+  H358  1  0.41222680  0.82938040  0.59797121  1
  H+  H359  1  0.67176592  0.08131079  0.23173057  1
  H+  H360  1  0.08518079  0.92607048  0.43887319  1
  H+  H361  1  0.67474176  0.59650007  0.92155839  1
  H+  H362  1  0.82882357  0.67922796  0.06337775  1
  H+  H363  1  0.77879955  0.37470668  0.17562116  1
  H+  H364  1  0.33024134  0.35208305  0.07165818  1
  H+  H365  1  0.41372950  0.83156681  0.22407563  1
  H+  H366  1  0.31956838  0.15247532  0.11368574  1
  H+  H367  1  0.58013744  0.66315199  0.06078660  1
  H+  H368  1  0.83001288  0.14617705  0.42797030  1
  H+  H369  1  0.40902846  0.35196235  0.99836656  1
  H+  H370  1  0.35982167  0.67117520  0.75387634  1
  H+  H371  1  0.06433930  0.40489604  0.78824166  1
  H+  H372  1  0.14872700  0.06733717  0.91331312  1
  H+  H373  1  0.86576835  0.26335229  0.94733891  1
  H+  H374  1  0.85700995  0.64657550  0.34138071  1
  H+  H375  1  0.81591392  0.91026037  0.43517793  1
  H+  H376  1  0.07146633  0.90571093  0.07924378  1
  H+  H377  1  0.62387438  0.44581734  0.06079494  1
  H+  H378  1  0.88372048  0.53144254  1.00417719  1
  H+  H379  1  0.58719203  0.42017248  0.39310278  1
  H+  H380  1  0.82485206  -0.04898312  0.33005632  1
  H+  H381  1  0.18227758  0.32066538  0.93988011  1
  H+  H382  1  0.37087213  0.23005045  0.49910865  1
  H+  H383  1  0.13909837  0.27457516  0.66406605  1
  O2-  O384  1  0.06931489  0.15886390  0.15506723  1
  O2-  O385  1  0.09242777  0.17828170  0.47960720  1
  O2-  O386  1  0.07574959  0.16126051  0.81798400  1
  O2-  O387  1  0.07150650  0.41667516  0.14144431  1
  O2-  O388  1  0.08783649  0.41742023  0.47507450  1
  O2-  O389  1  0.06139761  0.40157055  0.83332564  1
  O2-  O390  1  0.16099984  0.70904965  0.11555710  1
  O2-  O391  1  0.07275146  0.67749309  0.48439157  1
  O2-  O392  1  0.14031859  0.67736770  0.79925724  1
  O2-  O393  1  0.09680058  0.91058370  0.20981293  1
  O2-  O394  1  0.08645538  0.93265437  0.48452962  1
  O2-  O395  1  0.07376092  0.91636799  0.81079556  1
  O2-  O396  1  0.31971682  0.14877309  0.15980405  1
  O2-  O397  1  0.33845729  0.16825207  0.48487476  1
  O2-  O398  1  0.32720442  0.17584717  0.84067935  1
  O2-  O399  1  0.33296593  0.40224027  0.14365106  1
  O2-  O400  1  0.34134602  0.42711789  0.48349208  1
  O2-  O401  1  0.32124066  0.42135685  0.81079172  1
  O2-  O402  1  0.33889862  0.65985748  0.13670917  1
  O2-  O403  1  0.33783141  0.67060103  0.47416997  1
  O2-  O404  1  0.35132224  0.67273531  0.79804226  1
  O2-  O405  1  0.34987722  0.92913773  0.14537282  1
  O2-  O406  1  0.32869636  0.91866950  0.47775815  1
  O2-  O407  1  0.33829656  0.93033739  0.80977415  1
  O2-  O408  1  0.59090692  0.15276861  0.14368809  1
  O2-  O409  1  0.57994205  0.15936427  0.48255157  1
  O2-  O410  1  0.57420484  0.16112485  0.81850784  1
  O2-  O411  1  0.59763141  0.44081136  0.14354199  1
  O2-  O412  1  0.58450979  0.41667516  0.47136975  1
  O2-  O413  1  0.58517531  0.41316329  0.81169239  1
  O2-  O414  1  0.58242585  0.66194128  0.13876008  1
  O2-  O415  1  0.53883531  0.64543422  0.49925282  1
  O2-  O416  1  0.57218839  0.66556136  0.81913689  1
  O2-  O417  1  0.57829929  0.91061206  0.14116529  1
  O2-  O418  1  0.56344969  0.90397965  0.48709052  1
  O2-  O419  1  0.58354992  0.91751906  0.80727250  1
  O2-  O420  1  0.82752455  0.16345203  0.14947229  1
  O2-  O421  1  0.84109432  0.15301174  0.47288603  1
  O2-  O422  1  0.81893431  0.15999521  0.80902866  1
  O2-  O423  1  0.83523569  0.41359212  0.15497702  1
  O2-  O424  1  0.83188605  0.41443866  0.50538481  1
  O2-  O425  1  0.83143147  0.39095379  0.83139127  1
  O2-  O426  1  0.83390282  0.67359009  0.14390883  1
  O2-  O427  1  0.82402237  0.67983691  0.48016911  1
  O2-  O428  1  0.85031110  0.66650635  0.82266122  1
  O2-  O429  1  0.84856399  0.92971076  0.14378023  1
  O2-  O430  1  0.82708149  0.92098493  0.47948280  1
  O2-  O431  1  0.82270211  0.91069334  0.80923347  1
  O2-  O432  1  0.16869392  0.07330315  0.20335118  1
  O2-  O433  1  0.17648216  0.09508052  0.48770282  1
  O2-  O434  1  0.15279630  0.07251794  0.86798239  1
  O2-  O435  1  0.16575848  0.33666042  0.18069301  1
  O2-  O436  1  0.17356978  0.33803939  0.52516387  1
  O2-  O437  1  0.16041621  0.32748119  0.86322120  1
  O2-  O438  1  0.17396640  0.58128078  0.17315259  1
  O2-  O439  1  0.15697162  0.58052681  0.50038389  1
  O2-  O440  1  0.13123194  0.56800102  0.88542828  1
  O2-  O441  1  0.18665753  0.84222860  0.18110213  1
  O2-  O442  1  0.16592183  0.84144944  0.52422820  1
  O2-  O443  1  0.16641417  0.84078769  0.83561740  1
  O2-  O444  1  0.43150346  0.09067700  0.19480710  1
  O2-  O445  1  0.41792926  0.08197321  0.51928079  1
  O2-  O446  1  0.40750839  0.08851944  0.86022238  1
  O2-  O447  1  0.39660731  0.30958512  0.20783747  1
  O2-  O448  1  0.42095363  0.33436829  0.51714984  1
  O2-  O449  1  0.42068511  0.35307585  0.85310034  1
  O2-  O450  1  0.41653781  0.57397886  0.18167719  1
  O2-  O451  1  0.44723625  0.60699414  0.51810071  1
  O2-  O452  1  0.40549050  0.58409263  0.85664639  1
  O2-  O453  1  0.41349736  0.82503052  0.17944737  1
  O2-  O454  1  0.40422588  0.83460772  0.52111312  1
  O2-  O455  1  0.41807039  0.83973837  0.84762744  1
  O2-  O456  1  0.67666742  0.08629816  0.18455658  1
  O2-  O457  1  0.68190674  0.12347968  0.53717154  1
  O2-  O458  1  0.65791817  0.07819915  0.85014732  1
  O2-  O459  1  0.69496470  0.29700101  0.21105356  1
  O2-  O460  1  0.65900563  0.32798745  0.51476165  1
  O2-  O461  1  0.65790120  0.32416222  0.86251857  1
  O2-  O462  1  0.67602418  0.60520632  0.19413278  1
  O2-  O463  1  0.65582145  0.58092365  0.52322854  1
  O2-  O464  1  0.66764379  0.57691815  0.83433138  1
  O2-  O465  1  0.64572636  0.81276683  0.18983577  1
  O2-  O466  1  0.64219782  0.81273640  0.52956595  1
  O2-  O467  1  0.65845868  0.83190595  0.85327527  1
  O2-  O468  1  0.89958868  0.07095931  0.19093810  1
  O2-  O469  1  0.92204267  0.08260959  0.50546071  1
  O2-  O470  1  0.90365645  0.07546261  0.84749484  1
  O2-  O471  1  0.90977590  0.32415010  0.19062433  1
  O2-  O472  1  0.92089363  0.31716551  0.51024323  1
  O2-  O473  1  0.89479780  0.30196454  0.87670623  1
  O2-  O474  1  0.90525608  0.58524267  0.19224287  1
  O2-  O475  1  0.90882327  0.59844041  0.52200800  1
  O2-  O476  1  0.91796247  0.55772067  0.86399015  1
  O2-  O477  1  0.92266126  0.84309764  0.18585878  1
  O2-  O478  1  0.91785532  0.84728080  0.51876719  1
  O2-  O479  1  0.90918093  0.83183198  0.85266698  1
  O2-  O480  1  0.17740153  0.10209368  0.31505810  1
  O2-  O481  1  0.15470039  0.08036382  0.63817892  1
  O2-  O482  1  0.15251462  0.06987127  0.99258028  1
  O2-  O483  1  0.18390717  0.35079265  0.30746243  1
  O2-  O484  1  0.16489622  0.33446198  0.64749242  1
  O2-  O485  1  0.19274341  0.31612816  0.98400920  1
  O2-  O486  1  0.19353077  0.60657536  0.28917451  1
  O2-  O487  1  0.19143273  0.57117976  0.65483772  1
  O2-  O488  1  0.10726258  0.57237490  0.99420838  1
  O2-  O489  1  0.17717873  0.83311301  0.30340572  1
  O2-  O490  1  0.17434407  0.83835984  0.64573785  1
  O2-  O491  1  0.17748540  0.83882290  1.02215503  1
  O2-  O492  1  0.41705761  0.08515343  0.31820252  1
  O2-  O493  1  0.43281345  0.08354028  0.63855435  1
  O2-  O494  1  0.40899828  0.09304583  0.98516781  1
  O2-  O495  1  0.40943778  0.33413380  0.32637029  1
  O2-  O496  1  0.41669378  0.34381452  0.64349068  1
  O2-  O497  1  0.46177644  0.36138495  0.97323734  1
  O2-  O498  1  0.41782071  0.57772813  0.30745718  1
  O2-  O499  1  0.39338864  0.60309703  0.64073099  1
  O2-  O500  1  0.41519360  0.60102704  0.97459731  1
  O2-  O501  1  0.43062808  0.88439872  0.29921615  1
  O2-  O502  1  0.41554091  0.82668822  0.64345188  1
  O2-  O503  1  0.41743877  0.83951537  0.97549504  1
  O2-  O504  1  0.66156577  0.06855018  0.30092779  1
  O2-  O505  1  0.66860452  0.07221800  0.64741349  1
  O2-  O506  1  0.67811504  0.08672885  0.96970535  1
  O2-  O507  1  0.56883957  0.33775722  0.24801279  1
  O2-  O508  1  0.66617155  0.34057444  0.63731071  1
  O2-  O509  1  0.67343928  0.32488965  0.98346928  1
  O2-  O510  1  0.66730710  0.59522603  0.31828661  1
  O2-  O511  1  0.72853066  0.66140878  0.63971870  1
  O2-  O512  1  0.67405244  0.59913405  0.96625208  1
  O2-  O513  1  0.62667137  0.80497842  0.31725028  1
  O2-  O514  1  0.66210471  0.83957509  0.64604527  1
  O2-  O515  1  0.65620038  0.83242271  0.97876259  1
  O2-  O516  1  0.87569797  0.03986293  0.30174143  1
  O2-  O517  1  0.91200690  0.08185916  0.65286855  1
  O2-  O518  1  0.83653367  0.05798574  0.96687946  1
  O2-  O519  1  0.87041084  0.30378200  0.31575212  1
  O2-  O520  1  0.91824347  0.32549286  0.64151178  1
  O2-  O521  1  0.83325334  0.23322690  0.98625760  1
  O2-  O522  1  0.90671987  0.58790667  0.31716564  1
  O2-  O523  1  0.93666268  0.58774574  0.64386334  1
  O2-  O524  1  0.91628999  0.58884086  0.98487161  1
  O2-  O525  1  0.92921438  0.83956805  0.30939023  1
  O2-  O526  1  0.87987409  0.81838507  0.63845016  1
  O2-  O527  1  0.90038872  0.84320744  0.97830803  1
  O2-  O528  1  0.07233628  0.15059739  0.03296265  1
  O2-  O529  1  0.10601798  0.19684836  0.35447286  1
  O2-  O530  1  0.08585210  0.17056514  0.69055070  1
  O2-  O531  1  -0.01071572  0.42464454  0.02448186  1
  O2-  O532  1  0.11387585  0.44898928  0.34499661  1
  O2-  O533  1  0.07912857  0.40968846  0.70260304  1
  O2-  O534  1  0.10282739  0.69114465  0.06352071  1
  O2-  O535  1  0.06821717  0.67290218  0.35824174  1
  O2-  O536  1  0.10952399  0.66446782  0.67429082  1
  O2-  O537  1  0.12911878  0.94208266  0.06365924  1
  O2-  O538  1  0.09501270  0.93166165  0.36299708  1
  O2-  O539  1  0.07670372  0.91039973  0.68690316  1
  O2-  O540  1  0.31607258  0.16102951  0.03991801  1
  O2-  O541  1  0.33483300  0.16902567  0.36074465  1
  O2-  O542  1  0.33961695  0.16145720  0.66014667  1
  O2-  O543  1  0.32531738  0.32053843  0.03324499  1
  O2-  O544  1  0.33661487  0.42358254  0.36029885  1
  O2-  O545  1  0.33171888  0.43347883  0.68639369  1
  O2-  O546  1  0.34896400  0.67900880  0.01541164  1
  O2-  O547  1  0.34991630  0.67747677  0.34530540  1
  O2-  O548  1  0.35234819  0.64795908  0.66970244  1
  O2-  O549  1  0.34439244  0.92864008  0.02092699  1
  O2-  O550  1  0.32827002  0.92162686  0.35633913  1
  O2-  O551  1  0.34101907  0.91668262  0.68621381  1
  O2-  O552  1  0.58255894  0.16129284  0.02315572  1
  O2-  O553  1  0.58159494  0.14760964  0.35179632  1
  O2-  O554  1  0.62292418  0.19420410  0.70284988  1
  O2-  O555  1  0.62205454  0.44285539  0.01602058  1
  O2-  O556  1  0.58046533  0.42534392  0.34811050  1
  O2-  O557  1  0.58288090  0.41620710  0.69404409  1
  O2-  O558  1  0.57793493  0.66634467  0.01517929  1
  O2-  O559  1  0.56726794  0.65294543  0.36857757  1
  O2-  O560  1  0.60827471  0.67979460  0.69113689  1
  O2-  O561  1  0.58413565  0.92324386  0.01975893  1
  O2-  O562  1  0.57138230  0.90726274  0.35982671  1
  O2-  O563  1  0.58785316  0.92200772  0.68692459  1
  O2-  O564  1  0.89176989  0.21078173  0.01801535  1
  O2-  O565  1  0.81629688  0.13165534  0.35036128  1
  O2-  O566  1  0.82399664  0.16678426  0.68290141  1
  O2-  O567  1  0.83784373  0.42458018  0.03174778  1
  O2-  O568  1  0.90609343  0.45145001  0.38973814  1
  O2-  O569  1  0.83995336  0.41691433  0.62575589  1
  O2-  O570  1  0.83301265  0.68654677  0.01832340  1
  O2-  O571  1  0.83273305  0.68313004  0.35431328  1
  O2-  O572  1  0.85885165  0.66811770  0.69996776  1
  O2-  O573  1  0.81981920  0.92018195  0.02734504  1
  O2-  O574  1  0.79263673  0.89386665  0.35504385  1
  O2-  O575  1  0.82893531  0.92114310  0.68396799  1
