# generated using pymatgen
data_H2O
_symmetry_space_group_name_H-M   'P 1'
_cell_length_a   17.99737617
_cell_length_b   18.00398008
_cell_length_c   22.01358141
_cell_angle_alpha   90.01253235
_cell_angle_beta   89.99135172
_cell_angle_gamma   120.01155587
_symmetry_Int_Tables_number   1
_chemical_formula_structural   H2O
_chemical_formula_sum   'H384 O192'
_cell_volume   6176.58553107
_cell_formula_units_Z   192
loop_
 _symmetry_equiv_pos_site_id
 _symmetry_equiv_pos_as_xyz
  1  'x, y, z'
loop_
 _atom_type_symbol
 _atom_type_oxidation_number
  H+  1.0
  O2-  -2.0
loop_
 _atom_site_type_symbol
 _atom_site_label
 _atom_site_symmetry_multiplicity
 _atom_site_fract_x
 _atom_site_fract_y
 _atom_site_fract_z
 _atom_site_occupancy
  H+  H0  1  0.26530560  0.87808941  0.83769375  1
  H+  H1  1  0.80336660  0.91142523  0.69256525  1
  H+  H2  1  0.37119482  0.89779962  0.32878563  1
  H+  H3  1  0.13943585  0.33020214  0.57110938  1
  H+  H4  1  0.74562161  0.14314047  0.84647945  1
  H+  H5  1  0.84011105  0.21776289  0.83579601  1
  H+  H6  1  0.77370806  0.64592112  0.14676007  1
  H+  H7  1  0.14362370  0.55551541  0.31788231  1
  H+  H8  1  0.86533537  0.40906760  0.33589866  1
  H+  H9  1  0.98280977  0.59999398  0.51709718  1
  H+  H10  1  0.10600455  0.87574120  0.83872011  1
  H+  H11  1  0.53016042  0.88080737  0.82740063  1
  H+  H12  1  0.38203897  0.10517771  0.83322090  1
  H+  H13  1  0.33641521  0.17545370  0.39258048  1
  H+  H14  1  -0.03454289  0.36121274  0.17336802  1
  H+  H15  1  0.87865904  0.62342166  0.34980205  1
  H+  H16  1  0.10581261  0.71568665  0.15511464  1
  H+  H17  1  0.84420424  0.73202494  0.99559802  1
  H+  H18  1  0.11714708  0.45393509  0.83619212  1
  H+  H19  1  0.60530479  0.15692939  0.28994996  1
  H+  H20  1  0.37258360  0.34987423  0.83771859  1
  H+  H21  1  0.25957716  0.84151781  0.68747840  1
  H+  H22  1  0.37680888  0.23865579  0.82224901  1
  H+  H23  1  0.87771026  0.23186303  1.00051359  1
  H+  H24  1  0.32053885  0.38819144  0.59075673  1
  H+  H25  1  0.31811272  0.38766146  0.72106570  1
  H+  H26  1  1.02566578  0.13372770  1.00444342  1
  H+  H27  1  0.60874226  0.36031997  0.82685440  1
  H+  H28  1  0.13833151  0.77551498  0.84675475  1
  H+  H29  1  0.10784205  0.72479161  0.49747366  1
  H+  H30  1  0.92310408  0.07295927  0.92998934  1
  H+  H31  1  0.23890465  0.33988526  0.80306068  1
  H+  H32  1  0.35197910  0.50893932  0.29426217  1
  H+  H33  1  0.90126404  0.77452661  0.30400896  1
  H+  H34  1  0.42475009  0.59016324  0.52147372  1
  H+  H35  1  0.38082595  0.83195843  0.67403857  1
  H+  H36  1  0.62749463  0.85171625  0.50422439  1
  H+  H37  1  0.86456623  0.49732077  0.34628536  1
  H+  H38  1  0.86995456  0.52759349  0.16849378  1
  H+  H39  1  0.38267811  0.86150620  0.16810853  1
  H+  H40  1  0.86904189  0.46671447  0.49920824  1
  H+  H41  1  0.11574448  0.32618849  0.82872993  1
  H+  H42  1  0.70564921  0.76560486  0.53361416  1
  H+  H43  1  0.13120971  1.01759292  -0.01032283  1
  H+  H44  1  0.53581541  0.74573095  0.71456230  1
  H+  H45  1  0.98178864  0.11115664  0.32028169  1
  H+  H46  1  0.58946733  0.12458104  0.13937529  1
  H+  H47  1  0.85078363  0.22348877  0.14775819  1
  H+  H48  1  0.08947438  0.16660133  0.09291134  1
  H+  H49  1  0.14099527  0.25997898  0.98528466  1
  H+  H50  1  0.45457938  0.62348922  -0.00408676  1
  H+  H51  1  0.35316088  0.96500664  0.83010073  1
  H+  H52  1  0.64194228  0.50629492  0.81457551  1
  H+  H53  1  0.39447128  0.85838493  0.84309648  1
  H+  H54  1  0.26237226  0.37306948  0.31366335  1
  H+  H55  1  0.13840674  0.27234263  0.16349358  1
  H+  H56  1  0.54781486  0.38921420  0.14964805  1
  H+  H57  1  0.64921880  0.76991895  0.32145794  1
  H+  H58  1  0.48402976  0.35988209  0.31693872  1
  H+  H59  1  0.43371536  1.09832378  0.55347384  1
  H+  H60  1  0.21690474  0.61952230  0.50837733  1
  H+  H61  1  0.78279567  0.61516576  0.50041432  1
  H+  H62  1  0.35204339  0.72752192  0.14378987  1
  H+  H63  1  0.88317217  0.61876660  0.86002210  1
  H+  H64  1  0.35163028  0.98499700  -0.00369135  1
  H+  H65  1  0.35933135  0.23168468  0.00569940  1
  H+  H66  1  0.88656223  0.87039097  1.00110667  1
  H+  H67  1  0.90057073  0.86914489  0.15976619  1
  H+  H68  1  0.64773085  0.28404228  0.31513090  1
  H+  H69  1  0.21836449  0.36502346  0.52615491  1
  H+  H70  1  -0.13402790  0.05349897  0.69252090  1
  H+  H71  1  0.11424901  0.74395021  0.34148386  1
  H+  H72  1  0.71263010  0.62009359  -0.01351115  1
  H+  H73  1  0.97942503  0.34231700  0.85094638  1
  H+  H74  1  0.63587480  0.27060285  0.49307093  1
  H+  H75  1  0.37804172  0.22824313  0.48872085  1
  H+  H76  1  0.26666193  0.37626159  -0.00424833  1
  H+  H77  1  0.25498661  0.58155337  0.82587204  1
  H+  H78  1  0.08123588  0.67366209  0.43473133  1
  H+  H79  1  0.42911508  0.60367746  0.29174829  1
  H+  H80  1  0.12416377  0.48891885  0.48813618  1
  H+  H81  1  0.67311296  0.32785598  0.83521457  1
  H+  H82  1  0.56962991  0.88631630  0.39366109  1
  H+  H83  1  0.53957439  0.13480700  0.67371994  1
  H+  H84  1  0.19101266  0.88927837  0.54179607  1
  H+  H85  1  0.89298397  0.59444188  0.52428486  1
  H+  H86  1  0.64119767  0.34886900  0.67123655  1
  H+  H87  1  0.86707155  0.12550412  0.33565620  1
  H+  H88  1  0.72841799  0.09219167  0.67043138  1
  H+  H89  1  0.08818525  0.53249363  0.89241085  1
  H+  H90  1  0.89379041  1.00328545  0.15368358  1
  H+  H91  1  0.85821062  0.38142556  1.02981677  1
  H+  H92  1  -0.02879323  0.63177785  0.34237057  1
  H+  H93  1  0.18330907  0.10743518  0.74424764  1
  H+  H94  1  0.38467148  0.36124980  0.30785466  1
  H+  H95  1  0.09908287  0.46675495  0.67621586  1
  H+  H96  1  0.60330031  0.98609436  0.49197889  1
  H+  H97  1  0.90212217  0.54257528  0.85331816  1
  H+  H98  1  0.10789072  0.95298285  0.68179958  1
  H+  H99  1  0.86280861  0.18174935  0.69173007  1
  H+  H100  1  0.35590437  0.74506876  0.49775507  1
  H+  H101  1  0.10797001  0.16273553  0.49790604  1
  H+  H102  1  0.21328612  0.60324647  0.66091096  1
  H+  H103  1  0.10669891  0.25630366  0.66078807  1
  H+  H104  1  0.84730017  0.81618775  0.54115322  1
  H+  H105  1  0.22403838  0.85473204  0.16533066  1
  H+  H106  1  0.17773786  0.57282349  0.92471842  1
  H+  H107  1  0.33358300  0.61946407  -0.00650510  1
  H+  H108  1  0.59806848  0.88304945  0.18846443  1
  H+  H109  1  1.01648474  0.88272384  1.00187110  1
  H+  H110  1  0.15253425  0.57693137  0.60146925  1
  H+  H111  1  0.28107951  0.37594874  0.15662776  1
  H+  H112  1  0.62097278  0.01976504  0.07312832  1
  H+  H113  1  0.45959335  0.60885593  0.15044626  1
  H+  H114  1  0.61912768  0.61280467  -0.01774874  1
  H+  H115  1  0.07527272  0.42091766  0.07845988  1
  H+  H116  1  0.99239273  0.59630687  1.00726451  1
  H+  H117  1  0.11075836  0.38439511  0.16844646  1
  H+  H118  1  0.63467336  0.86054746  0.97953461  1
  H+  H119  1  0.64384215  0.40075217  0.14377136  1
  H+  H120  1  0.35750365  1.03312005  0.72517221  1
  H+  H121  1  0.76995663  0.89136741  1.00470517  1
  H+  H122  1  0.90064166  0.87899672  0.67759386  1
  H+  H123  1  0.88994723  0.61370212  0.66808524  1
  H+  H124  1  0.64795041  0.26439550  0.68465815  1
  H+  H125  1  0.36096784  0.14132646  0.00273108  1
  H+  H126  1  0.46388175  0.09420183  0.84102664  1
  H+  H127  1  0.86401129  0.72551835  0.67980974  1
  H+  H128  1  0.39224201  0.34600476  0.52634151  1
  H+  H129  1  0.89343009  0.02253871  0.31343285  1
  H+  H130  1  0.61642986  -0.03681847  0.66959675  1
  H+  H131  1  0.61612134  0.75174786  0.68407373  1
  H+  H132  1  0.42629510  0.16082216  0.65439785  1
  H+  H133  1  0.64038033  0.62322764  0.83683488  1
  H+  H134  1  0.72330542  0.09402767  0.35826786  1
  H+  H135  1  0.33167062  0.41536435  0.36486895  1
  H+  H136  1  0.10235096  0.85092001  0.50888746  1
  H+  H137  1  0.37844840  0.86623602  0.51339572  1
  H+  H138  1  0.77443800  0.65030564  0.83014803  1
  H+  H139  1  0.62093873  0.12255107  0.68162094  1
  H+  H140  1  0.46719778  1.12254694  0.16199576  1
  H+  H141  1  0.30916318  0.17995546  0.72242149  1
  H+  H142  1  0.91940810  0.57556602  0.95898428  1
  H+  H143  1  0.88933301  1.02842857  -0.00639511  1
  H+  H144  1  0.37751586  0.58638554  0.83736618  1
  H+  H145  1  0.00808130  0.11229479  0.68687450  1
  H+  H146  1  0.34843207  0.29893058  0.66433542  1
  H+  H147  1  0.64287333  1.11560912  0.51013845  1
  H+  H148  1  0.73021247  0.37783397  0.32537938  1
  H+  H149  1  0.77355522  0.86208128  0.51384969  1
  H+  H150  1  0.60147495  0.48049407  -0.00318847  1
  H+  H151  1  0.67574045  0.07791419  0.60771811  1
  H+  H152  1  0.25467403  0.12675641  0.14945707  1
  H+  H153  1  0.86825311  0.88484708  0.32296879  1
  H+  H154  1  0.09890212  0.37788199  0.67629442  1
  H+  H155  1  0.64184024  0.59270726  0.30967983  1
  H+  H156  1  0.38276025  0.77844621  0.32546648  1
  H+  H157  1  0.27520217  0.89199721  0.47711599  1
  H+  H158  1  0.61092888  0.35772777  -0.01261627  1
  H+  H159  1  0.29262315  0.13476128  0.48507297  1
  H+  H160  1  0.80084682  0.70503636  0.37660920  1
  H+  H161  1  0.34497245  0.61381010  0.67163326  1
  H+  H162  1  0.13358290  0.02163414  0.16730618  1
  H+  H163  1  0.64192273  0.50630055  0.47012244  1
  H+  H164  1  0.23453414  0.87460539  0.31970304  1
  H+  H165  1  0.72878948  0.11295312  0.50745980  1
  H+  H166  1  0.27277624  0.14259514  0.33306994  1
  H+  H167  1  0.10051896  0.71043816  0.67888950  1
  H+  H168  1  0.52218864  0.14247398  0.32303945  1
  H+  H169  1  0.12823662  0.71952717  0.00563521  1
  H+  H170  1  0.60318516  0.37068665  0.32100706  1
  H+  H171  1  0.86685402  0.46479333  0.68115067  1
  H+  H172  1  0.61103578  0.37473116  0.48023553  1
  H+  H173  1  0.38782889  0.12266592  0.32241435  1
  H+  H174  1  0.77732554  0.63477239  0.67144835  1
  H+  H175  1  0.39443862  0.51247606  0.67230329  1
  H+  H176  1  0.87452995  0.25818003  0.49793929  1
  H+  H177  1  0.71038662  0.10110301  0.13808946  1
  H+  H178  1  0.10179010  0.61775498  0.67398595  1
  H+  H179  1  0.65231078  0.60019607  0.48408896  1
  H+  H180  1  0.13170305  0.25754802  0.32370424  1
  H+  H181  1  0.61162143  -0.04267040  0.34634235  1
  H+  H182  1  0.90523547  0.36403530  0.84718944  1
  H+  H183  1  0.86164514  0.64213653  0.14746130  1
  H+  H184  1  0.81447045  0.28681042  0.30060592  1
  H+  H185  1  0.18398286  0.04593392  0.48972199  1
  H+  H186  1  0.36418001  0.45197141  0.53801867  1
  H+  H187  1  0.38243690  0.04093365  0.69626124  1
  H+  H188  1  0.25143177  0.23031808  0.54335937  1
  H+  H189  1  0.77915892  0.88539766  0.32433856  1
  H+  H190  1  0.81444622  0.91978221  0.17442150  1
  H+  H191  1  0.46719831  0.87060437  0.50941386  1
  H+  H192  1  0.41115759  0.09714897  0.22502548  1
  H+  H193  1  0.58750841  0.61555558  0.14813706  1
  H+  H194  1  0.21883065  0.86199484  -0.00684476  1
  H+  H195  1  0.10925884  0.14528635  0.69211515  1
  H+  H196  1  0.60135540  0.84016790  0.53295141  1
  H+  H197  1  0.38209345  0.99793462  0.15485233  1
  H+  H198  1  0.11854886  0.83610545  0.67177078  1
  H+  H199  1  0.41676327  0.52844947  0.85765949  1
  H+  H200  1  -0.03720989  0.60839670  0.15909391  1
  H+  H201  1  0.62462782  1.01452290  0.16202525  1
  H+  H202  1  0.12257209  0.34105920  0.32435976  1
  H+  H203  1  0.88729981  0.77195834  0.15821556  1
  H+  H204  1  0.31839820  0.87488148  0.74702114  1
  H+  H205  1  0.59955302  0.72877060  0.99614912  1
  H+  H206  1  0.64198411  0.52162337  0.64876414  1
  H+  H207  1  0.66839395  1.03938068  -0.01738900  1
  H+  H208  1  0.96824069  0.34991248  0.65300136  1
  H+  H209  1  0.03070527  0.14413285  0.15273848  1
  H+  H210  1  0.49318167  0.91392162  0.99464316  1
  H+  H211  1  0.51307032  0.88691975  0.18764272  1
  H+  H212  1  0.10886319  0.65414758  0.33987415  1
  H+  H213  1  0.43771862  0.97396645  0.11466665  1
  H+  H214  1  0.58531013  0.70286689  0.15590008  1
  H+  H215  1  0.77786899  0.37666246  0.68867848  1
  H+  H216  1  0.11550949  0.13055475  0.33810560  1
  H+  H217  1  0.66348021  0.58720483  0.89651894  1
  H+  H218  1  0.55715440  0.62908292  0.52519482  1
  H+  H219  1  0.88175682  0.75118236  0.53286561  1
  H+  H220  1  0.85527070  0.20778634  0.33012567  1
  H+  H221  1  0.09329702  0.23738988  0.48405718  1
  H+  H222  1  0.57609864  0.20206230  0.82935601  1
  H+  H223  1  0.26283507  0.63731250  0.14673518  1
  H+  H224  1  0.13387857  0.11246764  0.16638275  1
  H+  H225  1  0.46751717  0.11513691  0.98481965  1
  H+  H226  1  0.12060529  0.48188895  0.02206644  1
  H+  H227  1  0.65465284  0.78625413  0.84322303  1
  H+  H228  1  0.23327803  0.10615032  0.82009112  1
  H+  H229  1  0.46711835  0.36293709  0.99121865  1
  H+  H230  1  0.72178741  0.35971446  0.49888822  1
  H+  H231  1  0.72117072  0.58059265  0.30951858  1
  H+  H232  1  0.12460225  0.85091400  0.99558935  1
  H+  H233  1  0.63734635  0.85244577  0.32121016  1
  H+  H234  1  0.21805090  0.10746258  0.99009524  1
  H+  H235  1  0.05786872  0.42191442  0.33013297  1
  H+  H236  1  0.13970364  0.64420522  0.83942781  1
  H+  H237  1  0.37980892  0.26588873  0.32176698  1
  H+  H238  1  0.88003221  0.35655589  0.50007838  1
  H+  H239  1  0.47989832  0.35232399  0.50322778  1
  H+  H240  1  0.47582938  0.85980062  0.31828642  1
  H+  H241  1  0.35159759  0.13403734  0.15123384  1
  H+  H242  1  0.22944951  0.64224331  0.32388729  1
  H+  H243  1  -0.01704020  0.33736215  0.35160492  1
  H+  H244  1  0.40688350  0.36569627  0.15730166  1
  H+  H245  1  0.47141168  0.61308155  0.67844256  1
  H+  H246  1  0.29927258  0.43933247  0.79895127  1
  H+  H247  1  0.82054008  0.41159771  0.10497875  1
  H+  H248  1  0.60051543  0.45788269  0.31879633  1
  H+  H249  1  0.37702032  0.36075720  0.99077936  1
  H+  H250  1  0.34953515  0.65415594  0.49370555  1
  H+  H251  1  0.38908354  1.03365179  0.31947348  1
  H+  H252  1  0.68601915  0.83341396  0.15748321  1
  H+  H253  1  0.54898683  0.62866867  0.35080917  1
  H+  H254  1  1.02595508  0.88863425  0.32442884  1
  H+  H255  1  0.19452108  1.03179185  0.51960780  1
  H+  H256  1  0.81552481  0.40397317  0.83937036  1
  H+  H257  1  0.64085314  0.52509837  0.15109513  1
  H+  H258  1  0.64393895  0.60799359  0.66113761  1
  H+  H259  1  0.74647235  0.61556773  0.40998888  1
  H+  H260  1  0.87357849  0.47817249  1.02973430  1
  H+  H261  1  0.02817056  0.88513438  0.15388201  1
  H+  H262  1  0.87412235  0.36081392  0.17195590  1
  H+  H263  1  0.51858317  0.39045261  0.66656087  1
  H+  H264  1  0.36867004  0.62511439  0.14367213  1
  H+  H265  1  0.52813738  0.13142314  0.47973347  1
  H+  H266  1  0.01329418  0.87173031  0.68218459  1
  H+  H267  1  0.14208934  1.02536168  0.32072820  1
  H+  H268  1  0.86195813  0.14154849  0.49202064  1
  H+  H269  1  0.12960350  0.39004928  0.49929040  1
  H+  H270  1  0.59546254  0.22712410  -0.00659323  1
  H+  H271  1  0.13464858  0.61356886  0.16405652  1
  H+  H272  1  0.11880379  0.88917318  0.15416051  1
  H+  H273  1  0.90185456  0.93923057  0.47003916  1
  H+  H274  1  0.77218354  0.12246929  0.97728937  1
  H+  H275  1  1.00210299  0.61686337  0.67767077  1
  H+  H276  1  0.90667135  0.97525753  0.86345024  1
  H+  H277  1  0.89088024  0.12516931  0.16384117  1
  H+  H278  1  0.58859379  0.90624143  0.76774664  1
  H+  H279  1  0.87618890  0.03730293  0.49977153  1
  H+  H280  1  0.52936632  0.87149623  0.66882671  1
  H+  H281  1  0.20067122  0.33847927  0.65833426  1
  H+  H282  1  0.14137605  0.01919259  0.81767707  1
  H+  H283  1  0.12431868  0.60936852  0.50499536  1
  H+  H284  1  0.63638993  0.09658405  0.35477579  1
  H+  H285  1  0.60740561  0.14696142  -0.02034565  1
  H+  H286  1  0.96522434  0.12299942  0.50353196  1
  H+  H287  1  -0.01242894  0.86395475  0.49550706  1
  H+  H288  1  0.69525444  0.47497949  0.77739509  1
  H+  H289  1  0.59217172  0.16209627  0.42312710  1
  H+  H290  1  0.11220873  0.12779504  0.00407905  1
  H+  H291  1  0.43998364  0.57049832  0.58920311  1
  H+  H292  1  0.07996080  0.40683870  0.77170943  1
  H+  H293  1  0.38175968  0.57514256  0.20453584  1
  H+  H294  1  0.65657077  0.81434147  0.22781493  1
  H+  H295  1  0.34852953  0.47098275  0.00311561  1
  H+  H296  1  0.62554780  0.65842060  0.39463057  1
  H+  H297  1  0.56149843  0.16018886  0.08469657  1
  H+  H298  1  0.11118386  0.47441368  0.17083666  1
  H+  H299  1  0.32131911  0.67709678  0.40317341  1
  H+  H300  1  0.91831372  0.33456482  0.94415466  1
  H+  H301  1  0.07567541  0.95068461  0.48684946  1
  H+  H302  1  0.91707736  0.83559541  0.61814720  1
  H+  H303  1  0.67538568  0.83702218  0.92336430  1
  H+  H304  1  0.56576608  0.66581792  0.05432554  1
  H+  H305  1  0.66615272  0.87342458  0.66103464  1
  H+  H306  1  0.31452363  0.36825967  0.43557556  1
  H+  H307  1  0.58881688  0.42595287  0.71844553  1
  H+  H308  1  0.19273610  0.14381069  0.57719781  1
  H+  H309  1  0.88436578  0.14207708  -0.00416154  1
  H+  H310  1  0.14681425  0.63929488  0.01120159  1
  H+  H311  1  0.81165529  0.13448243  0.75124792  1
  H+  H312  1  0.50247850  0.22227577  0.61276396  1
  H+  H313  1  0.33359728  0.40478253  0.09598210  1
  H+  H314  1  0.15649036  0.82986721  0.90839403  1
  H+  H315  1  0.34285304  0.92702956  0.38868955  1
  H+  H316  1  0.83254869  0.66794525  0.77055264  1
  H+  H317  1  0.64843653  0.87138668  0.84162043  1
  H+  H318  1  0.83727108  0.16721549  0.08801163  1
  H+  H319  1  0.59367039  0.70550129  0.48036567  1
  H+  H320  1  0.08112488  0.16177805  0.39624806  1
  H+  H321  1  0.30147560  0.65766059  0.05129573  1
  H+  H322  1  0.58387038  0.42334460  0.05667446  1
  H+  H323  1  0.66671716  0.11248575  0.25105399  1
  H+  H324  1  0.66230247  0.57824969  0.21138751  1
  H+  H325  1  0.33917871  0.63503547  0.34379390  1
  H+  H326  1  0.90821174  0.32169686  0.56345401  1
  H+  H327  1  0.30309970  0.60651267  0.76214506  1
  H+  H328  1  0.40210206  0.08347899  0.92830650  1
  H+  H329  1  0.33080493  0.92776239  0.05569431  1
  H+  H330  1  0.98436851  0.86854108  0.82717363  1
  H+  H331  1  0.86276651  0.66259428  0.45956120  1
  H+  H332  1  0.92310982  0.83436923  0.24624194  1
  H+  H333  1  0.14482674  0.87422429  0.31913455  1
  H+  H334  1  0.71793270  0.84203082  0.61690332  1
  H+  H335  1  0.84168202  0.92885795  0.41533836  1
  H+  H336  1  0.89207285  0.31969252  0.25535274  1
  H+  H337  1  0.43472260  0.84428653  0.90187084  1
  H+  H338  1  0.32165319  0.16196866  0.08232712  1
  H+  H339  1  0.56877973  0.13966170  0.77692873  1
  H+  H340  1  0.53943759  0.97164856  0.44083959  1
  H+  H341  1  0.62362321  0.31941644  0.92657787  1
  H+  H342  1  0.35220744  0.70545703  0.67594722  1
  H+  H343  1  0.43116183  0.32291542  0.21033333  1
  H+  H344  1  0.13743941  0.80267824  0.61003534  1
  H+  H345  1  0.88267910  0.77583227  0.82413581  1
  H+  H346  1  0.60863611  0.93296932  0.04665071  1
  H+  H347  1  0.40472553  0.32631036  0.89852045  1
  H+  H348  1  0.36448834  0.97983929  0.48744355  1
  H+  H349  1  0.39568664  0.88458714  -0.01064813  1
  H+  H350  1  0.08002419  0.89795547  0.77363884  1
  H+  H351  1  0.16911677  0.08496921  0.26114601  1
  H+  H352  1  0.41128202  0.81694437  0.60950611  1
  H+  H353  1  0.08458373  0.41273884  0.43198342  1
  H+  H354  1  0.08750946  0.65897704  0.09505468  1
  H+  H355  1  0.97634447  0.36779674  1.00437815  1
  H+  H356  1  0.67693233  0.15432377  0.23601401  1
  H+  H357  1  0.56969987  0.39407250  0.42093503  1
  H+  H358  1  0.17177983  0.83522059  0.22711874  1
  H+  H359  1  0.40050555  0.58852094  0.93596652  1
  H+  H360  1  0.90740134  0.85061061  0.93625851  1
  H+  H361  1  0.36265814  0.39894773  0.43532078  1
  H+  H362  1  0.92218288  0.57692226  0.61100273  1
  H+  H363  1  0.85650887  0.42015793  0.77300781  1
  H+  H364  1  0.92471180  0.09837082  0.22396465  1
  H+  H365  1  0.16778092  0.30311281  0.92063058  1
  H+  H366  1  0.20076674  0.09110779  0.67433887  1
  H+  H367  1  0.17668116  0.60328400  0.22470874  1
  H+  H368  1  0.39552337  0.81970361  0.22889461  1
  H+  H369  1  0.83905750  0.42016450  0.43372663  1
  H+  H370  1  0.87832786  0.34355047  0.65482766  1
  H+  H371  1  0.39935075  0.11530709  0.49235858  1
  H+  H372  1  0.82927760  0.92578326  0.06517664  1
  H+  H373  1  0.81790043  0.66972655  0.05171232  1
  H+  H374  1  0.07966658  0.91318804  0.05953682  1
  H+  H375  1  0.07033466  0.90843467  0.38918588  1
  H+  H376  1  0.71845674  0.36381625  0.21530775  1
  H+  H377  1  0.58242730  0.68484589  0.77563604  1
  H+  H378  1  0.53130303  0.65003191  0.83737951  1
  H+  H379  1  0.96554078  0.07158352  0.84020655  1
  H+  H380  1  0.07897835  0.19988977  0.77393460  1
  H+  H381  1  0.83349922  0.16872901  0.42949802  1
  H+  H382  1  0.09609569  0.65729263  0.78076148  1
  H+  H383  1  0.16268598  0.32214252  0.22633675  1
  O2-  O384  1  0.09137822  0.16842208  0.13943396  1
  O2-  O385  1  0.07069870  0.17670870  0.47282870  1
  O2-  O386  1  0.07658795  0.20265187  0.81901652  1
  O2-  O387  1  0.07570365  0.41264742  0.16050047  1
  O2-  O388  1  0.10169790  0.42650020  0.47545781  1
  O2-  O389  1  0.08489615  0.39752721  0.81596472  1
  O2-  O390  1  0.07892195  0.65573780  0.14076074  1
  O2-  O391  1  0.08032746  0.66644515  0.48038940  1
  O2-  O392  1  0.12512373  0.68370919  0.81881888  1
  O2-  O393  1  0.08931566  0.92056998  0.14050874  1
  O2-  O394  1  0.04454291  0.89056740  0.47385378  1
  O2-  O395  1  0.07605095  0.90531414  0.81814303  1
  O2-  O396  1  0.31582579  0.15729190  0.13206393  1
  O2-  O397  1  0.34986115  0.16924188  0.46714807  1
  O2-  O398  1  0.35229412  0.17874826  0.80163856  1
  O2-  O399  1  0.34028891  0.40296192  0.14070955  1
  O2-  O400  1  0.31917645  0.39176076  0.54621965  1
  O2-  O401  1  0.29810824  0.38554628  0.78966591  1
  O2-  O402  1  0.32171573  0.66787546  0.12580140  1
  O2-  O403  1  0.31979875  0.68382973  0.47997441  1
  O2-  O404  1  0.29436795  0.57279549  0.80014792  1
  O2-  O405  1  0.38057591  0.94759503  0.13302560  1
  O2-  O406  1  0.33693858  0.92010268  0.46956927  1
  O2-  O407  1  0.32369712  0.90257186  0.81981372  1
  O2-  O408  1  0.55502420  0.15191096  0.12955351  1
  O2-  O409  1  0.59005836  0.16170122  0.46766550  1
  O2-  O410  1  0.55865721  0.14175729  0.82097070  1
  O2-  O411  1  0.60749056  0.42537917  0.13244091  1
  O2-  O412  1  0.57799488  0.40440291  0.46512423  1
  O2-  O413  1  0.63608357  0.45601763  0.78907346  1
  O2-  O414  1  0.55391891  0.64492062  0.13679215  1
  O2-  O415  1  0.61103032  0.66952830  0.50246775  1
  O2-  O416  1  0.58967243  0.67629867  0.81937541  1
  O2-  O417  1  0.57519388  0.92153267  0.19687245  1
  O2-  O418  1  0.55489787  0.93881463  0.46816613  1
  O2-  O419  1  0.59089264  0.90777761  0.81231235  1
  O2-  O420  1  0.82775362  0.16358057  0.13315576  1
  O2-  O421  1  0.83131946  0.17313752  0.47476123  1
  O2-  O422  1  0.79325841  0.16550705  0.81687560  1
  O2-  O423  1  0.81465893  0.41094998  0.15741994  1
  O2-  O424  1  0.83798276  0.40960641  0.47863153  1
  O2-  O425  1  0.87007427  0.43137899  0.81789153  1
  O2-  O426  1  0.83457685  0.67756011  0.13363751  1
  O2-  O427  1  0.84711135  0.65057718  0.50265253  1
  O2-  O428  1  0.83558426  0.67929276  0.81505121  1
  O2-  O429  1  0.86103409  0.93919700  0.14511465  1
  O2-  O430  1  0.84739749  0.93613695  0.46070101  1
  O2-  O431  1  0.88595794  0.87378768  0.87358328  1
  O2-  O432  1  0.16501832  0.08259795  0.18263181  1
  O2-  O433  1  0.19264935  0.18288809  0.54675025  1
  O2-  O434  1  0.17267737  0.08141094  0.80776078  1
  O2-  O435  1  0.16685131  0.33133592  0.18191849  1
  O2-  O436  1  0.15434598  0.34233028  0.52615617  1
  O2-  O437  1  0.14383180  0.29016520  0.83534934  1
  O2-  O438  1  0.17239169  0.59066719  0.18059061  1
  O2-  O439  1  0.15587086  0.57982839  0.52016016  1
  O2-  O440  1  0.14887191  0.55686630  0.88217614  1
  O2-  O441  1  0.16613513  0.83024403  0.18172082  1
  O2-  O442  1  0.14329910  0.83461571  0.52773159  1
  O2-  O443  1  0.15776833  0.83462000  0.86246676  1
  O2-  O444  1  0.40621495  0.09438100  0.17987863  1
  O2-  O445  1  0.42554717  0.08215104  0.50970097  1
  O2-  O446  1  0.40125076  0.06944802  0.85464865  1
  O2-  O447  1  0.44605350  0.34308820  0.16873372  1
  O2-  O448  1  0.42326161  0.31398134  0.52288413  1
  O2-  O449  1  0.40731789  0.32586263  0.85297978  1
  O2-  O450  1  0.39542833  0.58825489  0.16011486  1
  O2-  O451  1  0.45132579  0.56333152  0.54449374  1
  O2-  O452  1  0.42449982  0.58572401  0.86266386  1
  O2-  O453  1  0.39783141  0.81877805  0.18349039  1
  O2-  O454  1  0.40798635  0.83491455  0.52698322  1
  O2-  O455  1  0.42979919  0.83391081  0.85732783  1
  O2-  O456  1  0.64677354  0.06637499  0.13456424  1
  O2-  O457  1  0.67036071  0.08339445  0.52591531  1
  O2-  O458  1  0.68104156  0.13085506  0.92338423  1
  O2-  O459  1  0.72065684  0.36307511  0.17037315  1
  O2-  O460  1  0.65938901  0.33072465  0.50670117  1
  O2-  O461  1  0.61465763  0.31290117  0.84525202  1
  O2-  O462  1  0.65889014  0.58463962  0.16704062  1
  O2-  O463  1  0.68270735  0.57105862  0.46868610  1
  O2-  O464  1  0.67129813  0.59272695  0.85055845  1
  O2-  O465  1  0.63637713  0.80552718  0.18425437  1
  O2-  O466  1  0.75580369  0.81958885  0.54749819  1
  O2-  O467  1  0.68241371  0.84527427  0.85938884  1
  O2-  O468  1  0.92622506  0.09976238  0.17863754  1
  O2-  O469  1  0.90471839  0.09541418  0.51747132  1
  O2-  O470  1  0.91431008  0.03479020  0.86370786  1
  O2-  O471  1  0.90316119  0.32784740  0.18458963  1
  O2-  O472  1  0.90747970  0.32197191  0.51615507  1
  O2-  O473  1  0.92096010  0.32374385  0.86634478  1
  O2-  O474  1  0.90438879  0.59041622  0.17408083  1
  O2-  O475  1  0.92551262  0.56517318  0.53683763  1
  O2-  O476  1  0.91136068  0.59038152  0.87968990  1
  O2-  O477  1  0.92339087  0.83287472  0.17585409  1
  O2-  O478  1  0.90150158  0.81281229  0.54136427  1
  O2-  O479  1  0.91698954  0.84299410  0.82314501  1
  O2-  O480  1  0.17249791  0.08636991  0.30683248  1
  O2-  O481  1  0.19985515  0.13462504  0.70004834  1
  O2-  O482  1  0.15779958  0.07853470  0.97659981  1
  O2-  O483  1  0.15863057  0.31863858  0.30835693  1
  O2-  O484  1  0.14123109  0.31712200  0.64451378  1
  O2-  O485  1  0.17489486  0.31631519  0.96420854  1
  O2-  O486  1  0.17086881  0.61494550  0.30442847  1
  O2-  O487  1  0.15158656  0.57605131  0.64678772  1
  O2-  O488  1  0.20250794  0.58855418  0.99502891  1
  O2-  O489  1  0.17366372  0.84209641  0.30528409  1
  O2-  O490  1  0.14164307  0.79967838  0.65456626  1
  O2-  O491  1  0.15750936  0.82243623  0.98159669  1
  O2-  O492  1  0.41899528  0.09479248  0.30512114  1
  O2-  O493  1  0.46334919  0.16159695  0.62141161  1
  O2-  O494  1  0.40460712  0.08773568  0.97425270  1
  O2-  O495  1  0.41540688  0.32731111  0.30281199  1
  O2-  O496  1  0.38793550  0.36129034  0.66236682  1
  O2-  O497  1  0.40595918  0.32816030  0.97686312  1
  O2-  O498  1  0.36879075  0.56877533  0.28059052  1
  O2-  O499  1  0.41694171  0.57225048  0.65746260  1
  O2-  O500  1  0.39322170  0.58991634  0.98109325  1
  O2-  O501  1  0.41442575  0.83594101  0.30613171  1
  O2-  O502  1  0.41547247  0.80821076  0.65344357  1
  O2-  O503  1  0.43777412  0.86524441  0.98246752  1
  O2-  O504  1  0.66056307  0.06050231  0.36634326  1
  O2-  O505  1  0.66987612  0.07051517  0.65253806  1
  O2-  O506  1  0.71420431  0.07935327  0.95229936  1
  O2-  O507  1  0.67437694  0.34525007  0.30306837  1
  O2-  O508  1  0.67996287  0.32522350  0.67090297  1
  O2-  O509  1  0.63385847  0.32175796  0.97068652  1
  O2-  O510  1  0.66323195  0.55627442  0.29199920  1
  O2-  O511  1  0.67588563  0.58470654  0.64065561  1
  O2-  O512  1  0.65127611  0.58412232  0.96932920  1
  O2-  O513  1  0.67182976  0.82729862  0.30323775  1
  O2-  O514  1  0.70194430  0.84482883  0.65962687  1
  O2-  O515  1  0.66724972  0.83154286  0.97224803  1
  O2-  O516  1  0.92258922  0.08466847  0.30271651  1
  O2-  O517  1  0.89788015  0.02697197  0.67344967  1
  O2-  O518  1  0.92443464  0.08667655  0.97527933  1
  O2-  O519  1  0.87688635  0.31205654  0.30106200  1
  O2-  O520  1  0.91008260  0.31854338  0.63416955  1
  O2-  O521  1  0.91538735  0.33157301  0.98952965  1
  O2-  O522  1  0.90923570  0.59620828  0.33244908  1
  O2-  O523  1  0.92147476  0.58197821  0.65679235  1
  O2-  O524  1  0.92952366  0.56823377  1.00229509  1
  O2-  O525  1  0.92342352  0.83450112  0.29323656  1
  O2-  O526  1  0.91976390  0.83767033  0.66343683  1
  O2-  O527  1  0.91406588  0.84043803  0.98148366  1
  O2-  O528  1  0.08546105  0.16178660  0.02109210  1
  O2-  O529  1  0.08294838  0.15973164  0.35086338  1
  O2-  O530  1  0.06539788  0.16339416  0.69532435  1
  O2-  O531  1  0.07300097  0.42512118  0.03379184  1
  O2-  O532  1  0.04496098  0.37530713  0.35853581  1
  O2-  O533  1  0.06866574  0.40734833  0.69247149  1
  O2-  O534  1  0.10671948  0.66094575  0.02277901  1
  O2-  O535  1  0.08235057  0.68496186  0.35959048  1
  O2-  O536  1  0.06988841  0.64668250  0.69283725  1
  O2-  O537  1  0.07860652  0.90956068  0.01450079  1
  O2-  O538  1  0.08298492  0.91816200  0.34530284  1
  O2-  O539  1  0.07604088  0.89344106  0.69512239  1
  O2-  O540  1  0.32999752  0.17006519  0.02103072  1
  O2-  O541  1  0.33462221  0.17724273  0.34683893  1
  O2-  O542  1  0.36879687  0.19823152  0.73565369  1
  O2-  O543  1  0.32547615  0.41084686  0.01550231  1
  O2-  O544  1  0.32696618  0.40990219  0.32029371  1
  O2-  O545  1  0.32894582  0.39704974  0.67455276  1
  O2-  O546  1  0.29580738  0.64879258  0.00552652  1
  O2-  O547  1  0.32188729  0.67622984  0.35747990  1
  O2-  O548  1  0.31392888  0.64279589  0.68658394  1
  O2-  O549  1  0.32319815  0.92383722  0.01124682  1
  O2-  O550  1  0.34172188  0.92920138  0.34358290  1
  O2-  O551  1  0.31629756  0.85734770  0.70339414  1
  O2-  O552  1  0.57160964  0.16369361  0.00420316  1
  O2-  O553  1  0.58644029  0.16886072  0.32882737  1
  O2-  O554  1  0.59175977  0.15352349  0.69795275  1
  O2-  O555  1  0.57027999  0.42025987  0.01247402  1
  O2-  O556  1  0.56678786  0.39698933  0.33441606  1
  O2-  O557  1  0.57998700  0.41365920  0.67393036  1
  O2-  O558  1  0.56077762  0.66765276  0.00959380  1
  O2-  O559  1  0.61163557  0.65846379  0.35157482  1
  O2-  O560  1  0.55985577  0.70927171  0.70375912  1
  O2-  O561  1  0.60491305  0.98291123  0.03423636  1
  O2-  O562  1  0.57837081  0.89267119  0.34921315  1
  O2-  O563  1  0.59117804  0.90105093  0.68028356  1
  O2-  O564  1  0.84802790  0.16786609  0.01086955  1
  O2-  O565  1  0.83583262  0.15401295  0.35317139  1
  O2-  O566  1  0.82423589  0.12442133  0.70791892  1
  O2-  O567  1  0.83553967  0.41707504  0.04685452  1
  O2-  O568  1  0.83368515  0.43312300  0.35673695  1
  O2-  O569  1  0.84194382  0.40659550  0.69829097  1
  O2-  O570  1  0.80663775  0.67108497  0.00788312  1
  O2-  O571  1  0.79304049  0.64740067  0.37854593  1
  O2-  O572  1  0.83670160  0.66317891  0.68946849  1
  O2-  O573  1  0.83004628  0.92503171  0.02042411  1
  O2-  O574  1  0.83999326  0.91656258  0.33877950  1
  O2-  O575  1  0.86517710  0.94398099  0.70554256  1
