# generated using pymatgen
data_H2O
_symmetry_space_group_name_H-M   'P 1'
_cell_length_a   17.98634477
_cell_length_b   17.98871816
_cell_length_c   21.99314649
_cell_angle_alpha   89.99517996
_cell_angle_beta   89.99366877
_cell_angle_gamma   120.01903628
_symmetry_Int_Tables_number   1
_chemical_formula_structural   H2O
_chemical_formula_sum   'H384 O192'
_cell_volume   6161.37699345
_cell_formula_units_Z   192
loop_
 _symmetry_equiv_pos_site_id
 _symmetry_equiv_pos_as_xyz
  1  'x, y, z'
loop_
 _atom_type_symbol
 _atom_type_oxidation_number
  H+  1.0
  O2-  -2.0
loop_
 _atom_site_type_symbol
 _atom_site_label
 _atom_site_symmetry_multiplicity
 _atom_site_fract_x
 _atom_site_fract_y
 _atom_site_fract_z
 _atom_site_occupancy
  H+  H0  1  0.02813159  0.13899610  0.49352368  1
  H+  H1  1  0.15623488  0.90857879  0.19810614  1
  H+  H2  1  0.14635922  0.03013556  0.50935803  1
  H+  H3  1  0.32638755  0.66188269  0.43563424  1
  H+  H4  1  0.07156736  0.56403439  0.15971075  1
  H+  H5  1  0.46433867  0.38386123  0.02206344  1
  H+  H6  1  0.97843397  0.87993420  0.51515310  1
  H+  H7  1  0.39615632  0.77927211  0.83200253  1
  H+  H8  1  0.38186134  0.47290204  0.67054642  1
  H+  H9  1  0.36726457  0.87627640  0.82055340  1
  H+  H10  1  0.02860351  0.13958718  0.66793743  1
  H+  H11  1  0.11556079  -0.02394564  0.66940741  1
  H+  H12  1  0.51273182  0.31819624  0.78698592  1
  H+  H13  1  0.36055632  0.23220075  0.15825761  1
  H+  H14  1  0.40562763  1.03317006  0.51254257  1
  H+  H15  1  0.64203863  0.54325172  0.65831462  1
  H+  H16  1  0.72911937  0.87378643  0.66428113  1
  H+  H17  1  0.26893872  0.12436976  0.34373013  1
  H+  H18  1  0.11254343  1.01174950  0.01105009  1
  H+  H19  1  0.52290481  0.14133025  0.33157723  1
  H+  H20  1  0.63273141  0.53267773  0.50788407  1
  H+  H21  1  0.77853411  0.64711661  0.33581128  1
  H+  H22  1  0.13173493  0.65017988  0.67529185  1
  H+  H23  1  0.12064055  0.13484125  0.16647083  1
  H+  H24  1  0.17030797  0.58202694  0.60764665  1
  H+  H25  1  0.12176475  0.73424552  0.82876039  1
  H+  H26  1  0.13758181  0.35501116  0.17872475  1
  H+  H27  1  0.87201108  0.22434196  -0.00634607  1
  H+  H28  1  0.35926083  0.63730570  0.34428518  1
  H+  H29  1  0.10922057  0.47789266  0.82216798  1
  H+  H30  1  0.61916890  0.65640644  0.34341441  1
  H+  H31  1  0.34418881  0.64826200  0.73143684  1
  H+  H32  1  0.28277234  0.38350531  0.49468608  1
  H+  H33  1  0.99457527  0.35871524  0.98498806  1
  H+  H34  1  0.97366441  0.37452544  0.66980131  1
  H+  H35  1  0.60342580  0.97113255  0.82512589  1
  H+  H36  1  0.86612202  0.72490295  0.02410742  1
  H+  H37  1  0.67571718  0.74602645  0.04437817  1
  H+  H38  1  0.45160033  0.95000373  0.46463169  1
  H+  H39  1  0.14690857  0.73566767  0.18104749  1
  H+  H40  1  0.29684597  0.39259164  0.09081328  1
  H+  H41  1  0.63787466  0.27960435  0.32794964  1
  H+  H42  1  0.36061926  0.64251973  0.00410541  1
  H+  H43  1  0.88652594  0.38267092  -0.00522121  1
  H+  H44  1  0.88472595  0.61694930  0.32585014  1
  H+  H45  1  0.13181809  0.75800928  0.15952936  1
  H+  H46  1  0.85522425  0.22143923  0.15106916  1
  H+  H47  1  0.88609465  0.86996189  0.34079385  1
  H+  H48  1  0.96860609  0.85028080  0.83305004  1
  H+  H49  1  0.02096484  0.88585747  0.35053172  1
  H+  H50  1  0.10606522  0.62963391  0.33733961  1
  H+  H51  1  0.60497608  0.11872671  0.00874336  1
  H+  H52  1  0.88969758  0.36025948  0.83843069  1
  H+  H53  1  0.14319673  0.78081362  0.65805279  1
  H+  H54  1  0.77785076  0.39426773  0.68592373  1
  H+  H55  1  0.30107083  0.37754324  0.67506318  1
  H+  H56  1  0.49317404  0.86145633  0.67102208  1
  H+  H57  1  0.38916866  0.76196015  0.67627223  1
  H+  H58  1  -0.01175233  0.11570565  0.18445305  1
  H+  H59  1  0.51157821  0.37789842  0.30974018  1
  H+  H60  1  0.45401426  0.86524247  0.14157035  1
  H+  H61  1  0.25108649  0.12975729  0.01289307  1
  H+  H62  1  0.01094843  0.85189617  0.03235097  1
  H+  H63  1  0.03087763  0.64366401  0.82936367  1
  H+  H64  1  0.73342378  0.87829544  0.82216634  1
  H+  H65  1  0.88814193  0.60646968  0.83541747  1
  H+  H66  1  0.92013544  0.08641209  0.27372657  1
  H+  H67  1  0.90644886  0.57117939  0.55984601  1
  H+  H68  1  0.36126883  0.24252767  0.82988850  1
  H+  H69  1  0.28137145  0.13886652  0.49670160  1
  H+  H70  1  0.65646031  0.40443770  0.34819137  1
  H+  H71  1  0.47642244  0.60940631  0.65988885  1
  H+  H72  1  1.02187449  0.39258058  0.49757077  1
  H+  H73  1  0.39587457  0.49672333  0.82342043  1
  H+  H74  1  0.02912887  0.89333940  0.17191693  1
  H+  H75  1  0.11136673  0.89019128  0.50211964  1
  H+  H76  1  0.56026963  0.52689404  0.30162510  1
  H+  H77  1  0.14986161  0.77897725  0.97353109  1
  H+  H78  1  0.13431760  0.61622630  0.50797426  1
  H+  H79  1  0.02909097  0.37325861  0.15956346  1
  H+  H80  1  0.86271326  -0.01513703  0.49620827  1
  H+  H81  1  0.69015654  0.58786040  -0.01110124  1
  H+  H82  1  0.85700120  0.22566556  0.34153967  1
  H+  H83  1  0.46770760  0.36954683  0.17621553  1
  H+  H84  1  0.85943862  0.80687640  1.04183522  1
  H+  H85  1  0.51335981  0.62714424  0.16192493  1
  H+  H86  1  0.13917162  0.62302499  0.84258239  1
  H+  H87  1  0.11893412  0.22191406  0.16247373  1
  H+  H88  1  0.37193745  0.96739272  0.82414922  1
  H+  H89  1  0.84856106  0.89259229  0.80992756  1
  H+  H90  1  0.52365255  0.65112351  0.82085717  1
  H+  H91  1  0.87503202  0.60653200  0.64519965  1
  H+  H92  1  0.13093989  0.85699774  0.34436179  1
  H+  H93  1  0.87637392  0.48341823  0.48807166  1
  H+  H94  1  0.78942698  0.39206212  0.48377435  1
  H+  H95  1  0.63575831  0.98422729  0.01287924  1
  H+  H96  1  0.21502871  0.85837475  0.50909013  1
  H+  H97  1  0.34576406  0.71464853  0.15363739  1
  H+  H98  1  0.30629685  0.54391069  0.82125788  1
  H+  H99  1  0.15263473  0.27177416  0.50674653  1
  H+  H100  1  0.64606201  0.27750241  0.55511149  1
  H+  H101  1  0.08638084  0.91002739  0.11091713  1
  H+  H102  1  0.89434496  0.78696863  0.19064304  1
  H+  H103  1  0.38282548  0.11253827  0.99276993  1
  H+  H104  1  0.86247051  0.71955515  0.11336313  1
  H+  H105  1  0.43292795  0.09247895  0.57472888  1
  H+  H106  1  0.61043548  0.35971867  0.81168550  1
  H+  H107  1  0.77335489  0.13339713  0.50042094  1
  H+  H108  1  0.55910189  0.92785569  0.42829951  1
  H+  H109  1  0.88760809  0.78225858  0.66124248  1
  H+  H110  1  0.62012885  0.76229065  0.17443189  1
  H+  H111  1  0.13075043  0.51576545  0.32896237  1
  H+  H112  1  0.76243523  0.86062706  1.00996243  1
  H+  H113  1  0.71584243  0.10678719  0.66198726  1
  H+  H114  1  0.64179517  0.78745705  0.51256414  1
  H+  H115  1  0.12405513  0.35930189  0.83912618  1
  H+  H116  1  0.72280136  0.11186906  0.33003319  1
  H+  H117  1  0.64441293  0.38512195  0.67988201  1
  H+  H118  1  0.88729158  0.50688262  0.98506001  1
  H+  H119  1  0.14061288  0.03100632  0.82893841  1
  H+  H120  1  0.64053444  0.63175921  0.65644025  1
  H+  H121  1  0.78954264  0.27850647  0.11946020  1
  H+  H122  1  0.98061385  0.60600845  0.17269469  1
  H+  H123  1  0.15046270  0.26476226  0.66339348  1
  H+  H124  1  0.27197093  0.88549357  0.34779716  1
  H+  H125  1  0.59219412  0.52168512  0.00339718  1
  H+  H126  1  0.37165261  0.88557610  0.49763768  1
  H+  H127  1  0.37720491  0.86158868  0.32181778  1
  H+  H128  1  0.86182219  0.22645086  0.67500490  1
  H+  H129  1  0.11299415  -0.02914168  0.34500985  1
  H+  H130  1  0.27015807  0.64024568  0.68617697  1
  H+  H131  1  0.13065907  0.52166084  0.66758796  1
  H+  H132  1  0.23355852  0.11673999  0.17729689  1
  H+  H133  1  0.37326122  0.77305541  -0.02179490  1
  H+  H134  1  0.62372234  0.22769061  0.81834237  1
  H+  H135  1  0.46406188  0.85007854  0.51378330  1
  H+  H136  1  0.11844050  0.47591441  0.00905984  1
  H+  H137  1  0.37412587  0.00845078  0.17092343  1
  H+  H138  1  0.40372385  0.54396106  0.33828907  1
  H+  H139  1  0.51987923  0.38786523  0.48074199  1
  H+  H140  1  0.08716893  0.39392065  0.67069869  1
  H+  H141  1  0.11806071  0.46094122  0.16066206  1
  H+  H142  1  0.87194554  0.89352779  0.17353745  1
  H+  H143  1  0.17730098  0.36320097  0.67134719  1
  H+  H144  1  0.64304080  0.49304499  0.34516919  1
  H+  H145  1  0.10656546  0.72540686  0.49329391  1
  H+  H146  1  0.28742790  0.33672555  0.00170201  1
  H+  H147  1  0.38475901  0.11297316  0.32798949  1
  H+  H148  1  0.11705432  0.13548648  0.67143753  1
  H+  H149  1  0.85994553  0.89570702  0.67384241  1
  H+  H150  1  0.86478629  0.21979500  0.82503747  1
  H+  H151  1  0.84455166  0.42188203  0.77181293  1
  H+  H152  1  0.35637582  0.97036834  0.00042884  1
  H+  H153  1  0.63604165  0.38629704  -0.03632140  1
  H+  H154  1  0.58003109  0.16182063  0.39097800  1
  H+  H155  1  0.92408191  0.60082525  0.26524297  1
  H+  H156  1  0.63720483  0.62251495  0.17560682  1
  H+  H157  1  0.41390249  0.37054719  0.64825691  1
  H+  H158  1  0.76957136  0.62247395  0.81138127  1
  H+  H159  1  0.87780283  0.51864106  0.65248169  1
  H+  H160  1  0.16979707  0.34128456  0.89499476  1
  H+  H161  1  0.23097602  0.11446896  0.66534255  1
  H+  H162  1  0.97360364  0.60811671  0.50189830  1
  H+  H163  1  0.38766761  0.02535621  0.32426576  1
  H+  H164  1  0.96676178  1.10299248  0.83045278  1
  H+  H165  1  0.63732874  0.89702351  1.00715201  1
  H+  H166  1  0.62601451  0.74896602  0.34251619  1
  H+  H167  1  0.11578483  0.88363615  0.83963444  1
  H+  H168  1  0.67022560  0.36531255  0.87772235  1
  H+  H169  1  0.73081400  0.11240636  0.98701287  1
  H+  H170  1  0.10603144  0.87172879  1.01314338  1
  H+  H171  1  0.62156810  0.65180529  0.01652601  1
  H+  H172  1  0.14415375  1.02675144  0.17704327  1
  H+  H173  1  0.60536438  0.97811548  0.33498093  1
  H+  H174  1  0.35633445  0.62811301  0.49386693  1
  H+  H175  1  0.14627477  0.38101220  0.33975773  1
  H+  H176  1  0.64070219  0.11040321  0.51144011  1
  H+  H177  1  0.59910610  0.34042358  0.96671575  1
  H+  H178  1  0.63283514  0.61371421  0.82030114  1
  H+  H179  1  0.26500367  0.37875955  0.15863501  1
  H+  H180  1  0.77570268  0.89674642  0.34497807  1
  H+  H181  1  0.26648911  0.63307110  1.00690662  1
  H+  H182  1  0.85347842  0.61624215  0.48447898  1
  H+  H183  1  0.75582902  0.33247681  0.97108940  1
  H+  H184  1  0.76871053  0.62672535  0.48712953  1
  H+  H185  1  0.42970702  0.07272562  0.89747043  1
  H+  H186  1  0.48718383  0.13085375  0.17007358  1
  H+  H187  1  0.92498813  0.09079908  0.56759676  1
  H+  H188  1  0.34705563  0.25686618  0.31992141  1
  H+  H189  1  0.36472961  0.13716719  0.67425524  1
  H+  H190  1  0.61218962  0.64731790  0.49795904  1
  H+  H191  1  0.91089282  0.12496452  0.98441598  1
  H+  H192  1  0.88673052  0.77999310  0.33794771  1
  H+  H193  1  0.35411274  0.90549134  0.16092968  1
  H+  H194  1  0.89700771  1.03140970  0.18394733  1
  H+  H195  1  0.76230054  0.13714083  0.14978396  1
  H+  H196  1  0.38844070  0.52301863  0.50580114  1
  H+  H197  1  0.89340006  0.34921313  0.16861577  1
  H+  H198  1  0.51711621  0.88711622  0.33177641  1
  H+  H199  1  0.61690985  0.73793483  0.81959335  1
  H+  H200  1  0.86458917  0.38951976  0.67783638  1
  H+  H201  1  0.63890882  0.37442295  0.17106824  1
  H+  H202  1  0.39451649  0.27564956  0.49274850  1
  H+  H203  1  0.23557239  0.87008437  0.98890916  1
  H+  H204  1  0.12688506  0.60681047  0.99800331  1
  H+  H205  1  0.08339979  0.92161333  0.89040377  1
  H+  H206  1  0.61069268  0.48560645  0.16478267  1
  H+  H207  1  0.14645201  0.11874344  0.50579800  1
  H+  H208  1  0.64184267  0.11205227  0.83723325  1
  H+  H209  1  0.72707194  0.10564116  0.83840013  1
  H+  H210  1  0.27598719  0.90340184  0.66813834  1
  H+  H211  1  0.38170634  0.51503119  0.15488278  1
  H+  H212  1  0.60988066  0.23557441  0.15437535  1
  H+  H213  1  0.42811741  0.10129687  0.23277751  1
  H+  H214  1  0.49907255  0.35166740  0.33837976  1
  H+  H215  1  0.96718472  0.36582096  0.32890748  1
  H+  H216  1  0.10515443  0.20753721  0.32159537  1
  H+  H217  1  0.72977147  0.62666049  0.17800749  1
  H+  H218  1  0.39327228  0.36675911  0.49257766  1
  H+  H219  1  0.47549596  0.36679748  0.86285852  1
  H+  H220  1  0.00135370  0.61869986  0.00625636  1
  H+  H221  1  0.50707925  0.88042161  0.82575834  1
  H+  H222  1  0.88886072  0.87770079  0.51234326  1
  H+  H223  1  0.62085303  0.20942868  -0.00244826  1
  H+  H224  1  0.89114077  0.11778487  0.65977857  1
  H+  H225  1  0.62366860  0.52145451  0.81907203  1
  H+  H226  1  0.37968240  0.75606112  0.51516457  1
  H+  H227  1  0.36804159  0.14699623  0.16030906  1
  H+  H228  1  0.38248327  0.60306977  0.16270133  1
  H+  H229  1  0.63783856  0.87071220  0.66621461  1
  H+  H230  1  0.17473385  0.39612838  -0.00601999  1
  H+  H231  1  0.35937049  0.38873925  0.33676638  1
  H+  H232  1  0.49267554  0.10083496  0.84007614  1
  H+  H233  1  0.63607387  0.87514634  0.32623098  1
  H+  H234  1  1.01728060  0.63146388  0.33733439  1
  H+  H235  1  0.60263693  -0.02312613  0.67655727  1
  H+  H236  1  0.57456483  0.91751983  0.74010527  1
  H+  H237  1  0.75881597  0.34264866  0.14420207  1
  H+  H238  1  0.21919042  0.59832703  0.17128165  1
  H+  H239  1  0.87920577  0.36571847  0.32268854  1
  H+  H240  1  0.52131018  0.12927721  0.49211201  1
  H+  H241  1  0.58550507  0.67137661  0.10848216  1
  H+  H242  1  0.39683763  0.38246693  0.84968128  1
  H+  H243  1  0.37085816  0.83084160  0.10018032  1
  H+  H244  1  0.61389666  0.73666889  0.67098526  1
  H+  H245  1  0.57171232  0.86945159  0.16189103  1
  H+  H246  1  0.61619567  0.21525358  0.67909833  1
  H+  H247  1  0.13333929  0.10099073  0.32824037  1
  H+  H248  1  0.78434339  0.89191937  0.18192405  1
  H+  H249  1  0.89276287  0.51984215  0.83867621  1
  H+  H250  1  0.10887179  0.48735590  0.49303129  1
  H+  H251  1  0.24209396  0.86853016  0.83003828  1
  H+  H252  1  0.27974154  0.15177256  0.81946336  1
  H+  H253  1  0.55519222  0.26623972  0.56391889  1
  H+  H254  1  0.49495255  0.11931742  0.66139462  1
  H+  H255  1  0.34844132  0.72002052  0.33931214  1
  H+  H256  1  0.89205976  0.36281554  0.50636901  1
  H+  H257  1  0.77104065  0.89571220  0.49872079  1
  H+  H258  1  0.21997821  0.60444528  0.32974774  1
  H+  H259  1  0.88072710  0.66445678  0.16342429  1
  H+  H260  1  0.39766914  0.03452298  0.65821085  1
  H+  H261  1  0.87329359  1.01323020  0.82882530  1
  H+  H262  1  0.22170592  0.61243565  0.50695026  1
  H+  H263  1  0.58029060  0.17023370  0.09778048  1
  H+  H264  1  1.00574975  0.69681533  0.20218577  1
  H+  H265  1  0.88620218  1.02729411  0.33492268  1
  H+  H266  1  0.13582879  0.11650582  0.82703277  1
  H+  H267  1  0.60562213  0.21573153  0.47652646  1
  H+  H268  1  0.01206458  0.09385423  0.00657795  1
  H+  H269  1  0.85815054  0.71119861  0.81317419  1
  H+  H270  1  0.86319688  0.48278211  0.33145847  1
  H+  H271  1  0.35036993  0.26205162  1.00017213  1
  H+  H272  1  0.63867824  0.78688433  0.96957261  1
  H+  H273  1  0.63626662  0.11579179  0.32184551  1
  H+  H274  1  0.59186190  0.98285480  0.49078531  1
  H+  H275  1  0.27000594  0.92459744  0.19209100  1
  H+  H276  1  0.83988744  0.59366083  -0.00547118  1
  H+  H277  1  0.03327802  0.32808035  0.37191101  1
  H+  H278  1  0.64101386  0.01141637  0.17316752  1
  H+  H279  1  0.34852339  0.92013857  0.39775730  1
  H+  H280  1  0.89412994  0.12068896  0.50878408  1
  H+  H281  1  0.88820318  0.27231079  0.51098396  1
  H+  H282  1  0.47216681  0.11253613  -0.00296361  1
  H+  H283  1  0.88867541  0.82005780  0.87519181  1
  H+  H284  1  0.62587493  0.11339692  0.66511059  1
  H+  H285  1  0.48205895  0.64445760  0.98611184  1
  H+  H286  1  0.77596144  0.38901391  0.82643019  1
  H+  H287  1  0.77635509  0.64681233  0.66386699  1
  H+  H288  1  0.91569328  0.33694578  0.60878834  1
  H+  H289  1  0.03427642  0.58163355  0.09942646  1
  H+  H290  1  0.13260234  0.76818948  0.33456705  1
  H+  H291  1  0.60741063  0.38977827  0.49744028  1
  H+  H292  1  0.07189582  0.69928263  0.04560119  1
  H+  H293  1  0.92270650  0.33211328  0.23312176  1
  H+  H294  1  0.67102413  0.35561887  0.62292959  1
  H+  H295  1  0.97998751  0.36290773  0.83171644  1
  H+  H296  1  0.29543757  0.42199817  0.34395193  1
  H+  H297  1  0.09308242  0.40905085  0.06477954  1
  H+  H298  1  0.07949397  0.16853496  0.76370948  1
  H+  H299  1  0.34440794  0.42315189  0.43453587  1
  H+  H300  1  0.93371552  0.33235582  0.92449526  1
  H+  H301  1  0.58605306  0.68283317  0.44052841  1
  H+  H302  1  0.66994731  0.34318277  0.22837520  1
  H+  H303  1  0.67834567  0.84869644  0.91203954  1
  H+  H304  1  0.08540492  0.92182707  0.44236251  1
  H+  H305  1  0.08511549  0.16504851  0.43286779  1
  H+  H306  1  0.69887404  0.29315619  0.91090008  1
  H+  H307  1  0.41411581  0.57579473  0.60293379  1
  H+  H308  1  0.13303750  0.86644678  0.65435358  1
  H+  H309  1  0.63570087  0.86842353  0.82795947  1
  H+  H310  1  0.16931293  0.07576049  0.27020347  1
  H+  H311  1  0.83123306  0.16962769  0.05312400  1
  H+  H312  1  0.10005253  0.22094527  0.82630535  1
  H+  H313  1  0.44305518  0.35061383  0.58417243  1
  H+  H314  1  0.02494794  0.88968021  0.66959158  1
  H+  H315  1  0.83514265  0.66116795  0.72197830  1
  H+  H316  1  0.53995631  0.40761372  0.66023539  1
  H+  H317  1  0.07709313  0.42367507  0.75813167  1
  H+  H318  1  0.59088577  0.16041813  0.76168097  1
  H+  H319  1  0.08104989  0.66673788  0.43282186  1
  H+  H320  1  0.22581768  0.61897447  0.84717420  1
  H+  H321  1  0.66273112  0.07782330  0.57353127  1
  H+  H322  1  0.17440061  0.09018040  0.60427033  1
  H+  H323  1  0.17946520  0.31876904  0.35881716  1
  H+  H324  1  0.83109468  0.92406196  0.40749143  1
  H+  H325  1  0.40053539  0.82649237  0.26249516  1
  H+  H326  1  0.37002566  0.42989072  0.76641197  1
  H+  H327  1  0.07216436  0.41205552  0.41644829  1
  H+  H328  1  0.01478532  0.12796376  0.33837120  1
  H+  H329  1  0.42223712  0.81526410  0.60814931  1
  H+  H330  1  0.35378610  0.88006441  -0.01059658  1
  H+  H331  1  0.18629573  0.87455358  0.25923117  1
  H+  H332  1  0.40707233  0.83199411  0.91661763  1
  H+  H333  1  0.66863865  0.84772665  0.26748626  1
  H+  H334  1  0.73328573  0.36522957  0.32572400  1
  H+  H335  1  0.78962863  0.59163871  0.05398477  1
  H+  H336  1  0.80256816  0.87962146  0.07885859  1
  H+  H337  1  0.66492003  0.07593384  0.93185009  1
  H+  H338  1  0.58065052  0.42685294  0.72789602  1
  H+  H339  1  0.17449190  0.33575935  0.23991851  1
  H+  H340  1  0.47321479  0.61642877  0.50720035  1
  H+  H341  1  0.91610906  0.84629476  0.60464353  1
  H+  H342  1  0.82711937  0.92857950  0.73295022  1
  H+  H343  1  0.10125057  0.68094526  0.73255103  1
  H+  H344  1  0.33640080  0.17201072  0.73163433  1
  H+  H345  1  0.15940782  0.83033269  0.57127011  1
  H+  H346  1  0.32030671  0.65500805  0.09594970  1
  H+  H347  1  0.37662544  0.36328537  0.16184469  1
  H+  H348  1  0.62261335  0.43886358  0.41393222  1
  H+  H349  1  0.33347550  0.16127377  0.40089299  1
  H+  H350  1  0.92527168  0.90640648  0.94623726  1
  H+  H351  1  0.55306020  0.38839123  0.01365124  1
  H+  H352  1  0.88885378  0.02759326  0.65948758  1
  H+  H353  1  0.42248972  0.60676779  0.92765317  1
  H+  H354  1  0.96017468  0.94831805  0.93354651  1
  H+  H355  1  0.67949547  0.06761910  0.23273998  1
  H+  H356  1  0.67297384  0.85414042  0.14395706  1
  H+  H357  1  0.06809196  0.12046797  0.07173606  1
  H+  H358  1  0.93453557  0.09188250  0.92442123  1
  H+  H359  1  0.57817093  0.91222452  0.09635856  1
  H+  H360  1  0.67344855  0.84704929  0.57068533  1
  H+  H361  1  0.86253174  0.12875405  0.82459090  1
  H+  H362  1  0.16313342  0.56761018  0.23332565  1
  H+  H363  1  0.83557915  0.39025105  0.05181024  1
  H+  H364  1  0.56210169  0.42235641  0.10918756  1
  H+  H365  1  0.48400244  0.63848028  0.34156472  1
  H+  H366  1  0.18820332  0.32954045  0.56615343  1
  H+  H367  1  0.84169641  0.42533236  0.39257366  1
  H+  H368  1  0.92558940  0.84822512  0.24929437  1
  H+  H369  1  0.58387295  0.67516614  0.72936778  1
  H+  H370  1  0.64503053  0.57313011  0.26253446  1
  H+  H371  1  0.82951528  0.16552993  0.43917747  1
  H+  H372  1  0.31976876  0.16336407  0.06627917  1
  H+  H373  1  0.86123447  0.13876489  0.34319273  1
  H+  H374  1  0.37132274  0.13906591  0.49779406  1
  H+  H375  1  0.66782300  0.59592224  0.56531436  1
  H+  H376  1  0.82900444  0.65838382  0.39937953  1
  H+  H377  1  0.36917268  0.31384931  0.25902666  1
  H+  H378  1  0.38672018  0.33197688  0.94532543  1
  H+  H379  1  0.15921765  0.58259207  0.93718086  1
  H+  H380  1  0.91494941  0.57286349  0.92691410  1
  H+  H381  1  0.18439077  0.84602930  0.89119979  1
  H+  H382  1  0.33517638  0.92488084  0.72670720  1
  H+  H383  1  0.83299009  0.16271635  0.73171749  1
  O2-  O384  1  0.08805761  0.16126509  0.14864342  1
  O2-  O385  1  0.08870010  0.16681071  0.47772737  1
  O2-  O386  1  0.07299782  0.16167511  0.80859802  1
  O2-  O387  1  0.08986728  0.40102573  0.14414709  1
  O2-  O388  1  0.07774225  0.42718925  0.47585872  1
  O2-  O389  1  0.08015485  0.41902464  0.80579115  1
  O2-  O390  1  0.01812793  0.55766559  0.14090917  1
  O2-  O391  1  0.07921554  0.66487132  0.47812420  1
  O2-  O392  1  0.09220624  0.67206919  0.81646787  1
  O2-  O393  1  0.08909630  0.92049775  0.15606095  1
  O2-  O394  1  0.08789940  0.92696629  0.48760674  1
  O2-  O395  1  0.07656878  0.90773754  0.84717177  1
  O2-  O396  1  0.33133924  0.17039887  0.14534719  1
  O2-  O397  1  0.34136989  0.16770983  0.47937401  1
  O2-  O398  1  0.34126637  0.18855543  0.80731440  1
  O2-  O399  1  0.31854606  0.40597636  0.13312819  1
  O2-  O400  1  0.34495264  0.41860509  0.47986856  1
  O2-  O401  1  0.36803107  0.43479245  0.81134392  1
  O2-  O402  1  0.31949859  0.65359894  0.14238853  1
  O2-  O403  1  0.32611418  0.66003907  0.48103160  1
  O2-  O404  1  0.35250596  0.60390805  0.82200362  1
  O2-  O405  1  0.32895855  0.94438509  0.16245070  1
  O2-  O406  1  0.39076353  0.93657153  0.47109008  1
  O2-  O407  1  0.33534505  0.90787347  0.80656317  1
  O2-  O408  1  0.57728687  0.17411321  0.14303712  1
  O2-  O409  1  0.57906364  0.15395647  0.46988911  1
  O2-  O410  1  0.59660689  0.16570123  0.80808209  1
  O2-  O411  1  0.57731120  0.42390842  0.15313471  1
  O2-  O412  1  0.58627724  0.42153316  0.47337768  1
  O2-  O413  1  0.56144325  0.37339486  0.79901295  1
  O2-  O414  1  0.57853252  0.66412073  0.15404363  1
  O2-  O415  1  0.57993879  0.67676339  0.48546158  1
  O2-  O416  1  0.58400758  0.67651545  0.80512502  1
  O2-  O417  1  0.55320964  0.90503904  0.13988132  1
  O2-  O418  1  0.54081205  0.93640435  0.46923612  1
  O2-  O419  1  0.57237097  0.91204540  0.80778888  1
  O2-  O420  1  0.80472594  0.18797525  0.12483993  1
  O2-  O421  1  0.83354903  0.16722793  0.48444933  1
  O2-  O422  1  0.83203042  0.15992770  0.80934586  1
  O2-  O423  1  0.80628976  0.34042036  0.12299636  1
  O2-  O424  1  0.84852637  0.42134240  0.46943617  1
  O2-  O425  1  0.84115496  0.41883078  0.81740396  1
  O2-  O426  1  0.84194579  0.68732323  0.15280991  1
  O2-  O427  1  0.82191525  0.64183084  0.46411684  1
  O2-  O428  1  0.83211886  0.64977964  0.80079587  1
  O2-  O429  1  0.83647822  0.91794490  0.15699072  1
  O2-  O430  1  0.83108911  0.92514701  0.47991331  1
  O2-  O431  1  0.82095891  0.92590421  0.79942508  1
  O2-  O432  1  0.17389229  0.08571868  0.19493727  1
  O2-  O433  1  0.17961850  0.09219064  0.52186941  1
  O2-  O434  1  0.17392656  0.09278692  0.83706455  1
  O2-  O435  1  0.17053898  0.32759495  0.19556378  1
  O2-  O436  1  0.18909992  0.33170129  0.52119440  1
  O2-  O437  1  0.14540845  0.32143433  0.85437154  1
  O2-  O438  1  0.15971276  0.56175970  0.18823631  1
  O2-  O439  1  0.16165767  0.58318710  0.52302600  1
  O2-  O440  1  0.16582568  0.58906720  0.85988246  1
  O2-  O441  1  0.20577514  0.91387608  0.22302234  1
  O2-  O442  1  0.15579424  0.82756761  0.52318581  1
  O2-  O443  1  0.17956426  0.84031757  0.84625330  1
  O2-  O444  1  0.42527985  0.10079740  0.18738850  1
  O2-  O445  1  0.43189858  0.09350728  0.52647333  1
  O2-  O446  1  0.43272039  0.06253179  0.85379216  1
  O2-  O447  1  0.40474190  0.33446289  0.18320114  1
  O2-  O448  1  0.42917673  0.33866531  0.50198870  1
  O2-  O449  1  0.41555368  0.34604985  0.87444029  1
  O2-  O450  1  0.41499639  0.57355905  0.17244904  1
  O2-  O451  1  0.41183555  0.58322895  0.52071190  1
  O2-  O452  1  0.42250326  0.59496871  0.85098743  1
  O2-  O453  1  0.38812443  0.83744124  0.14297124  1
  O2-  O454  1  0.40888934  0.81393409  0.53558970  1
  O2-  O455  1  0.42160870  0.83796343  0.84666205  1
  O2-  O456  1  0.69469495  0.05562991  0.19208876  1
  O2-  O457  1  0.66797714  0.07831020  0.52708195  1
  O2-  O458  1  0.66679618  0.07709106  0.85402339  1
  O2-  O459  1  0.66985820  0.34378539  0.18348712  1
  O2-  O460  1  0.61013480  0.30164884  0.54315962  1
  O2-  O461  1  0.67637887  0.34220881  0.83919635  1
  O2-  O462  1  0.66895428  0.59297977  0.19144209  1
  O2-  O463  1  0.66593931  0.59380051  0.51924110  1
  O2-  O464  1  0.66378826  0.58163792  0.82806227  1
  O2-  O465  1  0.65020387  0.82686904  0.18324924  1
  O2-  O466  1  0.67584645  0.84828591  0.52534587  1
  O2-  O467  1  0.67060418  0.84198191  0.84125316  1
  O2-  O468  1  0.92964262  0.08867194  0.20286145  1
  O2-  O469  1  0.92617433  0.09136292  0.52167915  1
  O2-  O470  1  0.90749317  0.07466500  0.84780676  1
  O2-  O471  1  0.93032236  0.32967008  0.18842710  1
  O2-  O472  1  0.92008034  0.33318014  0.52557876  1
  O2-  O473  1  0.92093020  0.32938959  0.85043420  1
  O2-  O474  1  0.95572519  0.64076665  0.19401367  1
  O2-  O475  1  0.91145058  0.57195568  0.51248396  1
  O2-  O476  1  0.92200052  0.58156173  0.85375180  1
  O2-  O477  1  0.92712798  0.84831754  0.20345648  1
  O2-  O478  1  0.91906425  0.85002136  0.53114499  1
  O2-  O479  1  0.90415694  0.81823353  0.83304372  1
  O2-  O480  1  0.16550764  0.07170584  0.31604041  1
  O2-  O481  1  0.16923601  0.08724569  0.64920859  1
  O2-  O482  1  0.13715334  0.07263214  0.99841283  1
  O2-  O483  1  0.18340074  0.35690618  0.32581558  1
  O2-  O484  1  0.19252239  0.32603228  0.64907943  1
  O2-  O485  1  0.22222700  0.39042739  0.97388714  1
  O2-  O486  1  0.15935124  0.57439601  0.31295265  1
  O2-  O487  1  0.17298878  0.58327695  0.65258431  1
  O2-  O488  1  0.15891933  0.57924976  0.98274904  1
  O2-  O489  1  0.16578966  0.83183493  0.32774553  1
  O2-  O490  1  0.16688810  0.83895489  0.63777365  1
  O2-  O491  1  0.17108651  0.84048418  0.97243586  1
  O2-  O492  1  0.41814626  0.08634449  0.31073587  1
  O2-  O493  1  0.43386001  0.09493708  0.64175635  1
  O2-  O494  1  0.41242490  0.08106942  0.98071230  1
  O2-  O495  1  0.34385774  0.30479197  0.30037646  1
  O2-  O496  1  0.45259029  0.35257149  0.62847011  1
  O2-  O497  1  0.37182149  0.32468603  0.99022437  1
  O2-  O498  1  0.42353428  0.60478724  0.32805267  1
  O2-  O499  1  0.41570443  0.57035859  0.64772499  1
  O2-  O500  1  0.42243998  0.61004957  0.97340122  1
  O2-  O501  1  0.40595519  0.82903808  0.30665084  1
  O2-  O502  1  0.42865983  0.81970389  0.65406621  1
  O2-  O503  1  0.39844087  0.83210840  0.96301208  1
  O2-  O504  1  0.66384945  0.08105292  0.31212000  1
  O2-  O505  1  0.65580903  0.07737921  0.64688750  1
  O2-  O506  1  0.66812568  0.07802174  0.97746655  1
  O2-  O507  1  0.67070814  0.34162472  0.31488764  1
  O2-  O508  1  0.67175727  0.35025249  0.66696855  1
  O2-  O509  1  0.70247208  0.28330974  0.95459874  1
  O2-  O510  1  0.62269457  0.55834273  0.30614316  1
  O2-  O511  1  0.67124921  0.60202589  0.63972435  1
  O2-  O512  1  0.63157176  0.57881108  0.98568622  1
  O2-  O513  1  0.67100183  0.84867562  0.31226558  1
  O2-  O514  1  0.66729651  0.84076099  0.64966119  1
  O2-  O515  1  0.67915207  0.84678859  0.95893088  1
  O2-  O516  1  0.91774193  0.08840325  0.32036536  1
  O2-  O517  1  0.92266390  0.08887003  0.64396346  1
  O2-  O518  1  0.95213111  0.10906888  0.96759659  1
  O2-  O519  1  0.90877239  0.33295532  0.31108638  1
  O2-  O520  1  0.91133075  0.33558062  0.65370287  1
  O2-  O521  1  0.93408424  0.33166903  0.97052006  1
  O2-  O522  1  0.91445186  0.58633684  0.30961301  1
  O2-  O523  1  0.89667672  0.57049053  0.62658219  1
  O2-  O524  1  0.91056665  0.56910407  0.97319609  1
  O2-  O525  1  0.91840054  0.84156482  0.32513618  1
  O2-  O526  1  0.91564105  0.84439349  0.65074562  1
  O2-  O527  1  0.89602226  0.77987653  1.04713721  1
  O2-  O528  1  0.04516024  0.07769188  0.03802960  1
  O2-  O529  1  0.07922460  0.15795357  0.34866295  1
  O2-  O530  1  0.08874247  0.16966893  0.68414389  1
  O2-  O531  1  0.09700954  0.41429882  0.01942863  1
  O2-  O532  1  0.06450184  0.39060301  0.36772342  1
  O2-  O533  1  0.06777496  0.42895992  0.69115706  1
  O2-  O534  1  0.05845065  0.64375793  0.02902707  1
  O2-  O535  1  0.07795700  0.66175681  0.35260523  1
  O2-  O536  1  0.10679797  0.68621230  0.68793008  1
  O2-  O537  1  0.07314264  0.89417144  0.03560141  1
  O2-  O538  1  0.08230214  0.91222283  0.36395712  1
  O2-  O539  1  0.08667408  0.91419925  0.68040092  1
  O2-  O540  1  0.31422855  0.16180792  0.02108038  1
  O2-  O541  1  0.33101450  0.15874497  0.35538123  1
  O2-  O542  1  0.32653386  0.15886625  0.68716200  1
  O2-  O543  1  0.23782258  0.34077892  0.01993326  1
  O2-  O544  1  0.35338557  0.43593662  0.35774994  1
  O2-  O545  1  0.36211308  0.41311489  0.68715309  1
  O2-  O546  1  0.32575578  0.66623136  0.02350240  1
  O2-  O547  1  0.31984374  0.66093360  0.35599640  1
  O2-  O548  1  0.32496584  0.68133935  0.70759174  1
  O2-  O549  1  0.32351688  0.90819033  0.01095935  1
  O2-  O550  1  0.33589451  0.91684852  0.35322908  1
  O2-  O551  1  0.33638005  0.93547500  0.68214780  1
  O2-  O552  1  0.58050449  0.15592884  0.02044760  1
  O2-  O553  1  0.58417399  0.17252604  0.34622332  1
  O2-  O554  1  0.58356936  0.15391014  0.68828249  1
  O2-  O555  1  0.52711229  0.41690134  0.03578814  1
  O2-  O556  1  0.65709591  0.45582002  0.37198868  1
  O2-  O557  1  0.59601373  0.44171360  0.68431902  1
  O2-  O558  1  0.61576025  0.69965087  0.03705138  1
  O2-  O559  1  0.59548010  0.69019390  0.36128279  1
  O2-  O560  1  0.58456480  0.67464388  0.68357645  1
  O2-  O561  1  0.62220683  0.93036013  0.03534199  1
  O2-  O562  1  0.57534414  0.91713015  0.35020292  1
  O2-  O563  1  0.57516960  0.91600808  0.69238081  1
  O2-  O564  1  0.83914222  0.16401262  0.00873456  1
  O2-  O565  1  0.82833406  0.16642111  0.35858090  1
  O2-  O566  1  0.83280110  0.16423863  0.68601311  1
  O2-  O567  1  0.85032754  0.40828863  0.00847042  1
  O2-  O568  1  0.83396491  0.42212585  0.34725913  1
  O2-  O569  1  0.84065601  0.42526266  0.69490896  1
  O2-  O570  1  0.80060601  0.61359401  0.01244243  1
  O2-  O571  1  0.83631507  0.67054899  0.35203814  1
  O2-  O572  1  0.83728492  0.67063320  0.67707882  1
  O2-  O573  1  0.78462965  0.83982377  0.04366311  1
  O2-  O574  1  0.83529335  0.92413955  0.36111045  1
  O2-  O575  1  0.83011282  0.92821167  0.68473801  1
