# generated using pymatgen
data_H2O
_symmetry_space_group_name_H-M   'P 1'
_cell_length_a   17.99487739
_cell_length_b   17.99974495
_cell_length_c   22.01972140
_cell_angle_alpha   90.03034268
_cell_angle_beta   89.97206617
_cell_angle_gamma   120.00289715
_symmetry_Int_Tables_number   1
_chemical_formula_structural   H2O
_chemical_formula_sum   'H384 O192'
_cell_volume   6176.53547564
_cell_formula_units_Z   192
loop_
 _symmetry_equiv_pos_site_id
 _symmetry_equiv_pos_as_xyz
  1  'x, y, z'
loop_
 _atom_type_symbol
 _atom_type_oxidation_number
  H+  1.0
  O2-  -2.0
loop_
 _atom_site_type_symbol
 _atom_site_label
 _atom_site_symmetry_multiplicity
 _atom_site_fract_x
 _atom_site_fract_y
 _atom_site_fract_z
 _atom_site_occupancy
  H+  H0  1  0.72401173  0.35978833  0.67603145  1
  H+  H1  1  1.01930240  0.13462564  0.82139421  1
  H+  H2  1  0.76684934  0.88400032  0.66367744  1
  H+  H3  1  0.12714870  0.63766835  -0.01630869  1
  H+  H4  1  0.87126289  0.23445840  0.34264199  1
  H+  H5  1  0.81797492  0.92820894  0.07188934  1
  H+  H6  1  0.89640014  0.37030312  0.32791673  1
  H+  H7  1  0.12365546  1.02954621  -0.01185489  1
  H+  H8  1  0.35796318  0.86677985  0.00381713  1
  H+  H9  1  0.14668760  0.36785042  0.50579941  1
  H+  H10  1  0.70695637  0.57273600  0.50199999  1
  H+  H11  1  0.81209944  0.64332557  0.44757525  1
  H+  H12  1  0.64686672  0.55469574  0.58872311  1
  H+  H13  1  0.65294611  0.81972624  0.54535400  1
  H+  H14  1  0.39753516  0.86634850  0.83530567  1
  H+  H15  1  0.63217610  0.08941068  0.84398304  1
  H+  H16  1  0.89912857  0.37177398  -0.00155923  1
  H+  H17  1  0.89223398  0.27589232  0.66617046  1
  H+  H18  1  0.31160764  0.18624037  0.49803765  1
  H+  H19  1  0.87251124  -0.02825907  0.33504544  1
  H+  H20  1  0.36702490  0.64430473  0.01060467  1
  H+  H21  1  0.85178117  0.73260108  0.16363189  1
  H+  H22  1  0.28551712  0.64029406  0.82758354  1
  H+  H23  1  0.90909040  0.33050793  -0.06340798  1
  H+  H24  1  0.12918792  0.26840707  0.98746730  1
  H+  H25  1  0.10127027  0.88782321  -0.00655546  1
  H+  H26  1  0.86069165  0.38420593  0.67870620  1
  H+  H27  1  0.50380261  0.85105874  0.32901209  1
  H+  H28  1  0.70999301  0.10188903  0.48780713  1
  H+  H29  1  0.60850852  0.47263529  0.67178647  1
  H+  H30  1  0.23297083  0.61238839  0.50518283  1
  H+  H31  1  0.88627271  1.02065666  0.65791443  1
  H+  H32  1  0.86881696  0.26266507  0.84440684  1
  H+  H33  1  0.15915407  0.28994187  0.51842330  1
  H+  H34  1  0.26242691  0.38105995  0.82278087  1
  H+  H35  1  0.56003530  0.89153655  0.06973638  1
  H+  H36  1  0.62210432  0.83408040  0.99574169  1
  H+  H37  1  0.47230448  0.12790316  0.15277815  1
  H+  H38  1  0.27430413  0.88978591  0.66866672  1
  H+  H39  1  0.57079557  0.14910952  0.21777587  1
  H+  H40  1  0.99051819  0.63690478  1.02134028  1
  H+  H41  1  0.96359636  0.60441758  0.50587371  1
  H+  H42  1  0.38408491  0.77122780  0.99085590  1
  H+  H43  1  0.14059444  0.77523243  0.66100125  1
  H+  H44  1  0.51753069  0.45774243  0.11361195  1
  H+  H45  1  0.43495227  0.10025097  1.00481794  1
  H+  H46  1  0.88781950  0.51855366  0.66534674  1
  H+  H47  1  0.39481609  0.86722617  0.30831644  1
  H+  H48  1  0.63764584  1.03034935  0.66993702  1
  H+  H49  1  0.42401280  0.83845022  0.89728158  1
  H+  H50  1  0.12080774  0.25840346  0.16866508  1
  H+  H51  1  0.09580571  -0.04160615  0.49561372  1
  H+  H52  1  0.86497821  0.22733068  0.01241580  1
  H+  H53  1  0.88836844  0.03236266  0.99589662  1
  H+  H54  1  0.63341733  0.42070962  0.99886318  1
  H+  H55  1  0.64171067  0.09959231  0.33064315  1
  H+  H56  1  0.47222913  0.89054423  0.62159704  1
  H+  H57  1  0.37575679  0.76406601  0.48940384  1
  H+  H58  1  0.50785670  0.87241261  0.47851948  1
  H+  H59  1  0.60959463  0.64307722  0.81375395  1
  H+  H60  1  0.02456357  0.89440715  0.80443663  1
  H+  H61  1  0.72022364  0.86087803  -0.00443229  1
  H+  H62  1  0.61167399  -0.05290928  1.01032264  1
  H+  H63  1  0.71642474  0.48909796  0.38851400  1
  H+  H64  1  0.64615383  0.71166347  -0.00767381  1
  H+  H65  1  0.41956399  0.30764649  0.51257840  1
  H+  H66  1  0.53209980  0.87672671  0.68695803  1
  H+  H67  1  0.73703821  0.07789089  0.99472360  1
  H+  H68  1  0.86422682  0.85330282  0.65888621  1
  H+  H69  1  0.60550845  0.21479825  0.33684803  1
  H+  H70  1  0.08177500  0.30050600  0.21524088  1
  H+  H71  1  0.87714626  0.86793563  0.16621273  1
  H+  H72  1  0.36751073  0.72951191  0.32297959  1
  H+  H73  1  0.24222106  0.12522468  0.00303372  1
  H+  H74  1  0.62169588  0.76360797  0.48114362  1
  H+  H75  1  0.63106850  0.60408646  0.64403079  1
  H+  H76  1  0.52597001  0.64774058  0.79142209  1
  H+  H77  1  0.35041010  0.47309875  0.82448481  1
  H+  H78  1  0.76938860  0.12747196  0.82866276  1
  H+  H79  1  0.85266815  0.52017104  0.79030662  1
  H+  H80  1  0.71350240  0.35618401  0.52280810  1
  H+  H81  1  0.27620977  0.89078190  0.32338461  1
  H+  H82  1  0.47283609  0.85920349  0.99368864  1
  H+  H83  1  0.17763745  0.58751788  0.59957493  1
  H+  H84  1  0.89357978  0.12257308  0.99475726  1
  H+  H85  1  0.57411493  -0.05737048  0.17457916  1
  H+  H86  1  0.53424471  0.88415863  0.82732298  1
  H+  H87  1  0.56553918  0.34697527  0.13402069  1
  H+  H88  1  0.14608979  0.37386368  0.66440213  1
  H+  H89  1  0.37319127  0.73289771  0.82957701  1
  H+  H90  1  0.90146752  0.63289273  1.03441684  1
  H+  H91  1  0.87219492  0.26400687  0.50782779  1
  H+  H92  1  0.54338409  0.42425224  0.50678703  1
  H+  H93  1  0.60915156  0.87160604  0.32555015  1
  H+  H94  1  0.39640270  0.62267181  0.66498788  1
  H+  H95  1  0.86150427  0.22059866  0.16653479  1
  H+  H96  1  0.02006344  0.88187976  0.33539498  1
  H+  H97  1  0.35720249  0.00308182  1.00354104  1
  H+  H98  1  0.13781888  0.79924667  0.83445225  1
  H+  H99  1  0.64943264  0.39163782  0.53312278  1
  H+  H100  1  0.36849310  0.38345817  0.67648736  1
  H+  H101  1  0.37215860  0.73817380  0.66813585  1
  H+  H102  1  0.11098984  0.14125660  0.51028792  1
  H+  H103  1  0.50545866  0.09628113  0.82744601  1
  H+  H104  1  0.28920483  0.40244685  0.49595960  1
  H+  H105  1  0.12034339  0.47051964  0.99995071  1
  H+  H106  1  0.94240597  0.60313459  0.79204486  1
  H+  H107  1  0.12955385  0.26587956  0.83078304  1
  H+  H108  1  0.89037120  0.60761443  0.66028006  1
  H+  H109  1  0.96952638  0.87330229  0.51172203  1
  H+  H110  1  0.62206931  0.88000536  0.83071151  1
  H+  H111  1  0.84234023  0.36347891  0.49942410  1
  H+  H112  1  0.72684889  0.11874598  0.66854154  1
  H+  H113  1  0.40527383  0.38881268  0.51094121  1
  H+  H114  1  0.48330200  0.38714854  0.85615371  1
  H+  H115  1  0.53038588  0.64017310  0.66082196  1
  H+  H116  1  0.44708711  0.35690272  0.17651733  1
  H+  H117  1  0.86538844  0.72522740  0.36004252  1
  H+  H118  1  0.92838008  0.12804211  0.58238766  1
  H+  H119  1  0.33013403  0.11039965  1.00618693  1
  H+  H120  1  0.02667779  0.38292444  -0.00274288  1
  H+  H121  1  0.59823597  0.87159889  0.48023598  1
  H+  H122  1  0.74486911  0.84112994  0.47200028  1
  H+  H123  1  0.86287386  0.13599876  0.67702691  1
  H+  H124  1  0.12012113  0.48253018  0.66963190  1
  H+  H125  1  0.20139549  0.07688995  0.50223373  1
  H+  H126  1  0.39056382  0.37486024  0.85264241  1
  H+  H127  1  0.39281020  0.53269244  0.66858480  1
  H+  H128  1  0.36193260  0.89006490  0.66190366  1
  H+  H129  1  0.63697072  0.12134195  1.04564693  1
  H+  H130  1  0.35647842  0.12613482  0.81702790  1
  H+  H131  1  0.86465063  0.85853205  0.31303102  1
  H+  H132  1  0.87643895  0.76851774  0.81133382  1
  H+  H133  1  0.47720598  0.37274271  0.66908840  1
  H+  H134  1  0.39874919  0.03141447  0.66604225  1
  H+  H135  1  0.73512270  0.08588152  0.18005375  1
  H+  H136  1  0.65879658  0.60743547  0.89055924  1
  H+  H137  1  0.73036465  0.89169070  0.30360843  1
  H+  H138  1  0.63182782  0.62869322  0.19484080  1
  H+  H139  1  0.63795740  0.43478924  0.83333239  1
  H+  H140  1  0.87304580  0.35112896  0.17429887  1
  H+  H141  1  0.10710922  0.71306794  0.49668752  1
  H+  H142  1  0.27871036  0.64023934  0.32634698  1
  H+  H143  1  0.12946473  0.12349517  -0.00714653  1
  H+  H144  1  0.16125235  0.07641514  0.56722499  1
  H+  H145  1  0.89115254  0.45637441  0.82761423  1
  H+  H146  1  0.11032453  0.13744242  0.81987842  1
  H+  H147  1  0.16381695  0.79699023  0.16660112  1
  H+  H148  1  0.56200426  0.80821584  0.17888100  1
  H+  H149  1  0.46286261  0.61250000  0.17664956  1
  H+  H150  1  0.79667972  0.93225355  0.18596360  1
  H+  H151  1  0.58513296  0.49225670  0.16741185  1
  H+  H152  1  0.14164537  0.53011124  0.31934968  1
  H+  H153  1  0.52110105  0.13717979  0.67221140  1
  H+  H154  1  0.66281055  0.10012748  0.20427457  1
  H+  H155  1  0.23579530  0.61546553  0.99913577  1
  H+  H156  1  1.00245267  0.88457522  0.14606950  1
  H+  H157  1  0.02611521  0.14417909  0.00486535  1
  H+  H158  1  0.61507959  0.73031733  0.11449662  1
  H+  H159  1  0.37462815  0.64481738  0.47853572  1
  H+  H160  1  0.36594062  -0.02379697  0.32688030  1
  H+  H161  1  0.90141788  0.63739617  0.17978697  1
  H+  H162  1  0.08451469  0.67968070  0.10072614  1
  H+  H163  1  0.95358476  0.21934436  0.55485873  1
  H+  H164  1  0.81462036  0.43374023  -0.00550498  1
  H+  H165  1  0.47827980  0.36318363  0.32759190  1
  H+  H166  1  0.36713268  0.65345569  0.16622498  1
  H+  H167  1  0.13024775  0.98440516  0.65790971  1
  H+  H168  1  1.02693939  0.63076326  0.67308705  1
  H+  H169  1  0.92139873  0.04898324  0.17195719  1
  H+  H170  1  0.86230638  0.88864803  0.81703603  1
  H+  H171  1  0.10739692  0.39891004  0.16055982  1
  H+  H172  1  0.12348220  0.36549656  0.98503363  1
  H+  H173  1  0.62934370  0.45051733  0.42256034  1
  H+  H174  1  0.96850974  0.36472373  0.17555545  1
  H+  H175  1  0.81322419  0.66595090  0.71219293  1
  H+  H176  1  0.27036515  0.38378933  0.67502857  1
  H+  H177  1  0.74907847  0.35353075  0.14829224  1
  H+  H178  1  0.05454172  0.63929142  0.94477246  1
  H+  H179  1  1.01000902  0.88666115  0.99539085  1
  H+  H180  1  0.37834968  0.48571757  0.34291991  1
  H+  H181  1  0.46198717  0.60106072  0.86856641  1
  H+  H182  1  0.83987813  0.16651872  0.07143325  1
  H+  H183  1  0.03878713  0.66535518  0.16444600  1
  H+  H184  1  0.13739690  0.78018683  0.97356779  1
  H+  H185  1  0.62089102  0.13779762  0.67306055  1
  H+  H186  1  0.62233966  0.00784164  0.48192683  1
  H+  H187  1  0.76081089  0.42845300  0.84702455  1
  H+  H188  1  0.39423389  0.61935783  0.33324346  1
  H+  H189  1  0.10944182  0.48736992  0.16500342  1
  H+  H190  1  0.83796637  0.63715405  0.79353994  1
  H+  H191  1  0.85380066  0.89563241  0.01869687  1
  H+  H192  1  0.14741721  0.65570840  0.33685803  1
  H+  H193  1  0.37723668  1.01034373  0.83927306  1
  H+  H194  1  0.15159151  0.28519979  0.34238108  1
  H+  H195  1  0.68112778  0.31820051  0.98203718  1
  H+  H196  1  0.86117117  0.75668950  0.64776973  1
  H+  H197  1  0.64763665  0.54810541  0.34639539  1
  H+  H198  1  0.03051824  0.29365640  0.44182143  1
  H+  H199  1  1.00792856  0.13922531  0.16461147  1
  H+  H200  1  0.88616200  0.61501406  0.33673076  1
  H+  H201  1  0.83999246  0.60796883  0.50460172  1
  H+  H202  1  0.58298331  0.27724444  -0.02202838  1
  H+  H203  1  0.40421686  0.54465537  0.49183382  1
  H+  H204  1  0.86387238  0.47635061  0.34251243  1
  H+  H205  1  0.14134186  0.60450767  0.50947572  1
  H+  H206  1  0.66160691  0.15418933  0.02107040  1
  H+  H207  1  0.77887461  0.38416753  0.33893808  1
  H+  H208  1  0.84862029  0.14384514  0.49381821  1
  H+  H209  1  0.74169944  0.84901183  0.14833083  1
  H+  H210  1  0.49698001  0.40321543  0.00343166  1
  H+  H211  1  0.07143820  0.38830804  0.41965057  1
  H+  H212  1  0.14984640  0.50986022  0.84231772  1
  H+  H213  1  0.25715349  0.87835622  0.17457241  1
  H+  H214  1  0.87427066  0.77624456  1.00935475  1
  H+  H215  1  0.76213469  0.62710081  0.65063965  1
  H+  H216  1  0.37861784  0.01479266  0.48970234  1
  H+  H217  1  0.57100546  0.14329272  0.41963042  1
  H+  H218  1  0.22246966  0.86849992  0.98538909  1
  H+  H219  1  0.38132467  0.41397797  0.02982229  1
  H+  H220  1  0.33440531  0.37925818  0.18264888  1
  H+  H221  1  0.38703872  0.61718192  0.84170490  1
  H+  H222  1  0.60137461  0.67614048  0.71244581  1
  H+  H223  1  0.11061615  0.88534996  0.33310340  1
  H+  H224  1  0.27887794  0.88547058  0.81897766  1
  H+  H225  1  0.65213294  0.56342470  0.98730146  1
  H+  H226  1  0.56852780  0.16770657  0.03745046  1
  H+  H227  1  0.51602998  0.12670854  0.32836927  1
  H+  H228  1  0.36719832  0.22899269  0.34383187  1
  H+  H229  1  0.14813333  0.78872062  0.31535874  1
  H+  H230  1  0.63960721  0.77249530  0.83686891  1
  H+  H231  1  0.62033766  0.23626597  0.67587129  1
  H+  H232  1  0.39342172  0.37062298  0.33204110  1
  H+  H233  1  0.12697480  0.35405187  0.83172333  1
  H+  H234  1  0.11728943  0.90466219  0.81510499  1
  H+  H235  1  0.77539975  0.65512516  0.01162562  1
  H+  H236  1  0.86206370  0.13499280  0.82829582  1
  H+  H237  1  0.34785409  0.21756346  0.15837427  1
  H+  H238  1  0.66141040  0.25757885  0.83625159  1
  H+  H239  1  0.28820441  0.39584178  0.34095913  1
  H+  H240  1  0.96811978  0.34254841  0.50316536  1
  H+  H241  1  1.03724719  0.16872272  0.51826557  1
  H+  H242  1  0.28156109  0.83785912  0.05164444  1
  H+  H243  1  0.87990879  0.14273659  0.16589000  1
  H+  H244  1  -0.00405401  0.10959376  0.33656646  1
  H+  H245  1  0.03102683  0.39417283  0.33053180  1
  H+  H246  1  0.37396538  0.85442217  0.48803274  1
  H+  H247  1  0.38568115  0.11496198  0.32082935  1
  H+  H248  1  0.12062984  0.15363465  0.14433146  1
  H+  H249  1  0.62577912  0.53621011  0.83561059  1
  H+  H250  1  0.63984392  0.86126550  0.64816332  1
  H+  H251  1  0.40148786  1.02875279  0.16201545  1
  H+  H252  1  0.14144703  0.59078798  0.83881041  1
  H+  H253  1  0.97431512  0.61593117  0.33840996  1
  H+  H254  1  0.13340008  1.03081971  0.83070194  1
  H+  H255  1  0.37388334  0.52618709  0.18677857  1
  H+  H256  1  0.64827988  0.36797531  0.34570203  1
  H+  H257  1  0.41066569  0.90730794  0.15850573  1
  H+  H258  1  0.26241281  0.87725871  0.48084754  1
  H+  H259  1  0.75539109  0.64757018  0.81132933  1
  H+  H260  1  0.60608811  0.10469741  0.48018588  1
  H+  H261  1  0.11490840  0.22962235  0.66951668  1
  H+  H262  1  0.87246252  0.85465463  0.50288148  1
  H+  H263  1  0.22049268  0.09979854  0.15692600  1
  H+  H264  1  0.07094181  0.65662298  0.82911772  1
  H+  H265  1  0.36542037  0.22857051  0.66962370  1
  H+  H266  1  0.33753275  0.43456707  0.08626007  1
  H+  H267  1  0.53143164  0.65283121  0.36447784  1
  H+  H268  1  0.35553173  0.13174066  0.15195016  1
  H+  H269  1  0.23480945  0.12298493  0.65251402  1
  H+  H270  1  0.13314683  0.01916761  0.35030036  1
  H+  H271  1  0.62083143  0.25812447  0.84322929  1
  H+  H272  1  1.02996146  0.39197640  0.67033733  1
  H+  H273  1  0.49035235  0.63034429  0.47361929  1
  H+  H274  1  0.01615752  0.38228556  0.82147261  1
  H+  H275  1  0.77119673  0.64583552  0.34941298  1
  H+  H276  1  0.39322635  0.11028820  0.49907598  1
  H+  H277  1  0.63791393  0.63317798  0.34834573  1
  H+  H278  1  0.38967867  0.53823126  0.01254353  1
  H+  H279  1  0.63977211  0.77255096  0.64258954  1
  H+  H280  1  0.88669195  0.02370428  0.83908915  1
  H+  H281  1  0.10306894  -0.02796055  0.14264724  1
  H+  H282  1  0.27294164  0.13476121  0.81523458  1
  H+  H283  1  0.14671803  0.63120027  0.16828861  1
  H+  H284  1  0.25174793  0.38944780  0.18100392  1
  H+  H285  1  0.97738166  0.10932309  0.66355650  1
  H+  H286  1  0.77331499  0.88679884  0.82588516  1
  H+  H287  1  0.89098709  0.50502800  1.03208714  1
  H+  H288  1  0.17624330  0.85001083  0.25555445  1
  H+  H289  1  0.64772450  0.01182826  0.84141046  1
  H+  H290  1  0.65474298  0.33641833  0.28023711  1
  H+  H291  1  0.18345880  0.57849883  0.93641309  1
  H+  H292  1  0.91424893  0.56987760  0.91332990  1
  H+  H293  1  0.07028501  0.90059165  0.43596405  1
  H+  H294  1  0.65597593  0.84073662  0.25324479  1
  H+  H295  1  0.08920152  0.18124062  0.06559007  1
  H+  H296  1  0.14409348  0.86688689  0.65395158  1
  H+  H297  1  0.67462685  0.05235160  0.28702017  1
  H+  H298  1  0.16366063  0.08975489  0.89094530  1
  H+  H299  1  0.91737134  0.84412370  0.22224443  1
  H+  H300  1  0.36743083  0.93007893  0.10178277  1
  H+  H301  1  0.50922887  0.11250532  0.48148749  1
  H+  H302  1  0.91875084  0.33228233  0.60600480  1
  H+  H303  1  0.31206855  0.15707801  0.06581397  1
  H+  H304  1  0.39574171  0.06518076  0.90024565  1
  H+  H305  1  0.82152705  0.67502040  0.07721364  1
  H+  H306  1  0.39391217  0.57648314  0.94717340  1
  H+  H307  1  0.92975398  0.82126194  0.86862699  1
  H+  H308  1  0.40229444  0.82831591  0.57740743  1
  H+  H309  1  0.67958964  0.04754858  0.93488570  1
  H+  H310  1  0.56887538  0.13219044  0.77106485  1
  H+  H311  1  0.61324676  0.15806844  0.15363043  1
  H+  H312  1  0.39915130  0.12096937  0.66319136  1
  H+  H313  1  0.56216942  0.87606535  0.39604825  1
  H+  H314  1  0.28031944  0.13905451  0.35528389  1
  H+  H315  1  0.83372218  0.16681080  0.73587907  1
  H+  H316  1  0.12551392  0.15404184  0.37271097  1
  H+  H317  1  0.42461406  0.36134678  0.95543543  1
  H+  H318  1  0.33916783  0.91369774  0.76030813  1
  H+  H319  1  0.07848479  0.41417978  0.76263251  1
  H+  H320  1  0.76439033  0.64258214  0.17236342  1
  H+  H321  1  0.58446147  0.43167486  0.77267492  1
  H+  H322  1  0.42379099  0.35471547  0.60665401  1
  H+  H323  1  0.32843224  0.41153858  0.74215636  1
  H+  H324  1  0.91925099  0.08405345  0.89882620  1
  H+  H325  1  0.36025517  0.19097359  0.43718553  1
  H+  H326  1  0.43699661  0.84543841  0.24915000  1
  H+  H327  1  0.15485847  0.32394459  0.92200143  1
  H+  H328  1  0.41076280  0.08915539  0.25677180  1
  H+  H329  1  0.91176916  0.57479051  0.56744341  1
  H+  H330  1  0.09825127  0.92760288  0.71668786  1
  H+  H331  1  0.91830030  0.33636706  0.26685383  1
  H+  H332  1  0.68806783  0.39302393  0.89881420  1
  H+  H333  1  0.33971024  0.68156608  0.06834142  1
  H+  H334  1  0.81455672  0.39061983  0.43941771  1
  H+  H335  1  0.17299201  0.85703183  0.89275630  1
  H+  H336  1  0.87333243  0.82698742  0.95083700  1
  H+  H337  1  0.14902167  0.06606044  0.20851007  1
  H+  H338  1  0.86191014  0.34816017  0.84276063  1
  H+  H339  1  0.19323552  0.73509767  0.37998473  1
  H+  H340  1  0.90278700  0.83980921  0.59152448  1
  H+  H341  1  0.08429029  0.16792999  0.72737028  1
  H+  H342  1  0.66753871  0.82339468  0.90140387  1
  H+  H343  1  0.65548757  0.59167103  0.25125005  1
  H+  H344  1  0.15415635  0.09545750  0.30615456  1
  H+  H345  1  0.12805290  0.84813669  0.50686184  1
  H+  H346  1  0.78503921  0.14191578  0.34434305  1
  H+  H347  1  0.33424284  0.66956088  0.42216019  1
  H+  H348  1  0.08486347  0.65758469  0.43740757  1
  H+  H349  1  0.82235122  0.91225285  0.72665346  1
  H+  H350  1  0.93520345  0.61176475  0.23840600  1
  H+  H351  1  0.18063130  0.35014895  0.60427593  1
  H+  H352  1  0.82185266  0.40543759  0.10055782  1
  H+  H353  1  0.81494781  0.89217427  0.38251989  1
  H+  H354  1  0.11866811  0.63496346  0.67197303  1
  H+  H355  1  0.17330189  0.32762449  0.27611496  1
  H+  H356  1  0.53712087  0.22801942  0.06721611  1
  H+  H357  1  0.14331965  0.12129947  0.65368731  1
  H+  H358  1  0.60667907  0.38349983  0.68253040  1
  H+  H359  1  0.34588350  0.42357074  0.43500889  1
  H+  H360  1  0.75863419  0.77188380  0.44175031  1
  H+  H361  1  0.34745477  0.68485993  0.73099709  1
  H+  H362  1  0.23438795  0.61900624  0.66059874  1
  H+  H363  1  0.33218889  0.16199677  0.72538368  1
  H+  H364  1  0.95526419  0.08444121  0.27028903  1
  H+  H365  1  0.12248436  0.39665557  0.33323901  1
  H+  H366  1  0.66456000  0.33701896  0.61580773  1
  H+  H367  1  0.60036870  0.91453234  0.73803569  1
  H+  H368  1  0.06389472  0.91009562  0.08017861  1
  H+  H369  1  0.32165179  0.90841352  0.41948626  1
  H+  H370  1  0.38442054  0.74994072  0.15945567  1
  H+  H371  1  0.62210990  0.46108872  0.05979025  1
  H+  H372  1  0.23588253  0.63192788  0.16966777  1
  H+  H373  1  0.83279316  0.41401562  0.74015821  1
  H+  H374  1  0.83591657  0.76701401  0.28535484  1
  H+  H375  1  0.39893911  0.31760218  0.23828975  1
  H+  H376  1  0.43112173  0.59271162  0.27861808  1
  H+  H377  1  0.82795657  0.17215583  0.42920540  1
  H+  H378  1  0.17094663  0.59094496  0.25905710  1
  H+  H379  1  0.07222531  0.62853038  0.76068413  1
  H+  H380  1  0.93770225  0.61772313  0.90836128  1
  H+  H381  1  0.58963049  0.27628101  0.15712157  1
  H+  H382  1  0.16805967  0.82498746  0.56354178  1
  H+  H383  1  0.09272606  0.18963816  0.42471937  1
  O2-  O384  1  0.09075217  0.18412863  0.13237357  1
  O2-  O385  1  0.09462923  0.18499438  0.50003877  1
  O2-  O386  1  0.07886392  0.16652188  0.80395700  1
  O2-  O387  1  0.07221640  0.42586803  0.15466052  1
  O2-  O388  1  0.05572828  0.35205237  0.45757652  1
  O2-  O389  1  0.07663663  0.40748859  0.80813345  1
  O2-  O390  1  0.09724987  0.68873817  0.14398171  1
  O2-  O391  1  0.07684385  0.65247120  0.48175387  1
  O2-  O392  1  0.05926181  0.60706021  0.80465331  1
  O2-  O393  1  0.06342613  0.91073936  0.12704151  1
  O2-  O394  1  0.06887164  0.89812569  0.48101567  1
  O2-  O395  1  0.08703722  0.93289333  0.79724480  1
  O2-  O396  1  0.32155382  0.15944076  0.13849873  1
  O2-  O397  1  0.36751321  0.19928609  0.48248985  1
  O2-  O398  1  0.32993244  0.15603410  0.79646896  1
  O2-  O399  1  0.31364957  0.41910107  0.17156513  1
  O2-  O400  1  0.34896489  0.42769104  0.48022485  1
  O2-  O401  1  0.32312242  0.41395421  0.80691476  1
  O2-  O402  1  0.34398798  0.68800109  0.14777897  1
  O2-  O403  1  0.33558321  0.66928731  0.46731442  1
  O2-  O404  1  0.34587685  0.67295380  0.81260740  1
  O2-  O405  1  0.37437220  0.93650827  0.14615823  1
  O2-  O406  1  0.32248545  0.90844935  0.46478357  1
  O2-  O407  1  0.33945536  0.91130019  0.80600750  1
  O2-  O408  1  0.60996427  0.19059531  0.18805924  1
  O2-  O409  1  0.57177583  0.14067480  0.46525727  1
  O2-  O410  1  0.55542229  0.09705418  0.80775314  1
  O2-  O411  1  0.54813250  0.44046963  0.14185748  1
  O2-  O412  1  0.60568636  0.45125995  0.49389392  1
  O2-  O413  1  0.58857157  0.44184104  0.81731273  1
  O2-  O414  1  0.64027545  0.78682795  0.13385418  1
  O2-  O415  1  0.58998559  0.67556012  0.44410247  1
  O2-  O416  1  0.58845673  0.68012054  0.79271187  1
  O2-  O417  1  0.53791617  0.88549209  0.15538487  1
  O2-  O418  1  0.56777440  0.90045334  0.46132566  1
  O2-  O419  1  0.59455747  0.91132543  0.81200073  1
  O2-  O420  1  0.83787357  0.16012617  0.15177793  1
  O2-  O421  1  0.81392362  0.16616503  0.47522340  1
  O2-  O422  1  0.82994816  0.16277558  0.81256763  1
  O2-  O423  1  0.81076425  0.39110946  0.14436013  1
  O2-  O424  1  0.79359052  0.36334481  0.47925361  1
  O2-  O425  1  0.83366658  0.42014645  0.81141971  1
  O2-  O426  1  0.82137369  0.67081117  0.15241019  1
  O2-  O427  1  0.79826447  0.62742412  0.49053352  1
  O2-  O428  1  0.81208640  0.67604834  0.79006418  1
  O2-  O429  1  0.80278258  0.89749565  0.15442058  1
  O2-  O430  1  0.79038053  0.83337136  0.45075113  1
  O2-  O431  1  0.83125003  0.91952081  0.80627281  1
  O2-  O432  1  0.15638429  0.06613004  0.16473730  1
  O2-  O433  1  0.14847270  0.06726623  0.52126239  1
  O2-  O434  1  0.16468731  0.09140426  0.84610123  1
  O2-  O435  1  0.13716684  0.31320526  0.19852466  1
  O2-  O436  1  0.18561811  0.35266872  0.52763541  1
  O2-  O437  1  0.15989543  0.32647690  0.84737528  1
  O2-  O438  1  0.17485067  0.59909800  0.18349321  1
  O2-  O439  1  0.17686837  0.58176142  0.52650692  1
  O2-  O440  1  0.17960558  0.57089305  0.85612694  1
  O2-  O441  1  0.19593053  0.85598243  0.18377133  1
  O2-  O442  1  0.16324942  0.82163398  0.51800646  1
  O2-  O443  1  0.17454014  0.85858353  0.84695180  1
  O2-  O444  1  0.41774172  0.09105190  0.17325253  1
  O2-  O445  1  0.41857097  0.07347158  0.50524050  1
  O2-  O446  1  0.40335097  0.06999278  0.85586893  1
  O2-  O447  1  0.39004898  0.31572322  0.19342075  1
  O2-  O448  1  0.44071845  0.36550795  0.53029676  1
  O2-  O449  1  0.42741608  0.36119585  0.87741298  1
  O2-  O450  1  0.40843909  0.58842422  0.19831759  1
  O2-  O451  1  0.43376397  0.60772742  0.49515493  1
  O2-  O452  1  0.40137925  0.57310125  0.85801480  1
  O2-  O453  1  0.44934782  0.85539499  0.17776713  1
  O2-  O454  1  0.40560638  0.82631993  0.50472675  1
  O2-  O455  1  0.42786477  0.83694287  0.85198784  1
  O2-  O456  1  0.67548187  0.05411318  0.19744560  1
  O2-  O457  1  0.64698834  0.06734537  0.49807931  1
  O2-  O458  1  0.67345576  0.07101271  0.85871722  1
  O2-  O459  1  0.57691735  0.30101118  0.12152843  1
  O2-  O460  1  0.66275527  0.34770363  0.54703133  1
  O2-  O461  1  0.71668294  0.43890550  0.86888543  1
  O2-  O462  1  0.65244628  0.58944113  0.20540588  1
  O2-  O463  1  0.64020435  0.54075915  0.51300800  1
  O2-  O464  1  0.65518967  0.60086900  0.84590321  1
  O2-  O465  1  0.58675175  0.77010688  0.18906353  1
  O2-  O466  1  0.65125776  0.82394304  0.50046648  1
  O2-  O467  1  0.67211394  0.83023343  0.85605569  1
  O2-  O468  1  0.94871663  0.10672719  0.18861499  1
  O2-  O469  1  0.94567320  0.16307511  0.54380330  1
  O2-  O470  1  0.91927068  0.08441719  0.85336834  1
  O2-  O471  1  0.90812654  0.32661172  0.19047420  1
  O2-  O472  1  0.91543281  0.31881449  0.52839002  1
  O2-  O473  1  0.89662667  0.32314833  0.85988915  1
  O2-  O474  1  0.94800452  0.62925739  0.19554427  1
  O2-  O475  1  0.90490208  0.57680824  0.52283289  1
  O2-  O476  1  0.88288765  0.58325625  0.78065669  1
  O2-  O477  1  0.91600564  0.84462830  0.17657380  1
  O2-  O478  1  0.92038725  0.87339754  0.53244427  1
  O2-  O479  1  0.91693321  0.82986638  0.82716408  1
  O2-  O480  1  0.16755422  0.08365367  0.34661663  1
  O2-  O481  1  0.17428700  0.09310758  0.63610810  1
  O2-  O482  1  0.15942718  0.09099520  0.97687515  1
  O2-  O483  1  0.18145102  0.34146235  0.32027034  1
  O2-  O484  1  0.17861555  0.34475108  0.64986711  1
  O2-  O485  1  0.15493160  0.32799619  0.96791994  1
  O2-  O486  1  0.17342402  0.59096779  0.30482741  1
  O2-  O487  1  0.17412638  0.58705285  0.64591082  1
  O2-  O488  1  0.17593460  0.58215116  0.98106707  1
  O2-  O489  1  0.16998498  0.84874157  0.30171201  1
  O2-  O490  1  0.17290773  0.83251312  0.64161127  1
  O2-  O491  1  0.16386519  0.84366444  0.96769133  1
  O2-  O492  1  0.41312163  0.08442184  0.30149135  1
  O2-  O493  1  0.43438461  0.09322105  0.65534875  1
  O2-  O494  1  0.37733497  0.06079075  0.98672648  1
  O2-  O495  1  0.41765646  0.33330773  0.31647302  1
  O2-  O496  1  0.41669618  0.34745905  0.65204814  1
  O2-  O497  1  0.43450097  0.36610609  1.00037701  1
  O2-  O498  1  0.42915586  0.59128366  0.32370265  1
  O2-  O499  1  0.42752901  0.59181666  0.65438514  1
  O2-  O500  1  0.41053380  0.59400640  0.98945198  1
  O2-  O501  1  0.42442568  0.83571244  0.29489435  1
  O2-  O502  1  0.41423194  0.84121599  0.62283557  1
  O2-  O503  1  0.41298311  0.83276302  0.97574401  1
  O2-  O504  1  0.67784305  0.07269497  0.32893782  1
  O2-  O505  1  0.66473101  0.09097732  0.65716093  1
  O2-  O506  1  0.68700294  0.02866075  0.97576948  1
  O2-  O507  1  0.66011784  0.32661211  0.32309844  1
  O2-  O508  1  0.66199624  0.32860473  0.66237353  1
  O2-  O509  1  0.63689591  0.33103789  0.96929711  1
  O2-  O510  1  0.66838772  0.60509104  0.32736286  1
  O2-  O511  1  0.65639946  0.56710396  0.63348539  1
  O2-  O512  1  0.68034216  0.62509688  0.97345197  1
  O2-  O513  1  0.67979880  0.88867985  0.28260491  1
  O2-  O514  1  0.66988793  0.83398773  0.62842120  1
  O2-  O515  1  0.66325798  0.81766026  0.97876525  1
  O2-  O516  1  0.95736381  0.06090879  0.31050858  1
  O2-  O517  1  0.91660213  0.08349114  0.64940603  1
  O2-  O518  1  0.92254964  0.09101737  0.97850337  1
  O2-  O519  1  0.92750015  0.34132196  0.31204657  1
  O2-  O520  1  0.92314944  0.33647591  0.65120002  1
  O2-  O521  1  0.92060392  0.33491587  0.98171790  1
  O2-  O522  1  0.91712808  0.58617143  0.32039985  1
  O2-  O523  1  0.92168070  0.57794210  0.64804938  1
  O2-  O524  1  0.93694714  0.60675167  1.04476029  1
  O2-  O525  1  0.88790157  0.82021167  0.29635663  1
  O2-  O526  1  0.89234491  0.82220536  0.63874702  1
  O2-  O527  1  0.90035777  0.83678386  0.99070011  1
  O2-  O528  1  0.08809692  0.17601974  0.01736590  1
  O2-  O529  1  0.09757026  0.18860989  0.37925769  1
  O2-  O530  1  0.08571147  0.16827435  0.68164995  1
  O2-  O531  1  0.08908948  0.40752502  0.00757241  1
  O2-  O532  1  0.09144721  0.42640209  0.34726228  1
  O2-  O533  1  0.09078269  0.42196921  0.68568786  1
  O2-  O534  1  0.09288712  0.66876584  -0.02107702  1
  O2-  O535  1  0.13840864  0.70002742  0.35940576  1
  O2-  O536  1  0.08611942  0.66082498  0.69126082  1
  O2-  O537  1  0.07104664  0.91747819  0.00990980  1
  O2-  O538  1  0.07749845  0.91045476  0.35348611  1
  O2-  O539  1  0.10297012  0.92417799  0.67211883  1
  O2-  O540  1  0.30617435  0.14885379  0.01985148  1
  O2-  O541  1  0.34364249  0.17034823  0.36163206  1
  O2-  O542  1  0.33489264  0.16656017  0.67884669  1
  O2-  O543  1  0.35056489  0.44481159  0.04280211  1
  O2-  O544  1  0.34914768  0.42342734  0.35529776  1
  O2-  O545  1  0.33173686  0.41139318  0.69358906  1
  O2-  O546  1  0.33544676  0.67669169  0.02308313  1
  O2-  O547  1  0.33884293  0.67179513  0.34227387  1
  O2-  O548  1  0.34442912  0.68002870  0.68590963  1
  O2-  O549  1  0.31765775  0.88552387  0.02451200  1
  O2-  O550  1  0.33606551  0.91481527  0.33935685  1
  O2-  O551  1  0.33550933  0.91951841  0.68349753  1
  O2-  O552  1  0.52446510  0.18459050  0.03405607  1
  O2-  O553  1  0.57597295  0.15192417  0.34414121  1
  O2-  O554  1  0.58759174  0.16996950  0.68675548  1
  O2-  O555  1  0.61965367  0.46377802  0.01553701  1
  O2-  O556  1  0.65475454  0.45754756  0.38035050  1
  O2-  O557  1  0.57630398  0.41564902  0.69301980  1
  O2-  O558  1  0.63170013  0.65501090  0.01056482  1
  O2-  O559  1  0.59289896  0.68495750  0.37712854  1
  O2-  O560  1  0.59493268  0.67047685  0.66762428  1
  O2-  O561  1  0.56597421  0.88836148  0.02535587  1
  O2-  O562  1  0.55403595  0.85162311  0.35211995  1
  O2-  O563  1  0.59378633  0.91384875  0.69217218  1
  O2-  O564  1  0.83988632  0.16680942  0.02606643  1
  O2-  O565  1  0.84445943  0.17627810  0.36089171  1
  O2-  O566  1  0.83431901  0.16858847  0.69018232  1
  O2-  O567  1  0.85648630  0.44041758  0.02519135  1
  O2-  O568  1  0.83768790  0.41546741  0.35554555  1
  O2-  O569  1  0.82943694  0.41329662  0.69330368  1
  O2-  O570  1  0.83266985  0.68171485  0.03216002  1
  O2-  O571  1  0.83020076  0.66300372  0.36547910  1
  O2-  O572  1  0.82158910  0.66420576  0.66743995  1
  O2-  O573  1  0.82330400  0.92780923  0.02729101  1
  O2-  O574  1  0.82466033  0.91022901  0.33898362  1
  O2-  O575  1  0.82649887  0.91128950  0.68133117  1
