# generated using pymatgen
data_H2O
_symmetry_space_group_name_H-M   'P 1'
_cell_length_a   17.99079986
_cell_length_b   17.98998018
_cell_length_c   21.99162212
_cell_angle_alpha   90.01419262
_cell_angle_beta   89.99643541
_cell_angle_gamma   119.98757684
_symmetry_Int_Tables_number   1
_chemical_formula_structural   H2O
_chemical_formula_sum   'H384 O192'
_cell_volume   6164.86246191
_cell_formula_units_Z   192
loop_
 _symmetry_equiv_pos_site_id
 _symmetry_equiv_pos_as_xyz
  1  'x, y, z'
loop_
 _atom_type_symbol
 _atom_type_oxidation_number
  H+  1.0
  O2-  -2.0
loop_
 _atom_site_type_symbol
 _atom_site_label
 _atom_site_symmetry_multiplicity
 _atom_site_fract_x
 _atom_site_fract_y
 _atom_site_fract_z
 _atom_site_occupancy
  H+  H0  1  0.78089235  0.39617046  0.82504997  1
  H+  H1  1  0.75388910  0.63725814  0.32643141  1
  H+  H2  1  0.60003352  0.62603600  0.00974035  1
  H+  H3  1  0.77893972  0.29514863  0.88088550  1
  H+  H4  1  0.87469121  0.14584256  0.33390476  1
  H+  H5  1  0.63174377  0.85909026  0.15954263  1
  H+  H6  1  0.75184936  0.61399936  0.68851327  1
  H+  H7  1  0.60968759  -0.02989890  0.32778866  1
  H+  H8  1  0.37261093  0.89773416  0.14728971  1
  H+  H9  1  0.89115680  0.11527731  0.17338919  1
  H+  H10  1  0.00716953  0.13743271  0.66158106  1
  H+  H11  1  0.36705565  0.03266634  0.43257403  1
  H+  H12  1  0.70712858  0.85898909  0.49617232  1
  H+  H13  1  0.60252766  0.37157017  1.00230508  1
  H+  H14  1  0.47766698  0.87312273  0.31307346  1
  H+  H15  1  0.55729576  0.90868417  0.50249166  1
  H+  H16  1  0.67585123  0.07059821  0.25249144  1
  H+  H17  1  0.35804057  0.13502739  0.47917611  1
  H+  H18  1  0.70137929  0.58380271  -0.00253248  1
  H+  H19  1  0.06486215  0.89823256  0.49743300  1
  H+  H20  1  0.61717003  0.13222920  0.01619349  1
  H+  H21  1  0.14184762  0.61042287  0.87624461  1
  H+  H22  1  0.51170378  0.36994564  1.00346975  1
  H+  H23  1  0.88841567  0.27856913  0.32677288  1
  H+  H24  1  0.98662020  0.38198774  0.64553233  1
  H+  H25  1  0.84607439  0.19575735  0.82410943  1
  H+  H26  1  0.85858934  0.98285898  0.67635383  1
  H+  H27  1  0.61533530  0.24598562  0.33870561  1
  H+  H28  1  0.11344995  0.14049391  0.00260892  1
  H+  H29  1  0.63589776  0.02562830  0.65259169  1
  H+  H30  1  0.86622133  0.22977500  1.01793196  1
  H+  H31  1  0.52494511  0.64542734  0.34342688  1
  H+  H32  1  0.11776143  0.38878713  0.33768030  1
  H+  H33  1  1.02788007  0.88700953  0.15321535  1
  H+  H34  1  0.12847036  0.24014322  0.49220474  1
  H+  H35  1  0.38023441  0.93041547  0.81646965  1
  H+  H36  1  0.25214646  0.39730482  0.84531725  1
  H+  H37  1  0.35519939  0.47418901  0.02086360  1
  H+  H38  1  0.52413270  0.38388883  0.15988030  1
  H+  H39  1  0.88839944  0.53283776  0.83972906  1
  H+  H40  1  0.82886365  0.67179218  0.01468547  1
  H+  H41  1  0.43825309  0.59223483  0.87313113  1
  H+  H42  1  0.09720836  0.66507422  0.77978754  1
  H+  H43  1  0.64898562  0.78233530  0.32218335  1
  H+  H44  1  0.41171507  0.05532382  0.95451913  1
  H+  H45  1  0.77322881  0.39086354  0.15873556  1
  H+  H46  1  0.54786594  0.65740313  0.82065488  1
  H+  H47  1  0.14324237  -0.01008306  0.48918162  1
  H+  H48  1  0.86523389  0.47890164  0.15949877  1
  H+  H49  1  0.63729399  0.78525070  0.65340586  1
  H+  H50  1  0.52374040  0.88659454  0.66435761  1
  H+  H51  1  0.88934373  0.61078596  0.66332365  1
  H+  H52  1  0.85622359  0.10496734  0.50640631  1
  H+  H53  1  0.11672929  0.63539799  0.67519059  1
  H+  H54  1  0.86369927  0.37750525  0.01502799  1
  H+  H55  1  0.14479080  0.28088040  0.32217655  1
  H+  H56  1  0.60844062  0.63295024  0.49293458  1
  H+  H57  1  0.07237615  0.42331480  0.52416363  1
  H+  H58  1  0.97621819  0.36835663  0.32605914  1
  H+  H59  1  0.35280948  0.64781922  0.00608884  1
  H+  H60  1  0.61528890  0.21264720  0.82502574  1
  H+  H61  1  0.12188500  0.40600754  1.01695117  1
  H+  H62  1  0.48450119  0.87436870  0.15794295  1
  H+  H63  1  0.42097279  0.59874473  0.26946661  1
  H+  H64  1  0.48515947  0.12209067  0.65549402  1
  H+  H65  1  0.12628924  0.45550837  0.15861520  1
  H+  H66  1  0.36911692  0.66009124  0.49550571  1
  H+  H67  1  0.62740534  0.76823789  1.00075563  1
  H+  H68  1  0.23167517  0.36072617  0.17299312  1
  H+  H69  1  0.47379133  0.31279917  0.86342019  1
  H+  H70  1  0.17297185  0.30849101  0.85434685  1
  H+  H71  1  0.11715152  0.13655284  0.15791794  1
  H+  H72  1  0.32484825  0.72891212  0.92542228  1
  H+  H73  1  0.14452177  0.09714602  0.67408023  1
  H+  H74  1  0.91069322  0.77555125  0.02256730  1
  H+  H75  1  0.39157210  0.37165129  0.32264766  1
  H+  H76  1  0.38998584  0.27715093  0.50098908  1
  H+  H77  1  0.72773564  0.11514767  1.00778294  1
  H+  H78  1  0.40261444  0.80254949  1.00456333  1
  H+  H79  1  0.38666094  0.26991537  0.65607067  1
  H+  H80  1  0.63603449  1.01294440  0.15177014  1
  H+  H81  1  0.61205442  0.64222588  0.34285342  1
  H+  H82  1  0.76414293  0.62441858  0.83308184  1
  H+  H83  1  0.58096997  0.93584532  0.82277878  1
  H+  H84  1  0.03016706  0.63594388  -0.00121326  1
  H+  H85  1  0.47238019  0.61923596  0.50153977  1
  H+  H86  1  0.37909472  1.04510350  0.85252054  1
  H+  H87  1  0.57274204  0.17832326  0.41867170  1
  H+  H88  1  0.62520944  0.85488499  1.01149829  1
  H+  H89  1  0.61094518  0.38421136  0.49334242  1
  H+  H90  1  0.73335640  0.10647613  0.31207676  1
  H+  H91  1  0.84265559  0.37442191  0.48946135  1
  H+  H92  1  0.81621125  0.13477092  0.73274423  1
  H+  H93  1  0.14502737  0.52501737  0.32779647  1
  H+  H94  1  0.63401796  0.26157119  -0.00011067  1
  H+  H95  1  0.33349999  0.53984836  0.19501243  1
  H+  H96  1  0.87970061  0.59043017  0.99943564  1
  H+  H97  1  0.08834520  0.20103255  0.80714309  1
  H+  H98  1  0.13959756  0.40317934  0.49615926  1
  H+  H99  1  0.37215259  0.39387787  0.48888798  1
  H+  H100  1  0.26880152  0.38529075  0.67270290  1
  H+  H101  1  0.26478555  0.87187823  0.51824299  1
  H+  H102  1  0.83620415  0.41555497  0.07072560  1
  H+  H103  1  0.72289246  0.35198712  1.00185229  1
  H+  H104  1  0.71321514  0.35457745  0.50209069  1
  H+  H105  1  0.14345824  0.76107356  0.66197203  1
  H+  H106  1  0.13809932  0.11215184  0.32111283  1
  H+  H107  1  0.62901065  0.53415412  0.83372398  1
  H+  H108  1  0.39200393  0.35510673  0.17167706  1
  H+  H109  1  0.73392193  0.37918975  0.32316936  1
  H+  H110  1  0.10003728  0.16235438  0.63720845  1
  H+  H111  1  0.52308318  0.12202150  0.01734491  1
  H+  H112  1  0.62181329  0.13918204  0.66684195  1
  H+  H113  1  0.89357379  0.86077407  0.82726009  1
  H+  H114  1  0.22610398  0.61654371  0.65047060  1
  H+  H115  1  0.38025998  0.75333376  0.15256115  1
  H+  H116  1  0.63255838  1.00328337  0.49075904  1
  H+  H117  1  0.39125591  0.02719497  0.16585706  1
  H+  H118  1  0.36836107  -0.02943283  0.50349294  1
  H+  H119  1  0.33504568  0.69085161  0.83620952  1
  H+  H120  1  0.15019906  0.86422601  0.84476087  1
  H+  H121  1  0.52425581  0.15675665  0.33425083  1
  H+  H122  1  0.52646590  0.65626153  0.67146675  1
  H+  H123  1  1.02330925  0.13953610  1.00579518  1
  H+  H124  1  0.84826022  0.10897755  0.82974472  1
  H+  H125  1  0.16610239  0.87486176  0.50607142  1
  H+  H126  1  0.36445538  0.21989231  0.15979907  1
  H+  H127  1  0.76697676  0.63259812  0.16752430  1
  H+  H128  1  0.36829123  0.48220739  0.48755312  1
  H+  H129  1  0.37617312  0.38810175  0.82656909  1
  H+  H130  1  0.14691923  0.77768609  0.32628621  1
  H+  H131  1  1.04452634  0.64410576  0.34842764  1
  H+  H132  1  0.37687589  0.14257154  0.67018504  1
  H+  H133  1  0.48050020  0.11581655  0.16910569  1
  H+  H134  1  0.26594074  0.59492798  0.83333440  1
  H+  H135  1  0.11821354  0.49011068  -0.00234376  1
  H+  H136  1  0.63791555  0.36432791  0.16942932  1
  H+  H137  1  0.61202235  0.50146504  0.98867544  1
  H+  H138  1  0.95948063  0.36656100  0.48733388  1
  H+  H139  1  0.13045265  0.28720180  0.65712823  1
  H+  H140  1  0.38873562  0.28115400  0.32612731  1
  H+  H141  1  0.87908991  0.59516081  0.50294661  1
  H+  H142  1  0.27769959  0.39561544  0.33316241  1
  H+  H143  1  0.84750833  0.46508699  0.49545014  1
  H+  H144  1  0.78472526  0.88900377  0.32240847  1
  H+  H145  1  0.47115692  0.54257836  0.61928345  1
  H+  H146  1  0.37033529  0.65004822  0.34214254  1
  H+  H147  1  0.11597205  0.92083890  0.74217259  1
  H+  H148  1  0.88641759  0.86229600  0.17015408  1
  H+  H149  1  0.35395678  0.22279053  0.00709934  1
  H+  H150  1  0.38823788  0.78686849  0.30787451  1
  H+  H151  1  0.12125971  0.64915040  0.44144641  1
  H+  H152  1  0.77448913  0.38870416  0.66673704  1
  H+  H153  1  0.03757627  0.15534730  0.48909409  1
  H+  H154  1  0.87081507  0.40426510  0.82683091  1
  H+  H155  1  0.61447433  0.35109091  0.83949322  1
  H+  H156  1  0.76699119  0.12126068  0.66893459  1
  H+  H157  1  0.39324495  0.85958466  0.64164310  1
  H+  H158  1  0.83937545  0.69472424  0.47620407  1
  H+  H159  1  0.27642174  0.14514392  0.49244759  1
  H+  H160  1  0.63056587  0.52089078  0.17332603  1
  H+  H161  1  0.35833322  0.63760538  0.67156615  1
  H+  H162  1  0.13164834  0.64402676  0.34078818  1
  H+  H163  1  0.48550813  0.95653421  0.85729452  1
  H+  H164  1  0.64200019  0.27289921  0.65786397  1
  H+  H165  1  0.46732978  0.61417389  1.02828634  1
  H+  H166  1  1.00502961  0.37755218  0.99597899  1
  H+  H167  1  0.39421621  0.13089117  0.31921760  1
  H+  H168  1  0.93914282  0.80504343  0.51831261  1
  H+  H169  1  0.77486802  0.87832506  0.83448068  1
  H+  H170  1  0.57989186  0.12550637  0.47699849  1
  H+  H171  1  0.61250892  0.72983034  0.16193767  1
  H+  H172  1  0.89176611  0.52452562  0.65963851  1
  H+  H173  1  0.36532066  0.13167256  0.15679896  1
  H+  H174  1  0.71317204  0.09970972  0.84791486  1
  H+  H175  1  1.03593644  0.64492899  0.83623096  1
  H+  H176  1  0.92300256  0.88301978  0.97796704  1
  H+  H177  1  0.63461717  0.52820279  0.32866558  1
  H+  H178  1  0.53335334  0.89233101  0.04523897  1
  H+  H179  1  0.64534365  0.38090360  0.32301384  1
  H+  H180  1  0.25995826  0.91064963  0.35680852  1
  H+  H181  1  0.38864740  0.50849639  0.65753140  1
  H+  H182  1  0.38123891  0.25728169  0.83353691  1
  H+  H183  1  0.16569424  0.08230286  0.90114397  1
  H+  H184  1  0.89015724  0.86346473  0.32476509  1
  H+  H185  1  0.85811475  0.73420358  0.32999860  1
  H+  H186  1  0.16882892  0.08103530  0.22598198  1
  H+  H187  1  0.97965229  0.61590208  0.16776547  1
  H+  H188  1  0.15586327  1.01726571  0.66329230  1
  H+  H189  1  0.98110882  0.11554873  0.17144653  1
  H+  H190  1  0.95132414  0.89596682  0.52683332  1
  H+  H191  1  0.88706056  0.12039045  0.99813890  1
  H+  H192  1  0.86286962  0.62526248  0.83377332  1
  H+  H193  1  0.47462816  0.11586587  0.85897777  1
  H+  H194  1  0.83303632  0.89188215  0.48017599  1
  H+  H195  1  0.87993029  0.35516680  0.17155769  1
  H+  H196  1  0.12579016  0.97669493  0.83070257  1
  H+  H197  1  0.85987069  0.22257374  0.16414377  1
  H+  H198  1  0.39309271  0.81261641  0.89584337  1
  H+  H199  1  0.05511371  0.90687472  -0.00533603  1
  H+  H200  1  0.89858694  0.03145348  0.32108882  1
  H+  H201  1  0.72205554  0.86049886  0.16963903  1
  H+  H202  1  0.14393464  0.03233598  0.99112923  1
  H+  H203  1  0.92783559  0.83725048  0.68671903  1
  H+  H204  1  0.28203363  0.89971965  0.82018435  1
  H+  H205  1  0.37963801  0.36128093  0.99255894  1
  H+  H206  1  0.37823142  0.63228553  0.16592232  1
  H+  H207  1  0.89597426  0.37755630  0.64571803  1
  H+  H208  1  0.24188288  0.37116358  0.50354719  1
  H+  H209  1  0.64397350  0.86585603  0.84307488  1
  H+  H210  1  0.03143727  0.14250709  0.33419143  1
  H+  H211  1  0.87514062  0.10798158  0.66547502  1
  H+  H212  1  0.23421476  0.61543865  0.32382459  1
  H+  H213  1  0.14107517  0.11792997  0.50700877  1
  H+  H214  1  0.28209188  0.89459354  0.14767048  1
  H+  H215  1  0.39962819  0.61411819  0.81783721  1
  H+  H216  1  0.82381454  0.97471329  0.48997243  1
  H+  H217  1  0.86325079  0.84656111  0.00120571  1
  H+  H218  1  0.22956815  0.12232775  0.99256701  1
  H+  H219  1  0.58001819  0.41381614  0.09881897  1
  H+  H220  1  0.39061504  0.53290521  0.32522738  1
  H+  H221  1  0.10839120  0.62952965  0.15656688  1
  H+  H222  1  0.38328327  0.35774196  0.65691898  1
  H+  H223  1  0.75394539  0.60826224  0.47860230  1
  H+  H224  1  0.50660033  0.41298030  0.80785766  1
  H+  H225  1  0.62457166  0.56699371  0.71865495  1
  H+  H226  1  0.62060137  0.26741076  0.50201925  1
  H+  H227  1  0.06282977  0.88613765  0.68070092  1
  H+  H228  1  0.14446252  0.86456984  0.16738229  1
  H+  H229  1  0.83482223  0.42007268  0.72586942  1
  H+  H230  1  0.97574905  0.85483896  0.32672371  1
  H+  H231  1  0.63504529  0.65462692  0.83934246  1
  H+  H232  1  0.28581286  0.13868049  0.66839167  1
  H+  H233  1  0.14201338  0.86611177  0.99698681  1
  H+  H234  1  0.11119271  0.39579969  0.82582825  1
  H+  H235  1  0.88978952  0.61319252  0.17439319  1
  H+  H236  1  0.77275094  0.12876036  0.15738848  1
  H+  H237  1  0.11905327  0.49127248  0.66458225  1
  H+  H238  1  0.26836232  0.13624905  0.82334013  1
  H+  H239  1  0.96210217  0.36169443  0.83796271  1
  H+  H240  1  1.09899523  0.47416296  0.83680109  1
  H+  H241  1  0.58465340  0.66410470  0.07187148  1
  H+  H242  1  0.52289806  0.64090703  0.16462024  1
  H+  H243  1  0.28503434  0.88012635  0.65963635  1
  H+  H244  1  0.03886846  0.88614404  0.82085268  1
  H+  H245  1  0.11300430  0.88244943  0.33111878  1
  H+  H246  1  0.14090580  0.27665756  0.17322523  1
  H+  H247  1  0.63768890  0.75927382  0.84683209  1
  H+  H248  1  0.91868963  0.82982298  0.22582058  1
  H+  H249  1  0.88037981  1.00765053  0.84489478  1
  H+  H250  1  0.48521762  0.91646225  0.86814850  1
  H+  H251  1  0.79028612  0.03720805  0.55032601  1
  H+  H252  1  0.15767058  0.85652822  0.66411220  1
  H+  H253  1  0.68144380  0.14393819  0.51792964  1
  H+  H254  1  0.68751439  0.16177825  0.87844792  1
  H+  H255  1  0.13760750  0.02239839  0.32148352  1
  H+  H256  1  0.62673835  0.51059948  0.50283226  1
  H+  H257  1  0.52209839  0.38631320  0.49283035  1
  H+  H258  1  -0.03450031  0.09644154  0.83683689  1
  H+  H259  1  0.02936906  0.63669028  0.68065191  1
  H+  H260  1  0.82172314  0.64858827  0.76616669  1
  H+  H261  1  0.66381056  0.07901280  0.95140163  1
  H+  H262  1  0.45508491  0.10106294  0.46753270  1
  H+  H263  1  0.14712423  0.77743514  0.16710889  1
  H+  H264  1  0.13328177  0.27525473  -0.00144775  1
  H+  H265  1  0.90682085  0.53590451  0.33062479  1
  H+  H266  1  0.26687269  0.38374918  1.01188499  1
  H+  H267  1  0.84908291  0.98712111  0.01523826  1
  H+  H268  1  0.84423660  0.88670720  0.67601224  1
  H+  H269  1  0.86352725  0.39251916  0.33880932  1
  H+  H270  1  0.86876774  0.22579939  0.48623797  1
  H+  H271  1  0.93359453  0.76074894  1.00064403  1
  H+  H272  1  0.26184301  0.63988645  0.98893246  1
  H+  H273  1  0.61338301  0.65731877  0.67060480  1
  H+  H274  1  0.15368697  0.77658443  0.84639598  1
  H+  H275  1  0.11678159  0.97670273  0.15483684  1
  H+  H276  1  0.89322156  0.51174788  0.99187661  1
  H+  H277  1  0.63626827  0.10272590  0.16224875  1
  H+  H278  1  0.12944569  0.09910652  0.83832343  1
  H+  H279  1  0.14156217  0.38102654  0.65635286  1
  H+  H280  1  0.37757042  0.88958144  0.53527788  1
  H+  H281  1  0.75817868  0.89792082  0.01712366  1
  H+  H282  1  0.66465855  0.32960897  0.59716768  1
  H+  H283  1  0.65372474  0.38419482  0.82265507  1
  H+  H284  1  0.39776378  0.59198588  1.07918357  1
  H+  H285  1  0.40135916  0.78697918  0.54156124  1
  H+  H286  1  0.59420681  0.11935946  0.82346061  1
  H+  H287  1  0.86354143  0.97584103  0.17054090  1
  H+  H288  1  0.82799638  0.92153860  0.11017084  1
  H+  H289  1  0.27292975  0.14364009  0.33438056  1
  H+  H290  1  0.42482074  0.89955015  0.99921570  1
  H+  H291  1  0.66224682  0.82983984  0.56758258  1
  H+  H292  1  0.63028169  0.61060766  0.17567365  1
  H+  H293  1  0.62326464  0.50782978  0.66837766  1
  H+  H294  1  0.09833756  0.91584484  0.06251595  1
  H+  H295  1  0.91212462  0.08409618  0.93869606  1
  H+  H296  1  0.41689875  0.33422562  0.56162463  1
  H+  H297  1  0.31526701  0.64324361  0.73273875  1
  H+  H298  1  0.14813825  0.56550052  0.23561735  1
  H+  H299  1  0.82320701  0.91232431  0.77032235  1
  H+  H300  1  0.56788237  0.43492312  0.75141139  1
  H+  H301  1  0.36108279  0.95303631  0.05609262  1
  H+  H302  1  0.80622103  0.62527578  0.07675749  1
  H+  H303  1  0.16926033  0.34704373  0.94523503  1
  H+  H304  1  0.08669161  0.16842827  0.10028517  1
  H+  H305  1  0.77578701  0.13786607  0.49131971  1
  H+  H306  1  0.33166999  0.40975701  0.73142209  1
  H+  H307  1  0.70099218  0.29653177  0.91639504  1
  H+  H308  1  0.94116796  0.59400103  0.27265939  1
  H+  H309  1  0.18067557  0.34412052  0.56373801  1
  H+  H310  1  0.33760688  0.42419763  0.39246199  1
  H+  H311  1  0.39086242  0.48284973  0.81578983  1
  H+  H312  1  0.83744733  0.16847495  0.39225699  1
  H+  H313  1  0.58262340  0.66865757  0.43336746  1
  H+  H314  1  0.83333455  0.92473109  0.38483955  1
  H+  H315  1  0.39730144  0.03453965  0.64927730  1
  H+  H316  1  0.15177785  0.55008381  0.48915673  1
  H+  H317  1  0.16938459  0.08485978  0.56629375  1
  H+  H318  1  0.33574703  0.40355510  0.09755132  1
  H+  H319  1  0.34404604  0.69148733  0.39606187  1
  H+  H320  1  0.89571999  0.77332711  0.83348664  1
  H+  H321  1  0.58591346  0.16689211  0.10375921  1
  H+  H322  1  0.58427225  0.42415849  0.39866334  1
  H+  H323  1  0.61435660  0.89289554  0.66169179  1
  H+  H324  1  0.40464956  0.32526601  0.93347430  1
  H+  H325  1  0.32312990  0.16053253  0.06453406  1
  H+  H326  1  0.13743645  0.76542899  0.99184711  1
  H+  H327  1  0.11922598  0.63650030  -0.01070094  1
  H+  H328  1  0.06846287  0.14457653  0.74997820  1
  H+  H329  1  0.91196982  0.57518633  0.56464851  1
  H+  H330  1  0.34571638  0.92198302  0.71604488  1
  H+  H331  1  0.33485953  0.68870678  0.09598020  1
  H+  H332  1  0.52524543  0.39559101  0.33860063  1
  H+  H333  1  0.33043741  0.90370269  0.39273165  1
  H+  H334  1  0.62466878  0.75632783  0.50537941  1
  H+  H335  1  0.83691871  0.70571144  0.68315549  1
  H+  H336  1  0.66227900  0.57556081  0.90195229  1
  H+  H337  1  0.61694845  0.22495459  0.16366116  1
  H+  H338  1  0.65889368  0.58348065  0.26582583  1
  H+  H339  1  0.83775501  0.16754535  0.07635195  1
  H+  H340  1  0.17423492  0.83461074  0.26480323  1
  H+  H341  1  0.91979923  0.34316400  0.55598970  1
  H+  H342  1  0.51910692  0.37529683  0.66059537  1
  H+  H343  1  0.37570435  0.46877998  0.15255220  1
  H+  H344  1  0.16868357  0.59947059  0.58985502  1
  H+  H345  1  0.82191510  0.65596775  0.38493615  1
  H+  H346  1  0.66588886  0.57726007  0.55891564  1
  H+  H347  1  0.17213481  0.34070280  0.26296244  1
  H+  H348  1  0.42618301  0.84934877  0.22074418  1
  H+  H349  1  0.92909667  0.09357698  0.26376033  1
  H+  H350  1  0.90969533  0.32907275  0.23141684  1
  H+  H351  1  0.34159633  0.55074771  0.92791256  1
  H+  H352  1  0.33066780  0.17659604  0.39482511  1
  H+  H353  1  0.91366680  0.58689303  0.90261301  1
  H+  H354  1  0.72714466  0.87618153  0.65311863  1
  H+  H355  1  0.92132994  0.34425612  0.90344577  1
  H+  H356  1  0.67284203  0.83212374  0.25849049  1
  H+  H357  1  0.09236990  0.66665216  0.09531927  1
  H+  H358  1  0.40997248  0.58433022  0.55830504  1
  H+  H359  1  0.09449255  0.17376580  0.39196170  1
  H+  H360  1  0.57355050  0.92297666  0.39024838  1
  H+  H361  1  0.82869543  0.41903544  0.39729087  1
  H+  H362  1  0.17737053  0.83485385  0.93319407  1
  H+  H363  1  0.32981018  0.16724871  0.76325690  1
  H+  H364  1  0.08703225  0.43275090  0.72529727  1
  H+  H365  1  0.08971873  0.41856723  0.39776679  1
  H+  H366  1  0.42387142  0.09669636  0.26282715  1
  H+  H367  1  0.61145531  0.37708792  0.66465004  1
  H+  H368  1  0.58746163  0.16502496  0.72666026  1
  H+  H369  1  0.65925292  0.83488904  0.91297666  1
  H+  H370  1  0.23028569  0.11022304  0.16765947  1
  H+  H371  1  0.96471526  0.28856173  0.96144511  1
  H+  H372  1  0.17455382  0.82828798  0.56872241  1
  H+  H373  1  0.85644879  0.72101812  0.15790624  1
  H+  H374  1  0.32845652  0.50566085  0.91858058  1
  H+  H375  1  0.90002579  0.07424883  0.60362520  1
  H+  H376  1  0.60192815  0.91345542  0.75781481  1
  H+  H377  1  0.09267585  0.91649094  0.39196790  1
  H+  H378  1  0.67046936  0.34070521  0.23004241  1
  H+  H379  1  0.90573909  0.82153724  0.61707094  1
  H+  H380  1  0.67959714  0.08847264  0.59303006  1
  H+  H381  1  0.28884529  0.67441378  0.49175740  1
  H+  H382  1  0.96883931  0.88103643  0.91376899  1
  H+  H383  1  0.42277634  0.33025100  0.23256655  1
  O2-  O384  1  0.08644228  0.16774016  0.14558541  1
  O2-  O385  1  0.09749422  0.17856759  0.47760882  1
  O2-  O386  1  0.06700338  0.14165478  0.79525068  1
  O2-  O387  1  0.16998165  0.51632309  0.16267154  1
  O2-  O388  1  0.10713681  0.43445872  0.48759282  1
  O2-  O389  1  0.07564837  0.42061782  0.81253949  1
  O2-  O390  1  0.08851171  0.66837253  0.14011937  1
  O2-  O391  1  0.11223168  0.63440041  0.48598600  1
  O2-  O392  1  0.09682065  0.66927374  0.82504854  1
  O2-  O393  1  0.08845607  0.91620671  0.13877515  1
  O2-  O394  1  0.11932994  0.92895315  0.47540424  1
  O2-  O395  1  0.10195126  0.91709260  0.81258089  1
  O2-  O396  1  0.33178097  0.16035985  0.14349840  1
  O2-  O397  1  0.33505606  0.17556449  0.47475206  1
  O2-  O398  1  0.32810657  0.17168861  0.80836268  1
  O2-  O399  1  0.34204435  0.40726875  0.14336696  1
  O2-  O400  1  0.33912746  0.42137984  0.47333100  1
  O2-  O401  1  0.34965623  0.42039071  0.81001063  1
  O2-  O402  1  0.35343292  0.69117456  0.13818974  1
  O2-  O403  1  0.35205817  0.70358134  0.48618249  1
  O2-  O404  1  0.32022362  0.63602105  0.81349179  1
  O2-  O405  1  0.34176043  0.92774548  0.13147215  1
  O2-  O406  1  0.34135107  0.90687315  0.51115785  1
  O2-  O407  1  0.33588266  0.93936194  0.79802428  1
  O2-  O408  1  0.58557539  0.16428309  0.14937717  1
  O2-  O409  1  0.56175872  0.16694338  0.46720028  1
  O2-  O410  1  0.57265858  0.15702060  0.80778772  1
  O2-  O411  1  0.58449522  0.41925554  0.14391377  1
  O2-  O412  1  0.58359761  0.41846064  0.47859380  1
  O2-  O413  1  0.55572782  0.46140189  0.78718651  1
  O2-  O414  1  0.58181479  0.66615854  0.14938342  1
  O2-  O415  1  0.58121575  0.66699814  0.48001548  1
  O2-  O416  1  0.61250749  0.69188163  0.82256123  1
  O2-  O417  1  0.58470627  0.90815187  0.12846845  1
  O2-  O418  1  0.60126549  0.94387834  0.47294853  1
  O2-  O419  1  0.61749432  0.91808024  0.80203851  1
  O2-  O420  1  0.83581338  0.16231308  0.14695140  1
  O2-  O421  1  0.83866789  0.16547495  0.47132558  1
  O2-  O422  1  0.81366005  0.13469674  0.81357321  1
  O2-  O423  1  0.83335331  0.41934722  0.14230584  1
  O2-  O424  1  0.81295200  0.40603698  0.47655476  1
  O2-  O425  1  0.83988178  0.43350802  0.81036466  1
  O2-  O426  1  0.82513509  0.65801654  0.14860392  1
  O2-  O427  1  0.81313158  0.63677450  0.45993291  1
  O2-  O428  1  0.82545371  0.65208326  0.81453626  1
  O2-  O429  1  0.83214617  0.91530154  0.15533117  1
  O2-  O430  1  0.80000728  0.91807302  0.46644783  1
  O2-  O431  1  0.83203249  0.90671497  0.81467936  1
  O2-  O432  1  0.16809069  0.08017210  0.18060528  1
  O2-  O433  1  0.17072874  0.08674302  0.52117457  1
  O2-  O434  1  0.16392603  0.07519934  0.85501014  1
  O2-  O435  1  0.17249607  0.33684923  0.18844447  1
  O2-  O436  1  0.18035021  0.34139725  0.51827936  1
  O2-  O437  1  0.19161330  0.36881481  0.86048494  1
  O2-  O438  1  0.12097108  0.55028832  0.19386330  1
  O2-  O439  1  0.17665101  0.61056810  0.50333321  1
  O2-  O440  1  0.15983787  0.56977372  0.89098853  1
  O2-  O441  1  0.17803324  0.83774307  0.18216492  1
  O2-  O442  1  0.18798411  0.83814195  0.52382912  1
  O2-  O443  1  0.18343869  0.83759198  0.86103047  1
  O2-  O444  1  0.41888871  0.08694896  0.18234165  1
  O2-  O445  1  0.39111279  0.06249910  0.47200468  1
  O2-  O446  1  0.42006996  0.08665279  0.88168216  1
  O2-  O447  1  0.42362803  0.32648106  0.18712258  1
  O2-  O448  1  0.41992948  0.33813277  0.51613328  1
  O2-  O449  1  0.42428294  0.31865185  0.85245247  1
  O2-  O450  1  0.39088136  0.58467715  0.18274424  1
  O2-  O451  1  0.41055552  0.58929797  0.51340357  1
  O2-  O452  1  0.44237165  0.59486230  0.82873072  1
  O2-  O453  1  0.42423000  0.84886951  0.17387912  1
  O2-  O454  1  0.43330288  0.84548370  0.56117254  1
  O2-  O455  1  0.33907875  0.76042871  0.88641884  1
  O2-  O456  1  0.66837859  0.07198206  0.17045356  1
  O2-  O457  1  0.69515952  0.09860356  0.52428223  1
  O2-  O458  1  0.66469942  0.10017574  0.86954202  1
  O2-  O459  1  0.66991411  0.33601012  0.18446144  1
  O2-  O460  1  0.65298726  0.32694205  0.51922456  1
  O2-  O461  1  0.71869779  0.27999095  0.87714175  1
  O2-  O462  1  0.66013457  0.58017423  0.19151423  1
  O2-  O463  1  0.65993451  0.57502019  0.51473893  1
  O2-  O464  1  0.67125141  0.58787026  0.85642544  1
  O2-  O465  1  0.65936081  0.82741939  0.17936655  1
  O2-  O466  1  0.65305795  0.81973456  0.52022517  1
  O2-  O467  1  0.66791524  0.83291696  0.86704886  1
  O2-  O468  1  0.92188341  0.08540133  0.18910754  1
  O2-  O469  1  0.84673929  0.05270252  0.53350907  1
  O2-  O470  1  0.90871344  0.06958013  0.85689272  1
  O2-  O471  1  0.90604003  0.32157171  0.18654211  1
  O2-  O472  1  0.90701809  0.33135845  0.51012590  1
  O2-  O473  1  0.90597466  0.33970252  0.85903845  1
  O2-  O474  1  0.92149915  0.58342146  0.18633969  1
  O2-  O475  1  0.90447051  0.56289690  0.52052571  1
  O2-  O476  1  0.91382860  0.59288562  0.85662203  1
  O2-  O477  1  0.91677395  0.82964191  0.18085053  1
  O2-  O478  1  0.96153471  0.85327799  0.54664822  1
  O2-  O479  1  0.93142150  0.83597801  0.83625012  1
  O2-  O480  1  0.16904815  0.08249169  0.30608361  1
  O2-  O481  1  0.17282486  0.07590748  0.64701069  1
  O2-  O482  1  0.16779403  0.09107439  0.97494760  1
  O2-  O483  1  0.17343669  0.34220469  0.30919300  1
  O2-  O484  1  0.16906668  0.34655791  0.64273971  1
  O2-  O485  1  0.16561375  0.33899462  0.98967575  1
  O2-  O486  1  0.17351309  0.58337393  0.30898158  1
  O2-  O487  1  0.16561574  0.59043574  0.63440730  1
  O2-  O488  1  0.16380190  0.58241137  0.95939180  1
  O2-  O489  1  0.16844114  0.83679514  0.30972692  1
  O2-  O490  1  0.17633851  0.81997699  0.64287351  1
  O2-  O491  1  0.16980940  0.82934765  0.97950279  1
  O2-  O492  1  0.42916967  0.10489069  0.30756385  1
  O2-  O493  1  0.42445965  0.09680693  0.64191780  1
  O2-  O494  1  0.41592309  0.05047231  1.00006006  1
  O2-  O495  1  0.42340322  0.34178853  0.31041800  1
  O2-  O496  1  0.41496119  0.33050151  0.63946890  1
  O2-  O497  1  0.40896689  0.32957172  0.97835239  1
  O2-  O498  1  0.42310327  0.59564370  0.31423572  1
  O2-  O499  1  0.43308194  0.56182795  0.63551565  1
  O2-  O500  1  0.40373966  0.58528540  1.03554083  1
  O2-  O501  1  0.41974172  0.84549768  0.29154111  1
  O2-  O502  1  0.42436921  0.82888684  0.62724703  1
  O2-  O503  1  0.44896205  0.86066714  0.99422835  1
  O2-  O504  1  0.67432887  0.06875043  0.29741706  1
  O2-  O505  1  0.67129334  0.08663351  0.64011067  1
  O2-  O506  1  0.66619132  0.08529241  0.99600188  1
  O2-  O507  1  0.67369023  0.34990831  0.30670165  1
  O2-  O508  1  0.66956119  0.33393550  0.64264560  1
  O2-  O509  1  0.66669608  0.32048314  0.98057211  1
  O2-  O510  1  0.66419069  0.58906222  0.31176612  1
  O2-  O511  1  0.64812714  0.57197025  0.67764645  1
  O2-  O512  1  0.64544462  0.56377625  0.97608825  1
  O2-  O513  1  0.69234913  0.83400496  0.30101561  1
  O2-  O514  1  0.66922860  0.84390107  0.63305866  1
  O2-  O515  1  0.65237399  0.82864865  0.98601492  1
  O2-  O516  1  0.93063546  0.09346776  0.30972678  1
  O2-  O517  1  0.91233025  0.08047152  0.64813200  1
  O2-  O518  1  0.91661683  0.08871164  0.98363868  1
  O2-  O519  1  0.91548679  0.33990967  0.31273738  1
  O2-  O520  1  0.92990402  0.35513167  0.62532777  1
  O2-  O521  1  0.94774268  0.32981166  0.97462024  1
  O2-  O522  1  0.94490531  0.59616940  0.31751005  1
  O2-  O523  1  0.92444314  0.58700453  0.64784803  1
  O2-  O524  1  0.91696342  0.57269800  0.97778697  1
  O2-  O525  1  0.91438195  0.82556789  0.31230194  1
  O2-  O526  1  0.87972615  0.81008927  0.65845140  1
  O2-  O527  1  0.98232133  0.91155588  0.95309043  1
  O2-  O528  1  0.08476651  0.17190982  0.01906043  1
  O2-  O529  1  0.09378824  0.17269285  0.34709644  1
  O2-  O530  1  0.07231406  0.17136016  0.67234350  1
  O2-  O531  1  0.08859909  0.43565831  0.02279927  1
  O2-  O532  1  0.08763847  0.41943398  0.35320625  1
  O2-  O533  1  0.09096035  0.43074711  0.68050371  1
  O2-  O534  1  0.09216856  0.66837529  0.00948889  1
  O2-  O535  1  0.10613471  0.67450567  0.36275312  1
  O2-  O536  1  0.08947647  0.66515587  0.69639519  1
  O2-  O537  1  0.10893435  0.91804432  0.01730745  1
  O2-  O538  1  0.08176917  0.91204773  0.34765872  1
  O2-  O539  1  0.12127623  0.92136082  0.69542667  1
  O2-  O540  1  0.31941254  0.16193458  0.01935241  1
  O2-  O541  1  0.33300638  0.17949298  0.34957018  1
  O2-  O542  1  0.34435142  0.17241942  0.68520319  1
  O2-  O543  1  0.32917792  0.41062850  0.02386774  1
  O2-  O544  1  0.33925524  0.42752880  0.34720036  1
  O2-  O545  1  0.33012298  0.41104442  0.68616240  1
  O2-  O546  1  0.32258796  0.68099424  0.00359485  1
  O2-  O547  1  0.33607634  0.67790375  0.35223154  1
  O2-  O548  1  0.31587391  0.65045056  0.68803670  1
  O2-  O549  1  0.37321500  0.95795291  0.01087738  1
  O2-  O550  1  0.30244002  0.93794739  0.38989773  1
  O2-  O551  1  0.34677674  0.91517191  0.67128846  1
  O2-  O552  1  0.58411159  0.16286840  0.02786344  1
  O2-  O553  1  0.58193120  0.18720183  0.35566107  1
  O2-  O554  1  0.59242359  0.17100539  0.68168353  1
  O2-  O555  1  0.57305463  0.40238343  0.01729434  1
  O2-  O556  1  0.58620649  0.42995352  0.35347399  1
  O2-  O557  1  0.57914637  0.40732704  0.67707919  1
  O2-  O558  1  0.57693900  0.66181580  0.02652156  1
  O2-  O559  1  0.58415757  0.67268150  0.36128326  1
  O2-  O560  1  0.58747917  0.69194265  0.68276216  1
  O2-  O561  1  0.59121226  0.90671249  0.06107164  1
  O2-  O562  1  0.56886121  0.91293216  0.34597993  1
  O2-  O563  1  0.58288956  0.91829545  0.68206571  1
  O2-  O564  1  0.83636588  0.16880054  0.02957407  1
  O2-  O565  1  0.84196929  0.17427000  0.34708738  1
  O2-  O566  1  0.82510655  0.14172212  0.68823405  1
  O2-  O567  1  0.83610201  0.41120481  0.02411321  1
  O2-  O568  1  0.83456085  0.42504761  0.35217618  1
  O2-  O569  1  0.83574854  0.42120344  0.68092594  1
  O2-  O570  1  0.79979783  0.61342486  0.03130080  1
  O2-  O571  1  0.81926611  0.66867578  0.34063875  1
  O2-  O572  1  0.81480493  0.64695806  0.70017487  1
  O2-  O573  1  0.81499939  0.93145196  0.03675803  1
  O2-  O574  1  0.84523389  0.92250295  0.34139923  1
  O2-  O575  1  0.82049218  0.92197183  0.69172209  1
