# generated using pymatgen
data_H2O
_symmetry_space_group_name_H-M   'P 1'
_cell_length_a   17.99363004
_cell_length_b   17.98905774
_cell_length_c   22.00515992
_cell_angle_alpha   90.00233865
_cell_angle_beta   90.00698034
_cell_angle_gamma   119.99170301
_symmetry_Int_Tables_number   1
_chemical_formula_structural   H2O
_chemical_formula_sum   'H384 O192'
_cell_volume   6169.05526277
_cell_formula_units_Z   192
loop_
 _symmetry_equiv_pos_site_id
 _symmetry_equiv_pos_as_xyz
  1  'x, y, z'
loop_
 _atom_type_symbol
 _atom_type_oxidation_number
  H+  1.0
  O2-  -2.0
loop_
 _atom_site_type_symbol
 _atom_site_label
 _atom_site_symmetry_multiplicity
 _atom_site_fract_x
 _atom_site_fract_y
 _atom_site_fract_z
 _atom_site_occupancy
  H+  H0  1  0.95934213  0.52917326  0.20150518  1
  H+  H1  1  0.09179017  0.88586423  1.01681788  1
  H+  H2  1  0.88343642  0.77098055  0.99715926  1
  H+  H3  1  0.36751472  0.14212950  0.16434115  1
  H+  H4  1  0.73430920  0.11918188  -0.01228882  1
  H+  H5  1  0.17364838  0.89404790  0.86157839  1
  H+  H6  1  0.13223230  0.86820889  0.50580265  1
  H+  H7  1  0.84564925  0.71904449  0.33392294  1
  H+  H8  1  0.33309131  0.85237411  0.16933403  1
  H+  H9  1  0.62944620  0.90226313  0.82212390  1
  H+  H10  1  0.37872104  0.03276224  0.17500386  1
  H+  H11  1  0.10157148  0.65465434  0.01622118  1
  H+  H12  1  0.89398438  0.01477825  0.83877620  1
  H+  H13  1  0.12246227  0.37973690  0.34219098  1
  H+  H14  1  0.89126762  0.53039301  0.66578888  1
  H+  H15  1  0.13582868  0.11669826  0.50655956  1
  H+  H16  1  0.47852894  0.36285373  0.32961676  1
  H+  H17  1  0.72638518  0.36740029  0.84115651  1
  H+  H18  1  0.10074807  0.98299467  0.00505352  1
  H+  H19  1  0.63271291  0.59837692  0.52382048  1
  H+  H20  1  0.05493103  1.01689396  0.28123851  1
  H+  H21  1  0.07900542  0.16234079  0.42971669  1
  H+  H22  1  0.69310037  0.12031887  0.28653401  1
  H+  H23  1  0.97328946  0.09986632  0.50373293  1
  H+  H24  1  0.87162770  0.74111910  0.83163067  1
  H+  H25  1  0.89682484  0.04063807  0.32113285  1
  H+  H26  1  0.38127967  0.60708412  0.51379908  1
  H+  H27  1  0.04041498  0.14600276  0.16657970  1
  H+  H28  1  0.61641716  0.22894790  0.82373876  1
  H+  H29  1  1.00763447  0.60870461  0.83041412  1
  H+  H30  1  0.14702680  0.36579282  0.17293002  1
  H+  H31  1  0.38424311  0.27841457  0.64339719  1
  H+  H32  1  0.35773056  0.77678041  -0.00687259  1
  H+  H33  1  0.38378285  0.10457772  0.82504612  1
  H+  H34  1  0.39646113  0.77747622  0.83457636  1
  H+  H35  1  0.65607261  0.78931312  0.82463720  1
  H+  H36  1  1.03702775  0.39190711  0.16021151  1
  H+  H37  1  0.90093592  0.51246378  0.50756135  1
  H+  H38  1  0.85611287  0.93100997  0.74445246  1
  H+  H39  1  0.90730596  0.78950647  0.67514830  1
  H+  H40  1  0.65322040  0.25467823  0.99030209  1
  H+  H41  1  0.89356986  0.36239157  0.64560779  1
  H+  H42  1  0.45983734  0.60582866  0.66675081  1
  H+  H43  1  0.53820471  0.89743099  0.82089024  1
  H+  H44  1  0.36757105  0.63492237  0.34336102  1
  H+  H45  1  0.81988137  0.41176297  0.07005670  1
  H+  H46  1  0.95644750  0.65506805  0.30552379  1
  H+  H47  1  0.38446414  0.36805576  0.49923884  1
  H+  H48  1  0.11999019  0.22645042  0.33808852  1
  H+  H49  1  0.16769326  0.08485730  0.22969559  1
  H+  H50  1  0.63743470  0.11511776  0.99184892  1
  H+  H51  1  0.28777272  0.39914719  0.17131083  1
  H+  H52  1  0.86979145  0.48573303  0.33732813  1
  H+  H53  1  0.15278244  0.31305108  0.93184399  1
  H+  H54  1  0.63432657  1.01823377  0.64106819  1
  H+  H55  1  0.66293915  0.32707615  0.23257538  1
  H+  H56  1  0.30307230  0.30216873  0.97384101  1
  H+  H57  1  0.35584309  0.98914119  -0.01762195  1
  H+  H58  1  0.47549011  0.36847570  0.49995021  1
  H+  H59  1  0.62758502  0.71959874  0.00131002  1
  H+  H60  1  0.10739662  0.09744508  0.32251833  1
  H+  H61  1  0.65195649  0.98424192  0.13610955  1
  H+  H62  1  0.64873657  0.87917003  0.29574311  1
  H+  H63  1  0.37206087  0.22363403  0.34099805  1
  H+  H64  1  0.13696088  0.02809479  0.50935690  1
  H+  H65  1  0.98125458  0.61668791  0.66209157  1
  H+  H66  1  0.08508605  0.91226586  0.75723482  1
  H+  H67  1  0.98253851  0.11656815  0.65586889  1
  H+  H68  1  0.68128041  0.80805146  0.60422410  1
  H+  H69  1  0.34178607  0.16385970  0.39912207  1
  H+  H70  1  0.09692414  0.34913013  1.00131895  1
  H+  H71  1  1.02615348  0.88746789  0.69098972  1
  H+  H72  1  0.03165533  0.62699770  0.34825991  1
  H+  H73  1  0.73528432  0.19717936  0.20896285  1
  H+  H74  1  0.38141913  0.48699712  0.17825731  1
  H+  H75  1  0.79575975  0.89000543  0.68345685  1
  H+  H76  1  0.61662013  0.39131364  0.33921086  1
  H+  H77  1  0.63294031  0.99708840  0.32170354  1
  H+  H78  1  0.20586981  0.87390056  0.17109222  1
  H+  H79  1  0.86012190  0.13268438  0.99567939  1
  H+  H80  1  0.88080137  0.15153289  0.67209830  1
  H+  H81  1  0.87217905  0.22527355  0.34101865  1
  H+  H82  1  0.48329850  0.88345893  0.12623218  1
  H+  H83  1  0.11454490  0.47420585  0.83164062  1
  H+  H84  1  0.43224477  0.92057441  -0.03056596  1
  H+  H85  1  0.87803214  0.85447603  1.01307872  1
  H+  H86  1  0.15573412  0.34669607  0.59571789  1
  H+  H87  1  0.22840996  0.86117732  0.32819922  1
  H+  H88  1  0.12614449  0.35627615  0.83756816  1
  H+  H89  1  0.60945713  -0.09322206  1.04816180  1
  H+  H90  1  0.90388589  0.26499842  0.49636462  1
  H+  H91  1  0.47748057  0.10229769  0.64786153  1
  H+  H92  1  0.86966693  0.13107865  0.48624240  1
  H+  H93  1  0.88939282  0.86411487  0.34027906  1
  H+  H94  1  0.93669901  0.32808051  0.55445797  1
  H+  H95  1  0.61520109  0.72404323  0.51236608  1
  H+  H96  1  0.13647484  0.77699787  0.50371604  1
  H+  H97  1  0.15535922  0.13336235  0.66041202  1
  H+  H98  1  0.62649867  0.63462901  0.83191898  1
  H+  H99  1  0.81058110  0.87268800  0.11946613  1
  H+  H100  1  0.19186418  0.59070829  0.18755115  1
  H+  H101  1  0.63713189  0.36651863  0.84793605  1
  H+  H102  1  0.77940036  0.64056126  0.00785116  1
  H+  H103  1  0.14811710  0.12359812  0.17046637  1
  H+  H104  1  0.09347416  0.39158030  0.40658857  1
  H+  H105  1  0.63392857  0.84065922  0.98203071  1
  H+  H106  1  0.11040276  0.87761065  0.34710373  1
  H+  H107  1  0.60775271  0.58701933  0.67112001  1
  H+  H108  1  0.75646975  0.36370272  0.67277448  1
  H+  H109  1  0.63456265  0.36205855  0.65052760  1
  H+  H110  1  0.33755229  0.65848780  0.44283943  1
  H+  H111  1  0.60924457  0.70894318  0.67673466  1
  H+  H112  1  0.22166396  0.61713084  0.66554358  1
  H+  H113  1  0.64469349  0.46288494  0.00644725  1
  H+  H114  1  0.54260648  0.90698947  0.32455174  1
  H+  H115  1  0.61232526  0.47291546  0.49865812  1
  H+  H116  1  0.02660079  0.89173046  0.50714153  1
  H+  H117  1  0.39582570  0.12525647  0.98697168  1
  H+  H118  1  0.09809805  0.73292194  0.16448694  1
  H+  H119  1  0.86020057  0.96586811  0.50159519  1
  H+  H120  1  0.75240491  0.35468930  -0.00630993  1
  H+  H121  1  0.38661137  0.27296576  0.17406407  1
  H+  H122  1  0.87850451  0.52659634  0.84479996  1
  H+  H123  1  0.36610259  0.88760583  0.34339828  1
  H+  H124  1  0.02393469  0.14462628  0.33754816  1
  H+  H125  1  0.20552551  0.10112981  0.84563221  1
  H+  H126  1  0.28617227  0.90972362  -0.05423128  1
  H+  H127  1  0.39173728  0.10475320  0.64090823  1
  H+  H128  1  0.15046117  0.62319312  0.50895064  1
  H+  H129  1  0.36808674  0.38865362  0.34056588  1
  H+  H130  1  0.15391977  0.28060158  0.17418507  1
  H+  H131  1  0.60961355  0.21901741  0.15953431  1
  H+  H132  1  0.44429015  0.50396997  0.04523394  1
  H+  H133  1  0.62739218  0.60334049  0.16975281  1
  H+  H134  1  0.80459455  0.14454105  0.15020184  1
  H+  H135  1  0.03526170  0.63870411  0.50020543  1
  H+  H136  1  0.46385200  0.59391901  0.82126799  1
  H+  H137  1  0.53220130  0.40372712  0.84085781  1
  H+  H138  1  0.52773214  0.13658828  0.00316580  1
  H+  H139  1  0.63039532  0.10352841  0.63704244  1
  H+  H140  1  0.49903088  0.36407354  0.67286050  1
  H+  H141  1  0.35100511  0.47169024  0.67578649  1
  H+  H142  1  0.85278383  0.47041547  0.15961047  1
  H+  H143  1  0.22577488  0.10589899  0.99934777  1
  H+  H144  1  0.10116460  -0.02002322  0.16859740  1
  H+  H145  1  0.85044046  0.47271813  0.00871105  1
  H+  H146  1  0.36191229  0.22875369  0.49380060  1
  H+  H147  1  0.12188832  0.88132715  0.69467989  1
  H+  H148  1  0.10350106  -0.02462227  0.84088086  1
  H+  H149  1  0.65950939  0.77870655  0.15821246  1
  H+  H150  1  0.87304956  0.65145634  0.83357770  1
  H+  H151  1  0.39503734  0.02415194  0.82662885  1
  H+  H152  1  0.11247563  0.23444479  0.67006369  1
  H+  H153  1  0.12239189  0.61992557  0.19013130  1
  H+  H154  1  0.52414755  0.37883658  0.15950034  1
  H+  H155  1  0.38588262  0.86470405  0.67496909  1
  H+  H156  1  0.39349281  0.52825845  0.32535057  1
  H+  H157  1  0.61015877  0.40298809  0.06215432  1
  H+  H158  1  0.89885976  0.28736870  0.16790162  1
  H+  H159  1  0.35702688  0.47589290  0.49514695  1
  H+  H160  1  0.59020122  0.06782871  0.17617242  1
  H+  H161  1  0.87687768  0.02188750  0.99790858  1
  H+  H162  1  0.62448578  0.14819350  0.34916149  1
  H+  H163  1  0.51759275  0.13549310  0.15814190  1
  H+  H164  1  0.39262272  0.77382392  0.34969108  1
  H+  H165  1  0.62116552  0.61303608  0.32329232  1
  H+  H166  1  0.02366194  0.39457860  0.67246915  1
  H+  H167  1  0.45296973  0.84836422  0.10505889  1
  H+  H168  1  0.53043761  0.86729399  0.50110946  1
  H+  H169  1  0.12132275  0.62983264  0.34972318  1
  H+  H170  1  0.10735241  0.77274437  0.01805772  1
  H+  H171  1  0.67983041  0.91293689  0.13595915  1
  H+  H172  1  0.64144191  0.27763558  0.32922583  1
  H+  H173  1  0.01755635  0.12871499  0.82748563  1
  H+  H174  1  0.37944868  0.37674176  1.00845364  1
  H+  H175  1  0.23436165  0.36285952  0.32713142  1
  H+  H176  1  0.95439130  0.86255569  0.18028257  1
  H+  H177  1  0.64086635  0.02695578  0.84083092  1
  H+  H178  1  0.01597190  0.12426302  0.01046096  1
  H+  H179  1  0.28257162  0.14601339  0.65449871  1
  H+  H180  1  0.21642207  0.36604919  0.65470618  1
  H+  H181  1  0.47067812  0.69466234  0.94610384  1
  H+  H182  1  0.27445818  0.63935622  0.83622324  1
  H+  H183  1  0.86085993  0.39100627  0.83112840  1
  H+  H184  1  0.12753875  0.25381404  -0.00820267  1
  H+  H185  1  0.38021240  0.77426342  0.66902918  1
  H+  H186  1  0.89727481  0.86678661  0.52297970  1
  H+  H187  1  0.51364788  0.14109645  0.48773859  1
  H+  H188  1  0.57447308  0.67241932  0.86386602  1
  H+  H189  1  0.47672139  0.80117984  0.19065297  1
  H+  H190  1  0.35862490  0.63272862  0.82582477  1
  H+  H191  1  0.12259679  0.11327709  0.84594059  1
  H+  H192  1  0.64227804  0.78719278  0.30346727  1
  H+  H193  1  0.60823200  0.47673373  0.33943107  1
  H+  H194  1  0.58101515  0.17638415  0.40095723  1
  H+  H195  1  0.61481281  0.50329549  0.67666703  1
  H+  H196  1  0.21430692  0.35453595  0.83687914  1
  H+  H197  1  0.61128586  0.46842207  0.15908217  1
  H+  H198  1  0.14182554  0.51755361  0.34214817  1
  H+  H199  1  0.28105153  0.16696697  0.77196786  1
  H+  H200  1  0.17519319  0.33406609  0.26729704  1
  H+  H201  1  0.75705290  0.13018554  0.34166705  1
  H+  H202  1  0.04580533  0.33581855  0.50006053  1
  H+  H203  1  0.36591106  0.61099795  0.00868838  1
  H+  H204  1  0.64638303  0.37243505  0.50122925  1
  H+  H205  1  0.68245891  0.31916228  0.92837401  1
  H+  H206  1  0.33705948  0.67777237  0.17422171  1
  H+  H207  1  0.74360090  0.16017579  0.21240453  1
  H+  H208  1  0.08990405  0.88730146  0.17598949  1
  H+  H209  1  0.27593560  0.13851867  0.16111248  1
  H+  H210  1  0.01952586  0.88347734  0.83906574  1
  H+  H211  1  -0.03094072  0.34850133  -0.00690929  1
  H+  H212  1  0.35261656  0.63363628  0.67699830  1
  H+  H213  1  0.37972716  0.10908422  0.50416097  1
  H+  H214  1  0.72264235  0.84896626  0.51632396  1
  H+  H215  1  0.08987031  0.22269041  0.48443191  1
  H+  H216  1  0.72950659  0.76472116  0.63393877  1
  H+  H217  1  0.91751457  0.13126282  0.16867349  1
  H+  H218  1  0.37297234  0.50837406  0.83090997  1
  H+  H219  1  0.87528563  0.39938382  0.33536089  1
  H+  H220  1  0.27829707  0.63366206  0.34929087  1
  H+  H221  1  0.88473723  0.35946993  -0.00310162  1
  H+  H222  1  0.51266498  0.64502249  0.32605569  1
  H+  H223  1  0.89451179  0.02872140  0.66246771  1
  H+  H224  1  0.92202807  0.64836587  0.46889014  1
  H+  H225  1  0.63035329  0.35511243  0.17308372  1
  H+  H226  1  0.39448466  0.76699566  0.51515163  1
  H+  H227  1  0.79856706  0.90140674  0.82340049  1
  H+  H228  1  0.08012949  0.91473977  0.44362097  1
  H+  H229  1  0.86819681  0.22952322  0.83080700  1
  H+  H230  1  0.35616715  0.38283177  0.82759920  1
  H+  H231  1  0.98559621  0.36831581  0.32892106  1
  H+  H232  1  0.53677343  0.63873381  -0.00300234  1
  H+  H233  1  0.77113070  0.94731322  0.07216136  1
  H+  H234  1  0.89346010  0.82005235  0.23574661  1
  H+  H235  1  0.74297689  0.62617996  0.83925859  1
  H+  H236  1  0.35329001  0.38428037  0.66913256  1
  H+  H237  1  0.57976716  0.66440465  0.10120774  1
  H+  H238  1  0.87597987  0.65533111  0.67513406  1
  H+  H239  1  0.40607914  0.29244826  0.85792121  1
  H+  H240  1  0.11459347  0.64200454  0.67294140  1
  H+  H241  1  0.89055748  0.12936613  0.32799634  1
  H+  H242  1  0.13873714  0.56349387  1.02927484  1
  H+  H243  1  0.63066507  0.84966848  0.51488220  1
  H+  H244  1  0.88458232  0.64439533  0.15282506  1
  H+  H245  1  0.91150882  0.84135012  0.89874514  1
  H+  H246  1  0.91033612  0.88252332  0.67811268  1
  H+  H247  1  0.10478778  0.22016175  0.82641426  1
  H+  H248  1  0.10205640  0.96210024  0.34389853  1
  H+  H249  1  0.34786864  0.97937119  0.48875094  1
  H+  H250  1  0.32245476  0.40456985  0.76501456  1
  H+  H251  1  0.22532719  0.57327122  0.00645649  1
  H+  H252  1  0.23652824  0.87814013  0.49348381  1
  H+  H253  1  0.01141457  0.63521079  0.16516896  1
  H+  H254  1  0.36969864  0.79111546  1.02586015  1
  H+  H255  1  0.52366114  0.64242838  0.16346937  1
  H+  H256  1  -0.02641437  0.36845593  0.84049958  1
  H+  H257  1  0.39479947  0.11514301  0.32929909  1
  H+  H258  1  0.99826520  0.88757647  1.00473866  1
  H+  H259  1  0.27215418  0.14052176  0.49489648  1
  H+  H260  1  0.65394816  0.53390152  0.83905242  1
  H+  H261  1  0.96057851  0.60516933  1.00065337  1
  H+  H262  1  0.48431530  0.11459863  0.32664337  1
  H+  H263  1  0.19763229  0.86302271  1.01105946  1
  H+  H264  1  0.35806096  0.88754193  0.19198004  1
  H+  H265  1  0.27500279  0.63121426  0.50152710  1
  H+  H266  1  0.14152081  0.76992655  0.32992103  1
  H+  H267  1  0.83807936  0.62771011  0.32371504  1
  H+  H268  1  0.54739759  0.89588943  -0.00884470  1
  H+  H269  1  0.35550656  0.22421963  0.01053017  1
  H+  H270  1  0.03078321  0.55203124  0.78978041  1
  H+  H271  1  0.78145318  0.14058592  0.82763208  1
  H+  H272  1  -0.02794238  0.85415188  0.33834355  1
  H+  H273  1  0.47038614  0.60600487  0.51962092  1
  H+  H274  1  0.36735884  0.97770857  0.33699964  1
  H+  H275  1  0.10534843  0.12385201  0.01156723  1
  H+  H276  1  0.38148582  0.59419399  0.18102439  1
  H+  H277  1  0.52911172  0.13969815  0.81917925  1
  H+  H278  1  0.73065813  0.36718944  0.32601650  1
  H+  H279  1  0.87730562  0.37811687  0.48528039  1
  H+  H280  1  0.52628259  0.88884603  0.67146597  1
  H+  H281  1  0.73374992  0.36559665  0.50122028  1
  H+  H282  1  0.13214507  0.52842242  0.66470041  1
  H+  H283  1  0.70881499  0.61071960  0.32361672  1
  H+  H284  1  0.13949475  0.78037537  0.67804457  1
  H+  H285  1  0.22619340  0.86792600  0.69275450  1
  H+  H286  1  0.76057395  0.37999725  0.15916281  1
  H+  H287  1  0.89212684  0.88064435  0.83561339  1
  H+  H288  1  0.84957156  0.68309161  0.73647330  1
  H+  H289  1  0.58559538  0.41860197  0.43485973  1
  H+  H290  1  0.85315929  0.67702194  0.06290063  1
  H+  H291  1  0.41893981  0.33164660  0.27042523  1
  H+  H292  1  0.41357158  0.07126912  0.55779238  1
  H+  H293  1  0.33744174  0.16391832  0.06811964  1
  H+  H294  1  0.90443812  0.28041379  0.65536697  1
  H+  H295  1  0.91296989  0.33721385  0.89978492  1
  H+  H296  1  0.93895798  0.85308379  0.58320298  1
  H+  H297  1  0.30413210  0.94181862  0.07772995  1
  H+  H298  1  0.82484399  0.41286498  0.77166931  1
  H+  H299  1  0.35877901  0.16892472  0.70325923  1
  H+  H300  1  0.92241040  0.57400084  0.56618255  1
  H+  H301  1  0.66572819  0.06477807  0.54335421  1
  H+  H302  1  0.67235964  0.34082349  0.58986729  1
  H+  H303  1  0.84760163  0.16576632  0.42411817  1
  H+  H304  1  0.87570820  0.60979395  0.99455091  1
  H+  H305  1  0.31753098  0.91795711  0.42807195  1
  H+  H306  1  0.87847929  0.67275879  0.41753320  1
  H+  H307  1  0.09276768  0.17020642  0.10417302  1
  H+  H308  1  0.85111308  0.17496099  0.08748684  1
  H+  H309  1  0.42898147  0.60389218  0.91426425  1
  H+  H310  1  0.91641559  0.07599913  0.56460256  1
  H+  H311  1  0.57652809  0.41356274  0.77679018  1
  H+  H312  1  0.76582336  0.89766148  0.33596541  1
  H+  H313  1  0.24919017  0.07027064  0.75952118  1
  H+  H314  1  0.08050780  0.42019405  0.76889308  1
  H+  H315  1  0.34561252  0.68248285  0.02653184  1
  H+  H316  1  0.16371672  0.08262016  0.94000673  1
  H+  H317  1  0.64465389  0.60368116  0.99542913  1
  H+  H318  1  0.30614430  0.62001475  0.11447976  1
  H+  H319  1  0.06553917  0.66976309  0.08059744  1
  H+  H320  1  0.39976855  0.86550583  0.82005867  1
  H+  H321  1  0.93728956  0.10405879  0.23293502  1
  H+  H322  1  0.26370211  0.39490020  0.49028252  1
  H+  H323  1  0.45122547  0.71085902  0.21881120  1
  H+  H324  1  0.10079346  0.43905442  0.00428568  1
  H+  H325  1  0.16269920  0.83615814  0.23683038  1
  H+  H326  1  0.32549458  0.66562528  0.73670387  1
  H+  H327  1  0.62234926  0.95258238  0.48929719  1
  H+  H328  1  0.26863035  0.99687548  0.10649201  1
  H+  H329  1  0.41788554  0.34736692  0.59030027  1
  H+  H330  1  0.61336637  0.22604572  0.66221218  1
  H+  H331  1  0.15949475  0.57752474  0.28304059  1
  H+  H332  1  0.57532150  0.70758968  0.37754696  1
  H+  H333  1  0.72688257  0.85247324  0.98857910  1
  H+  H334  1  0.16586782  0.57495892  0.91162904  1
  H+  H335  1  0.46345065  0.89294733  0.91222150  1
  H+  H336  1  0.79066557  0.31150791  0.70795227  1
  H+  H337  1  0.70499295  0.84630664  0.21080585  1
  H+  H338  1  0.52807725  0.30931613  0.71142841  1
  H+  H339  1  0.92903974  0.34511874  0.26794427  1
  H+  H340  1  0.88419202  0.36719939  0.17039563  1
  H+  H341  1  0.85703707  0.18329800  0.73287370  1
  H+  H342  1  0.64938713  0.57053475  0.22946210  1
  H+  H343  1  0.15960946  0.83965123  0.91883385  1
  H+  H344  1  0.42609837  0.09767940  0.92579721  1
  H+  H345  1  0.89111504  0.10603406  0.84330012  1
  H+  H346  1  0.66807383  0.08908005  0.92323974  1
  H+  H347  1  0.42299446  0.83208611  0.57023473  1
  H+  H348  1  0.09143100  0.67251922  0.44019638  1
  H+  H349  1  0.84577248  0.41485671  0.43110407  1
  H+  H350  1  0.33459656  0.41969096  0.39786338  1
  H+  H351  1  0.13365496  0.60146422  0.85145180  1
  H+  H352  1  0.59027004  0.65444059  0.45835579  1
  H+  H353  1  0.58849551  0.16835809  0.72231224  1
  H+  H354  1  0.79959459  0.97079567  0.38446981  1
  H+  H355  1  0.85933545  0.22333453  -0.00436375  1
  H+  H356  1  0.40191084  0.57523197  0.60657994  1
  H+  H357  1  0.73032518  0.09192051  0.48826245  1
  H+  H358  1  0.67975964  0.83652449  0.88858445  1
  H+  H359  1  0.58909671  -0.00001079  0.22511999  1
  H+  H360  1  0.91161879  0.58247361  0.90582504  1
  H+  H361  1  0.59488550  0.92896665  0.72339512  1
  H+  H362  1  0.17635465  0.09630448  0.60131591  1
  H+  H363  1  0.42229931  0.81564812  0.28726564  1
  H+  H364  1  0.39206773  0.36503648  0.17907454  1
  H+  H365  1  0.56955877  0.65939961  0.73865964  1
  H+  H366  1  0.42207766  0.58667746  0.26037242  1
  H+  H367  1  0.17232052  0.58881137  0.56817001  1
  H+  H368  1  0.63966632  0.11685763  0.83920439  1
  H+  H369  1  0.58239071  0.16049243  0.06622171  1
  H+  H370  1  0.41842845  0.08527078  0.23812823  1
  H+  H371  1  0.68139691  0.58419577  0.93561883  1
  H+  H372  1  0.41034202  0.34850779  0.91358151  1
  H+  H373  1  0.91702396  0.58009803  0.25194694  1
  H+  H374  1  0.07865177  0.66145025  0.73339137  1
  H+  H375  1  0.91362371  0.07320465  0.93392779  1
  H+  H376  1  0.82864441  0.90007015  0.44644327  1
  H+  H377  1  0.65391158  0.55723472  0.57863569  1
  H+  H378  1  0.36794104  0.44266581  0.08806027  1
  H+  H379  1  0.11147441  0.39458957  0.67455365  1
  H+  H380  1  0.07853388  0.39058055  0.09745308  1
  H+  H381  1  0.60322230  0.23109264  0.49137948  1
  H+  H382  1  0.88631523  0.73461248  0.15600583  1
  H+  H383  1  0.08579830  0.17271268  0.72919966  1
  O2-  O384  1  0.10138147  0.17522333  0.14901041  1
  O2-  O385  1  0.07646038  0.16338919  0.47533489  1
  O2-  O386  1  0.07875672  0.15955249  0.81145936  1
  O2-  O387  1  0.09196626  0.40584100  0.14090632  1
  O2-  O388  1  0.09371684  0.33014768  0.48079775  1
  O2-  O389  1  0.07834564  0.41557825  0.81467550  1
  O2-  O390  1  0.07237597  0.67339921  0.14762536  1
  O2-  O391  1  0.09548013  0.67656166  0.48534715  1
  O2-  O392  1  0.05702721  0.60927697  0.80771655  1
  O2-  O393  1  0.06015068  0.91811284  0.16265485  1
  O2-  O394  1  0.08720690  0.92144176  0.48850004  1
  O2-  O395  1  0.08284943  0.91545009  0.82717916  1
  O2-  O396  1  0.33594744  0.16763900  0.14346187  1
  O2-  O397  1  0.33291131  0.16767797  0.48054544  1
  O2-  O398  1  0.28786535  0.11883771  0.78530113  1
  O2-  O399  1  0.34995267  0.42740988  0.15960069  1
  O2-  O400  1  0.32500986  0.41704572  0.47673885  1
  O2-  O401  1  0.32175600  0.40730331  0.81097356  1
  O2-  O402  1  0.29513215  0.62037680  0.15826250  1
  O2-  O403  1  0.33746631  0.65765971  0.48814282  1
  O2-  O404  1  0.33238732  0.66879670  0.81697112  1
  O2-  O405  1  0.28877772  0.95719255  0.11681885  1
  O2-  O406  1  0.31072716  0.91804775  0.47323034  1
  O2-  O407  1  0.34792115  0.92175350  0.78624458  1
  O2-  O408  1  0.57717899  0.15943450  0.14208650  1
  O2-  O409  1  0.57259135  0.17493451  0.47088065  1
  O2-  O410  1  0.59065393  0.16965078  0.80711199  1
  O2-  O411  1  0.58477597  0.40665357  0.14532735  1
  O2-  O412  1  0.58242053  0.41273186  0.48013049  1
  O2-  O413  1  0.58890460  0.42505890  0.82077888  1
  O2-  O414  1  0.58410943  0.67269920  0.14571414  1
  O2-  O415  1  0.58105259  0.65927343  0.50132618  1
  O2-  O416  1  0.58853169  0.66120832  0.82314287  1
  O2-  O417  1  0.67858780  0.95812382  0.11022072  1
  O2-  O418  1  0.58960481  0.88754081  0.48448839  1
  O2-  O419  1  0.60004426  0.93472260  0.81043998  1
  O2-  O420  1  0.86088517  0.18182866  0.13238754  1
  O2-  O421  1  0.84590594  0.16674767  0.47095200  1
  O2-  O422  1  0.84262504  0.16952560  0.81564578  1
  O2-  O423  1  0.81993397  0.41066212  0.14090864  1
  O2-  O424  1  0.84491418  0.40830871  0.47624831  1
  O2-  O425  1  0.82936566  0.42102975  0.81658161  1
  O2-  O426  1  0.89033519  0.69215594  0.12831931  1
  O2-  O427  1  0.93395197  0.69142060  0.43712721  1
  O2-  O428  1  0.84179109  0.67948193  0.81683833  1
  O2-  O429  1  0.85071421  0.90222671  0.08478699  1
  O2-  O430  1  0.82934277  0.90252466  0.49108629  1
  O2-  O431  1  0.85956861  0.93060394  0.81186918  1
  O2-  O432  1  0.17710556  0.09057360  0.18505032  1
  O2-  O433  1  0.16819969  0.08956491  0.52292348  1
  O2-  O434  1  0.14998133  0.08111642  0.86579353  1
  O2-  O435  1  0.18162566  0.34051764  0.19043194  1
  O2-  O436  1  0.16765898  0.37394656  0.52165960  1
  O2-  O437  1  0.15395214  0.32310143  0.85162656  1
  O2-  O438  1  0.14075988  0.58266024  0.21020064  1
  O2-  O439  1  0.17835387  0.59075269  0.52343414  1
  O2-  O440  1  0.17113196  0.57933061  0.86689458  1
  O2-  O441  1  0.15163933  0.83508529  0.19205282  1
  O2-  O442  1  0.16793908  0.83991229  0.51582330  1
  O2-  O443  1  0.20175624  0.86963270  0.88647010  1
  O2-  O444  1  0.41714523  0.09006638  0.19193984  1
  O2-  O445  1  0.40797214  0.07432807  0.51212060  1
  O2-  O446  1  0.41956905  0.08351051  0.84315052  1
  O2-  O447  1  0.42037985  0.33153268  0.19174522  1
  O2-  O448  1  0.41524016  0.33923623  0.51623211  1
  O2-  O449  1  0.42569562  0.35194406  0.86888773  1
  O2-  O450  1  0.43109157  0.59270592  0.19815874  1
  O2-  O451  1  0.40875563  0.57376567  0.53126565  1
  O2-  O452  1  0.40784154  0.57159547  0.84158798  1
  O2-  O453  1  0.43550403  0.75672660  0.21761247  1
  O2-  O454  1  0.42964009  0.82849104  0.52605671  1
  O2-  O455  1  0.43095496  0.84070461  0.84121962  1
  O2-  O456  1  0.59273638  0.01471499  0.18172887  1
  O2-  O457  1  0.66962769  0.05361963  0.49927040  1
  O2-  O458  1  0.66924281  0.08796537  0.85832706  1
  O2-  O459  1  0.66055383  0.32317844  0.18716266  1
  O2-  O460  1  0.67509421  0.34132237  0.51852457  1
  O2-  O461  1  0.66651045  0.33344995  0.85793518  1
  O2-  O462  1  0.65163650  0.56790772  0.18453789  1
  O2-  O463  1  0.65838541  0.56243698  0.53355081  1
  O2-  O464  1  0.68134618  0.59390356  0.85449685  1
  O2-  O465  1  0.70520994  0.83968209  0.16594957  1
  O2-  O466  1  0.66335312  0.81771088  0.53319544  1
  O2-  O467  1  0.68045839  0.84616951  0.84367127  1
  O2-  O468  1  0.94486674  0.10159602  0.18805172  1
  O2-  O469  1  0.91305160  0.06823765  0.51928726  1
  O2-  O470  1  0.92182071  0.07717948  0.85925854  1
  O2-  O471  1  0.92113738  0.34484267  0.18645303  1
  O2-  O472  1  0.94302162  0.32678579  0.50965458  1
  O2-  O473  1  0.91229856  0.33926267  0.85424650  1
  O2-  O474  1  0.92720737  0.55861116  0.19282493  1
  O2-  O475  1  0.93177504  0.57313011  0.52191467  1
  O2-  O476  1  0.91483874  0.58646716  0.86010049  1
  O2-  O477  1  0.89346623  0.82040009  0.19104211  1
  O2-  O478  1  0.93733603  0.84837014  0.53827860  1
  O2-  O479  1  0.91857795  0.84200484  0.85434244  1
  O2-  O480  1  0.11103580  0.04949410  0.30057928  1
  O2-  O481  1  0.18802390  0.10542166  0.64595068  1
  O2-  O482  1  0.16456424  0.07723309  0.98553715  1
  O2-  O483  1  0.17309695  0.33021373  0.31292126  1
  O2-  O484  1  0.15543750  0.33883977  0.64150456  1
  O2-  O485  1  0.15717132  0.31434508  0.97687224  1
  O2-  O486  1  0.16957655  0.57846754  0.32830814  1
  O2-  O487  1  0.16104607  0.58931635  0.65024172  1
  O2-  O488  1  0.16414051  0.55243719  0.99374122  1
  O2-  O489  1  0.16688755  0.82994766  0.31462441  1
  O2-  O490  1  0.16937856  0.84409237  0.67324476  1
  O2-  O491  1  0.13493220  0.83480772  1.00513030  1
  O2-  O492  1  0.42342425  0.08293179  0.31165231  1
  O2-  O493  1  0.41832787  0.06980523  0.63118787  1
  O2-  O494  1  0.42660175  0.09585746  0.97093142  1
  O2-  O495  1  0.41727581  0.33256350  0.31587778  1
  O2-  O496  1  0.41370625  0.34204333  0.63633505  1
  O2-  O497  1  0.36404877  0.32403085  0.98162852  1
  O2-  O498  1  0.42005558  0.58839971  0.31023160  1
  O2-  O499  1  0.39901382  0.57492563  0.65254568  1
  O2-  O500  1  0.44767628  0.63373544  0.95482928  1
  O2-  O501  1  0.42149701  0.83192717  0.32993638  1
  O2-  O502  1  0.41256261  0.83497571  0.65506133  1
  O2-  O503  1  0.48439201  0.92806731  0.94976689  1
  O2-  O504  1  0.68928935  0.10384181  0.32908816  1
  O2-  O505  1  0.66034543  0.07513608  0.62031674  1
  O2-  O506  1  0.67169927  0.09045928  0.97193816  1
  O2-  O507  1  0.67001343  0.33754690  0.31182993  1
  O2-  O508  1  0.66892218  0.33672829  0.63633320  1
  O2-  O509  1  0.70232931  0.30203410  0.96647050  1
  O2-  O510  1  0.64641792  0.57742395  0.31134191  1
  O2-  O511  1  0.64077601  0.55906513  0.65678760  1
  O2-  O512  1  0.68087657  0.57990486  0.98066471  1
  O2-  O513  1  0.68154618  0.84772198  0.29068188  1
  O2-  O514  1  0.69741554  0.79325871  0.64504714  1
  O2-  O515  1  0.67287103  0.81798619  0.96583330  1
  O2-  O516  1  0.92786990  0.10165118  0.30962671  1
  O2-  O517  1  0.92151482  0.08638319  0.64229191  1
  O2-  O518  1  0.91176371  0.07960022  0.97976560  1
  O2-  O519  1  0.92635226  0.34517694  0.31313054  1
  O2-  O520  1  0.93140129  0.33963353  0.63487697  1
  O2-  O521  1  0.90857119  0.32638724  0.97697610  1
  O2-  O522  1  0.91348069  0.59478608  0.30010961  1
  O2-  O523  1  0.92023424  0.58684695  0.64683137  1
  O2-  O524  1  0.90239781  0.57386070  0.98200889  1
  O2-  O525  1  0.91243435  0.83046628  0.32186442  1
  O2-  O526  1  0.94297814  0.85327150  0.66385054  1
  O2-  O527  1  0.90866061  0.83481909  0.98636662  1
  O2-  O528  1  0.07628248  0.15532362  0.02574229  1
  O2-  O529  1  0.08453126  0.16575022  0.35297795  1
  O2-  O530  1  0.08940461  0.17388707  0.68406773  1
  O2-  O531  1  0.06452984  0.37858732  0.01702483  1
  O2-  O532  1  0.09292021  0.40729680  0.36362597  1
  O2-  O533  1  0.08198963  0.42449070  0.69239774  1
  O2-  O534  1  0.06164203  0.67089574  0.03289293  1
  O2-  O535  1  0.09170610  0.66372869  0.36022342  1
  O2-  O536  1  0.08251143  0.67121984  0.68891750  1
  O2-  O537  1  0.06195276  0.92198732  0.02116645  1
  O2-  O538  1  0.07764543  0.90464330  0.36332651  1
  O2-  O539  1  0.08838563  0.91303418  0.71048886  1
  O2-  O540  1  0.33502514  0.16364065  0.02211601  1
  O2-  O541  1  0.34647420  0.16285131  0.35422606  1
  O2-  O542  1  0.34912815  0.17530163  0.66043296  1
  O2-  O543  1  0.38591129  0.45585966  0.04373901  1
  O2-  O544  1  0.33780555  0.42052314  0.35244189  1
  O2-  O545  1  0.32108934  0.40964399  0.68896214  1
  O2-  O546  1  0.32455073  0.62095551  0.03252403  1
  O2-  O547  1  0.33906118  0.66418915  0.36364684  1
  O2-  O548  1  0.32386252  0.66584529  0.69149784  1
  O2-  O549  1  0.31618195  0.92554041  -0.01414809  1
  O2-  O550  1  0.33270260  0.91715888  0.35218712  1
  O2-  O551  1  0.33576741  0.91740414  0.72776699  1
  O2-  O552  1  0.58713846  0.16128900  0.02017895  1
  O2-  O553  1  0.58804238  0.17508864  0.35466853  1
  O2-  O554  1  0.58243605  0.16626449  0.67755379  1
  O2-  O555  1  0.62753051  0.40409440  0.01939304  1
  O2-  O556  1  0.58302486  0.41703752  0.35612003  1
  O2-  O557  1  0.54850258  0.36852277  0.69887642  1
  O2-  O558  1  0.59250743  0.65961863  0.01760202  1
  O2-  O559  1  0.57725967  0.68549861  0.33760543  1
  O2-  O560  1  0.56387567  0.65276520  0.69440954  1
  O2-  O561  1  0.57642560  0.86918795  0.01339935  1
  O2-  O562  1  0.59872046  0.93775116  0.30374947  1
  O2-  O563  1  0.58891731  0.91948593  0.67920394  1
  O2-  O564  1  0.82776430  0.16190333  0.01024488  1
  O2-  O565  1  0.84419020  0.16471649  0.35363429  1
  O2-  O566  1  0.86415021  0.19268668  0.68849260  1
  O2-  O567  1  0.82474789  0.41164373  0.02337515  1
  O2-  O568  1  0.84173185  0.42583932  0.35190692  1
  O2-  O569  1  0.80779425  0.37055166  0.69684697  1
  O2-  O570  1  0.84273906  0.67465122  0.01693676  1
  O2-  O571  1  0.80927402  0.65672762  0.34282563  1
  O2-  O572  1  0.85469280  0.69212965  0.69181716  1
  O2-  O573  1  0.80235409  0.92830648  0.04468761  1
  O2-  O574  1  0.81668835  0.93395989  0.36337536  1
  O2-  O575  1  0.85529819  0.92956139  0.69646616  1
