# generated using pymatgen
data_H2O
_symmetry_space_group_name_H-M   'P 1'
_cell_length_a   17.99581352
_cell_length_b   17.99350819
_cell_length_c   22.00284247
_cell_angle_alpha   89.99212938
_cell_angle_beta   89.96707475
_cell_angle_gamma   120.01228460
_symmetry_Int_Tables_number   1
_chemical_formula_structural   H2O
_chemical_formula_sum   'H384 O192'
_cell_volume   6169.39892315
_cell_formula_units_Z   192
loop_
 _symmetry_equiv_pos_site_id
 _symmetry_equiv_pos_as_xyz
  1  'x, y, z'
loop_
 _atom_type_symbol
 _atom_type_oxidation_number
  H+  1.0
  O2-  -2.0
loop_
 _atom_site_type_symbol
 _atom_site_label
 _atom_site_symmetry_multiplicity
 _atom_site_fract_x
 _atom_site_fract_y
 _atom_site_fract_z
 _atom_site_occupancy
  H+  H0  1  0.02046392  0.38853931  0.66110319  1
  H+  H1  1  0.21790538  0.45066250  0.55394043  1
  H+  H2  1  0.14315687  0.86192377  1.03384011  1
  H+  H3  1  0.45837734  0.86357960  0.47230456  1
  H+  H4  1  0.37849834  1.03152153  0.64343875  1
  H+  H5  1  0.73135092  0.86474203  -0.01021131  1
  H+  H6  1  -0.02254963  0.86181916  0.65148438  1
  H+  H7  1  0.28483192  0.89135201  0.79547504  1
  H+  H8  1  0.63902923  0.23593431  0.48704142  1
  H+  H9  1  0.10901388  0.61139399  0.65897026  1
  H+  H10  1  0.72467262  0.61920392  0.17713815  1
  H+  H11  1  0.85723605  0.23107710  0.64772428  1
  H+  H12  1  0.07312325  0.42519937  0.75928810  1
  H+  H13  1  0.32569948  0.15850634  0.42790273  1
  H+  H14  1  -0.02754549  0.36316504  0.32558157  1
  H+  H15  1  0.96646032  0.60997348  0.33691288  1
  H+  H16  1  0.64117321  0.86356761  0.99606431  1
  H+  H17  1  0.60238364  0.62049947  0.16906158  1
  H+  H18  1  0.11312092  0.75030600  0.49725454  1
  H+  H19  1  0.86923227  0.22368362  0.51030410  1
  H+  H20  1  0.13328960  0.22398884  0.49486956  1
  H+  H21  1  0.24001463  0.84803996  0.46080005  1
  H+  H22  1  0.58691851  0.15355669  0.05415955  1
  H+  H23  1  0.42130875  0.61469101  0.50199050  1
  H+  H24  1  0.63651965  1.02565734  0.66334591  1
  H+  H25  1  0.12847282  0.74629797  0.17019752  1
  H+  H26  1  0.46969460  0.87070050  0.69393336  1
  H+  H27  1  0.12934584  0.38726287  0.15896813  1
  H+  H28  1  0.86385363  0.73985645  0.17031189  1
  H+  H29  1  0.10499633  0.39555356  0.81829792  1
  H+  H30  1  0.09896811  0.25422108  0.32227871  1
  H+  H31  1  0.63627671  0.75930522  0.33881072  1
  H+  H32  1  0.54707200  0.89935081  0.15895149  1
  H+  H33  1  0.13145747  0.91566541  0.67055877  1
  H+  H34  1  0.10658959  0.96315091  0.33610340  1
  H+  H35  1  0.71054361  0.72066815  0.89686950  1
  H+  H36  1  0.20878883  0.87465606  0.23729403  1
  H+  H37  1  0.74173529  0.34994677  -0.02243860  1
  H+  H38  1  0.61227040  0.47719650  0.15963597  1
  H+  H39  1  0.85123382  0.62243091  0.34367189  1
  H+  H40  1  0.74437877  0.10881143  0.98930833  1
  H+  H41  1  0.12173349  0.15147093  0.70043095  1
  H+  H42  1  -0.00588863  0.11878963  0.51407838  1
  H+  H43  1  0.92103713  0.07267672  0.60167105  1
  H+  H44  1  0.86268313  0.46169117  0.65427230  1
  H+  H45  1  0.32307256  0.15362929  0.05979976  1
  H+  H46  1  0.61182994  0.47148034  0.49323796  1
  H+  H47  1  0.35037817  0.91387864  0.10440948  1
  H+  H48  1  0.38750875  0.61274401  0.16947056  1
  H+  H49  1  0.20302781  0.60833843  0.50397012  1
  H+  H50  1  0.63189915  0.26404148  0.65730980  1
  H+  H51  1  0.34606503  0.13767380  0.33902920  1
  H+  H52  1  -0.01011959  0.63662660  0.18203932  1
  H+  H53  1  0.77283851  0.66056103  0.85765454  1
  H+  H54  1  0.85939834  0.22575993  0.80687377  1
  H+  H55  1  0.62239387  0.73486782  0.01904780  1
  H+  H56  1  0.87996478  0.22793302  0.34053838  1
  H+  H57  1  0.64161589  -0.00955003  0.15836691  1
  H+  H58  1  0.19837782  0.34440013  0.82194968  1
  H+  H59  1  0.65966988  0.37172366  0.49944732  1
  H+  H60  1  0.68077830  0.34578736  0.21953890  1
  H+  H61  1  0.02977484  0.14423584  0.83166032  1
  H+  H62  1  0.47771338  0.12548760  0.31552714  1
  H+  H63  1  0.78370364  0.88698231  0.48999917  1
  H+  H64  1  0.40914701  0.32559259  0.59129719  1
  H+  H65  1  0.39959803  0.86847892  0.99375530  1
  H+  H66  1  0.87985723  0.41264150  0.15080662  1
  H+  H67  1  0.51676809  0.38648999  0.33512267  1
  H+  H68  1  0.72909058  0.35099073  0.82487400  1
  H+  H69  1  0.65120677  0.79853968  0.50636986  1
  H+  H70  1  0.25464082  0.87917589  0.64925857  1
  H+  H71  1  0.38122609  0.35992362  0.64946212  1
  H+  H72  1  0.35594496  0.40469205  0.08110391  1
  H+  H73  1  0.89014441  0.98366100  0.33875448  1
  H+  H74  1  0.40720621  0.77701460  0.32959579  1
  H+  H75  1  0.92268364  0.08219495  0.22955594  1
  H+  H76  1  0.65082108  0.61460105  0.52245762  1
  H+  H77  1  -0.02094053  0.61817613  0.50400424  1
  H+  H78  1  0.86772114  0.72098975  1.01234228  1
  H+  H79  1  0.85245308  0.71178665  0.34963429  1
  H+  H80  1  0.13127388  0.26684564  0.17719796  1
  H+  H81  1  0.59904249  0.47086153  0.00486641  1
  H+  H82  1  0.13702914  1.04099224  0.65870423  1
  H+  H83  1  0.12250527  0.08473738  1.00057040  1
  H+  H84  1  0.59406663  0.92801644  0.42672918  1
  H+  H85  1  0.66148091  0.88423929  0.32703381  1
  H+  H86  1  0.36429859  0.23379598  0.67156457  1
  H+  H87  1  -0.01320822  0.09924185  0.00108856  1
  H+  H88  1  0.25066630  1.12195034  0.34201956  1
  H+  H89  1  0.87281242  -0.02540217  0.99072355  1
  H+  H90  1  0.88803140  0.27262637  0.16642441  1
  H+  H91  1  0.42489723  0.57681957  0.56598262  1
  H+  H92  1  0.19124743  0.43309835  0.97137338  1
  H+  H93  1  0.28543058  0.88798418  1.02250754  1
  H+  H94  1  0.02657868  0.88569297  0.82003911  1
  H+  H95  1  0.12480169  0.52252020  0.84523573  1
  H+  H96  1  0.76383321  0.86184044  0.81728393  1
  H+  H97  1  0.97549153  0.58931580  0.65007296  1
  H+  H98  1  0.61136943  0.75633232  0.84902097  1
  H+  H99  1  0.36751731  0.73204965  0.01323942  1
  H+  H100  1  0.63178796  0.35301308  0.65538052  1
  H+  H101  1  0.88487991  0.85172196  0.65573650  1
  H+  H102  1  0.10451487  0.95891916  0.01312280  1
  H+  H103  1  0.14236312  0.62881071  0.18552980  1
  H+  H104  1  0.86783022  0.98249245  0.14947484  1
  H+  H105  1  0.12238457  0.27199867  0.96581821  1
  H+  H106  1  -0.00797776  0.87940319  0.17792851  1
  H+  H107  1  0.11405410  0.11846706  0.17020492  1
  H+  H108  1  0.34639542  0.63660546  0.84558196  1
  H+  H109  1  0.22753902  0.12654835  0.66035633  1
  H+  H110  1  0.63042771  0.14205601  0.29958741  1
  H+  H111  1  0.59902336  0.42299503  0.42943610  1
  H+  H112  1  0.35580428  0.62452895  0.33827071  1
  H+  H113  1  0.39815846  0.53674463  1.02850908  1
  H+  H114  1  0.84343201  0.12884350  0.79948453  1
  H+  H115  1  0.77792156  0.12819718  0.16103670  1
  H+  H116  1  0.08553546  0.11082446  0.86204527  1
  H+  H117  1  0.75940114  0.60164928  0.67079090  1
  H+  H118  1  0.83755888  0.67624104  1.07784481  1
  H+  H119  1  0.89096086  0.11431959  0.17175239  1
  H+  H120  1  0.85251734  0.00077773  0.81831282  1
  H+  H121  1  0.35934912  0.50362990  0.65735287  1
  H+  H122  1  0.17776622  0.82975653  0.85897597  1
  H+  H123  1  0.51612812  0.13110795  0.67204155  1
  H+  H124  1  0.21092452  0.61275607  0.84857235  1
  H+  H125  1  0.98317488  0.36000738  0.97831342  1
  H+  H126  1  0.58985677  0.15955684  0.21348824  1
  H+  H127  1  0.86493508  0.96745735  0.67049970  1
  H+  H128  1  0.86343829  0.61765879  0.49751930  1
  H+  H129  1  0.89117834  0.51928532  0.51065274  1
  H+  H130  1  0.60502574  0.47335424  0.33583504  1
  H+  H131  1  0.52361775  0.38885056  0.15680822  1
  H+  H132  1  0.54844178  0.15505168  0.49032801  1
  H+  H133  1  0.62860859  0.32710418  0.82357500  1
  H+  H134  1  0.42531635  0.57347701  0.87314606  1
  H+  H135  1  0.85956113  0.71771273  0.49994702  1
  H+  H136  1  0.62685983  0.12776845  0.99915868  1
  H+  H137  1  0.89085000  0.52612637  1.07364783  1
  H+  H138  1  0.86423550  0.36960182  -0.01636561  1
  H+  H139  1  0.21728066  0.10668563  0.84227776  1
  H+  H140  1  0.68802418  0.85161005  0.26617863  1
  H+  H141  1  0.38839737  0.26680810  0.17052711  1
  H+  H142  1  0.46635034  0.35506596  0.99282711  1
  H+  H143  1  0.10049646  0.72127484  0.80075755  1
  H+  H144  1  0.67745995  0.61233610  0.66889841  1
  H+  H145  1  0.51829170  0.12672513  0.82457049  1
  H+  H146  1  0.47531617  0.39671528  0.85542660  1
  H+  H147  1  0.10514276  0.47547497  0.34877670  1
  H+  H148  1  0.62346760  -0.02555818  1.00651545  1
  H+  H149  1  0.87703694  0.09154869  0.65719006  1
  H+  H150  1  0.64784544  0.51598108  0.80450295  1
  H+  H151  1  0.46862285  0.11304545  0.97788474  1
  H+  H152  1  0.12087667  0.73876805  0.65350185  1
  H+  H153  1  0.45551354  0.57426469  0.31579352  1
  H+  H154  1  0.11416676  0.97605498  0.82385298  1
  H+  H155  1  0.73599457  0.87162244  0.17333376  1
  H+  H156  1  0.39529755  0.86357389  0.73712090  1
  H+  H157  1  0.77383167  0.88230142  0.66774142  1
  H+  H158  1  0.11525926  0.63348680  0.01749840  1
  H+  H159  1  0.39010552  0.76618302  0.84708924  1
  H+  H160  1  0.64152259  0.78688269  0.64380928  1
  H+  H161  1  0.50248527  0.31784523  0.81087930  1
  H+  H162  1  0.64720563  0.12098274  0.50046320  1
  H+  H163  1  0.08969557  0.63251198  0.49495072  1
  H+  H164  1  0.34256669  0.44389224  0.81512209  1
  H+  H165  1  0.30850807  0.45294539  0.09701989  1
  H+  H166  1  0.93545282  0.90576229  0.21941122  1
  H+  H167  1  0.10175442  0.08409379  0.31679078  1
  H+  H168  1  0.40918994  0.15942997  0.50751440  1
  H+  H169  1  0.41938807  1.02708031  0.44832299  1
  H+  H170  1  0.35299768  0.73635522  0.47972068  1
  H+  H171  1  0.88909881  0.85904847  0.98956177  1
  H+  H172  1  0.33473688  0.65086240  0.51630798  1
  H+  H173  1  0.12308116  0.88734802  0.49360139  1
  H+  H174  1  0.33257130  0.67138860  0.10892782  1
  H+  H175  1  0.38091411  0.13000094  0.15462781  1
  H+  H176  1  0.44131190  0.59486682  0.66792628  1
  H+  H177  1  0.85414532  0.47157225  0.33208614  1
  H+  H178  1  0.27853996  0.64386703  0.17124338  1
  H+  H179  1  0.09468585  0.80617838  0.63090004  1
  H+  H180  1  0.25408022  0.37650790  0.66739566  1
  H+  H181  1  0.21339408  0.09137504  0.99451448  1
  H+  H182  1  0.12723953  0.13407303  0.49349856  1
  H+  H183  1  0.87748910  0.22072201  -0.00444986  1
  H+  H184  1  0.85582855  0.64240018  0.85862510  1
  H+  H185  1  0.38460514  0.02370895  0.82207029  1
  H+  H186  1  0.89082022  0.85546367  0.33312053  1
  H+  H187  1  0.87729996  0.38373233  0.52332544  1
  H+  H188  1  0.87326469  0.74723134  0.84499426  1
  H+  H189  1  0.37272031  0.47177363  0.48553392  1
  H+  H190  1  0.11226329  0.48077406  0.00321791  1
  H+  H191  1  0.34646973  0.88773177  0.65769732  1
  H+  H192  1  0.14805588  0.77604081  1.03877559  1
  H+  H193  1  0.86874801  0.83034043  0.50021572  1
  H+  H194  1  0.63020584  0.11259547  0.66068208  1
  H+  H195  1  0.22726466  0.61541541  1.00043239  1
  H+  H196  1  0.63303463  -0.01285553  0.33194888  1
  H+  H197  1  0.74602456  0.11518307  0.31839470  1
  H+  H198  1  0.64879470  0.37029713  0.16030951  1
  H+  H199  1  0.90553916  1.11859257  0.51343854  1
  H+  H200  1  0.49616361  0.61310450  0.16607337  1
  H+  H201  1  0.37352990  0.34884582  0.50188182  1
  H+  H202  1  0.12581669  0.36844848  0.66652616  1
  H+  H203  1  0.11120249  0.88564416  0.16618138  1
  H+  H204  1  0.27700999  0.12896548  0.49302984  1
  H+  H205  1  0.65098425  0.87584610  0.17619515  1
  H+  H206  1  0.34726825  0.63545383  0.68190745  1
  H+  H207  1  0.36219768  0.14397541  0.67458683  1
  H+  H208  1  -0.02357287  0.85529820  -0.00468614  1
  H+  H209  1  0.35784375  0.22438044  0.82814703  1
  H+  H210  1  0.38647413  0.01314577  0.17253960  1
  H+  H211  1  0.28480245  0.87907445  0.16072481  1
  H+  H212  1  0.71998800  0.61192265  0.33128056  1
  H+  H213  1  0.24511548  0.36939036  0.33705537  1
  H+  H214  1  0.61574711  0.49479070  0.82971273  1
  H+  H215  1  0.35439270  0.72700653  0.69543063  1
  H+  H216  1  0.61204909  0.89280187  0.67263609  1
  H+  H217  1  0.20946899  0.09539835  0.18070463  1
  H+  H218  1  0.48981857  0.86036747  0.84553191  1
  H+  H219  1  0.11524440  0.23295506  0.70508055  1
  H+  H220  1  0.90080863  0.54785893  0.17597829  1
  H+  H221  1  0.10898868  0.48455911  0.66268085  1
  H+  H222  1  0.88260192  0.35177432  0.82411634  1
  H+  H223  1  0.37465267  0.26084051  0.50103887  1
  H+  H224  1  0.36270004  0.84961396  0.45672300  1
  H+  H225  1  0.36907702  -0.02412787  1.00248141  1
  H+  H226  1  0.63330151  0.36188937  0.31451027  1
  H+  H227  1  0.26037049  0.85405070  0.39067771  1
  H+  H228  1  0.55848865  0.65253089  0.49598296  1
  H+  H229  1  0.11213368  0.19443417  0.02468597  1
  H+  H230  1  0.86859374  0.46562972  0.79290940  1
  H+  H231  1  0.64285074  0.62078122  1.01438722  1
  H+  H232  1  0.37546934  0.36177045  0.32028419  1
  H+  H233  1  0.35987432  0.49641354  0.31842753  1
  H+  H234  1  0.35508295  0.36386867  0.82148127  1
  H+  H235  1  0.87163133  0.65506457  0.16946580  1
  H+  H236  1  1.02424558  0.87033836  0.34602029  1
  H+  H237  1  0.47485622  0.10348255  0.17652901  1
  H+  H238  1  0.60142083  0.63248089  0.60708187  1
  H+  H239  1  0.34817595  0.12596726  0.99792883  1
  H+  H240  1  0.59032929  0.62944580  0.85972464  1
  H+  H241  1  0.11095035  0.34901212  0.33303033  1
  H+  H242  1  0.85460615  0.45347589  0.00313348  1
  H+  H243  1  0.88152425  0.62555965  0.67000774  1
  H+  H244  1  0.14439488  0.06113278  0.26136764  1
  H+  H245  1  0.59555532  0.91992653  0.06909564  1
  H+  H246  1  0.63615977  0.62138290  0.32822678  1
  H+  H247  1  0.16465400  0.58306163  0.94097837  1
  H+  H248  1  0.32817552  0.51660892  0.90360135  1
  H+  H249  1  0.87910574  0.71391795  0.67087676  1
  H+  H250  1  0.64220514  0.88289553  0.50069837  1
  H+  H251  1  0.61334738  0.20964578  0.82429978  1
  H+  H252  1  0.18065111  0.84845739  0.12740277  1
  H+  H253  1  0.14874578  1.02085503  0.50637941  1
  H+  H254  1  0.86667553  0.52616982  0.88432803  1
  H+  H255  1  0.53224941  0.64602979  1.02292339  1
  H+  H256  1  0.88097060  0.35127433  0.63321725  1
  H+  H257  1  0.42172269  0.01678702  0.48096325  1
  H+  H258  1  0.20905607  0.60020713  0.65747406  1
  H+  H259  1  0.73028039  0.61566528  1.01104544  1
  H+  H260  1  0.61623453  -0.02738308  0.83235840  1
  H+  H261  1  0.10581099  0.28648005  -0.00791575  1
  H+  H262  1  0.62399038  0.22913986  0.29616506  1
  H+  H263  1  0.14267074  0.86683271  0.80934844  1
  H+  H264  1  0.48930741  0.86698562  -0.00279410  1
  H+  H265  1  0.61725883  0.46497925  0.67490048  1
  H+  H266  1  0.40628643  0.86558967  0.17656010  1
  H+  H267  1  0.86818847  0.89440604  0.14455601  1
  H+  H268  1  0.66257169  0.10636593  0.17166575  1
  H+  H269  1  0.01131704  0.37884890  0.51456458  1
  H+  H270  1  0.63060731  0.10073790  0.83826215  1
  H+  H271  1  0.37606442  0.26511042  0.98922141  1
  H+  H272  1  0.14345229  0.86091598  0.33560944  1
  H+  H273  1  0.27484801  0.40150161  0.49163645  1
  H+  H274  1  0.14058518  0.53832002  0.18226274  1
  H+  H275  1  0.72626196  0.36713597  0.31482973  1
  H+  H276  1  0.22027348  0.61161211  0.33673119  1
  H+  H277  1  1.01150001  0.64069337  0.81764405  1
  H+  H278  1  0.88364858  0.85816836  0.83668186  1
  H+  H279  1  0.26976850  0.42218628  0.98839321  1
  H+  H280  1  0.64207732  0.25510789  0.98123942  1
  H+  H281  1  0.88238556  0.13478351  -0.00371057  1
  H+  H282  1  0.41119790  0.34490793  0.25954870  1
  H+  H283  1  -0.02355181  0.35967097  0.16736362  1
  H+  H284  1  0.36897248  0.64510510  1.02332430  1
  H+  H285  1  0.40668783  0.77790852  0.17671692  1
  H+  H286  1  0.02718021  0.12788904  0.16675801  1
  H+  H287  1  0.32822312  0.17147331  0.76631767  1
  H+  H288  1  0.38146974  0.11112137  0.83022996  1
  H+  H289  1  0.39894233  0.07569168  0.27492578  1
  H+  H290  1  0.91286465  0.57047726  0.59220748  1
  H+  H291  1  0.06989804  0.64311528  0.71711244  1
  H+  H292  1  0.90156596  0.80416422  0.56205288  1
  H+  H293  1  0.18696238  0.37369353  0.88626797  1
  H+  H294  1  0.43252381  0.77714698  0.58970163  1
  H+  H295  1  0.07129907  0.90770212  0.07676567  1
  H+  H296  1  0.32843813  0.66761274  0.78005970  1
  H+  H297  1  0.85309759  0.38217881  0.32962222  1
  H+  H298  1  0.85566348  0.17159116  0.40137999  1
  H+  H299  1  0.16493047  0.78607954  0.93201218  1
  H+  H300  1  0.43983245  0.83521749  0.27033906  1
  H+  H301  1  0.54495380  0.89407104  0.33593516  1
  H+  H302  1  0.13770987  0.39507101  0.51313233  1
  H+  H303  1  0.84306636  0.90451591  0.43162839  1
  H+  H304  1  0.09140480  0.62874779  0.35160818  1
  H+  H305  1  0.17719999  0.47358969  0.12121127  1
  H+  H306  1  0.83010612  0.39822525  0.74016467  1
  H+  H307  1  0.49326510  0.22745082  0.54178089  1
  H+  H308  1  0.42835574  0.21083756  0.11258947  1
  H+  H309  1  0.57498446  0.63669134  0.67554641  1
  H+  H310  1  0.82653046  0.17681672  0.71824334  1
  H+  H311  1  0.53668492  0.61881920  0.80070849  1
  H+  H312  1  0.57259102  0.41292194  0.06287723  1
  H+  H313  1  0.92147370  0.59848082  0.92971507  1
  H+  H314  1  0.66816803  0.08419574  0.56056584  1
  H+  H315  1  0.40573905  0.56519645  0.22459850  1
  H+  H316  1  0.42769624  0.11591256  0.60045383  1
  H+  H317  1  0.79484293  0.90112681  0.33487218  1
  H+  H318  1  0.61191844  0.98244298  0.48769670  1
  H+  H319  1  0.09220868  0.67013956  0.11860272  1
  H+  H320  1  0.84402484  0.16385427  0.10116143  1
  H+  H321  1  0.17514775  0.08687187  0.56422555  1
  H+  H322  1  0.91490610  0.59281365  0.27312081  1
  H+  H323  1  0.79210235  0.41239961  0.15071956  1
  H+  H324  1  0.75487340  0.13693730  0.65933055  1
  H+  H325  1  0.15310479  0.57540346  0.56967012  1
  H+  H326  1  0.68111178  0.07925366  0.93133612  1
  H+  H327  1  0.47403457  0.81806295  0.58434433  1
  H+  H328  1  0.52092755  0.38405517  0.66192285  1
  H+  H329  1  0.33494366  0.93872010  0.73735648  1
  H+  H330  1  0.67454045  0.33232641  0.56094446  1
  H+  H331  1  0.41448530  0.58800835  0.96552145  1
  H+  H332  1  0.91595927  0.81440531  0.27846938  1
  H+  H333  1  0.78304863  0.13737847  0.49555831  1
  H+  H334  1  0.66372830  0.56817397  0.58078170  1
  H+  H335  1  0.32188883  0.39802963  0.72078131  1
  H+  H336  1  0.92120169  0.83779805  0.90051154  1
  H+  H337  1  0.67286169  0.85902484  0.59390585  1
  H+  H338  1  0.76990699  0.37269395  0.65565391  1
  H+  H339  1  0.05755663  0.65618270  0.41111099  1
  H+  H340  1  0.87789579  0.59375032  1.03475141  1
  H+  H341  1  0.92146848  0.32437997  0.91911961  1
  H+  H342  1  0.57948386  0.66243959  0.10961968  1
  H+  H343  1  0.79338726  0.38616831  0.50362507  1
  H+  H344  1  0.57618304  0.15567914  0.73166692  1
  H+  H345  1  0.08620916  0.40786965  0.05259966  1
  H+  H346  1  0.16165515  0.58544860  0.27867590  1
  H+  H347  1  0.09147743  0.47399277  0.50113133  1
  H+  H348  1  0.02437206  0.62743824  0.03087697  1
  H+  H349  1  0.66415072  0.58480563  0.23597784  1
  H+  H350  1  0.31239817  0.40599277  0.39297541  1
  H+  H351  1  0.82560546  0.89460802  0.75739589  1
  H+  H352  1  0.54095419  0.69501289  0.35865509  1
  H+  H353  1  0.11309354  0.98109299  0.16817202  1
  H+  H354  1  0.69415253  0.08182148  0.25386287  1
  H+  H355  1  0.59108699  0.92118340  0.73650931  1
  H+  H356  1  0.09690444  0.92271062  0.43707869  1
  H+  H357  1  0.82559737  0.64618027  0.43674529  1
  H+  H358  1  0.08193639  0.14099802  0.08696186  1
  H+  H359  1  0.97523088  0.09661515  0.93110502  1
  H+  H360  1  0.15341147  0.33516705  0.60896223  1
  H+  H361  1  0.61468169  0.88135698  0.83173305  1
  H+  H362  1  0.61918329  0.22466698  0.16045979  1
  H+  H363  1  0.43014464  0.83199864  0.91177685  1
  H+  H364  1  0.55885089  0.35358257  0.75015595  1
  H+  H365  1  0.92311421  0.12928394  0.33167781  1
  H+  H366  1  0.41639928  0.33025496  0.90769612  1
  H+  H367  1  0.91692991  0.32959997  0.26413370  1
  H+  H368  1  0.87057267  0.06227199  0.87393591  1
  H+  H369  1  0.16027798  0.06439016  0.90273349  1
  H+  H370  1  0.40490986  0.07710243  0.92160742  1
  H+  H371  1  0.14658947  0.32431148  0.23605060  1
  H+  H372  1  0.68343640  0.63100892  0.93072468  1
  H+  H373  1  0.06551249  0.41202806  0.40608945  1
  H+  H374  1  0.67016025  0.31475730  0.91694260  1
  H+  H375  1  0.83933354  0.92195707  0.05310504  1
  H+  H376  1  0.33325112  0.65757192  0.39931369  1
  H+  H377  1  0.61385651  0.69379865  0.43682858  1
  H+  H378  1  0.08546449  0.92698132  0.72753267  1
  H+  H379  1  0.65981265  0.82288477  0.90322912  1
  H+  H380  1  0.16909026  0.81604850  0.55228314  1
  H+  H381  1  0.97411725  0.35864280  0.82560221  1
  H+  H382  1  0.72222751  0.10954999  0.82910141  1
  H+  H383  1  0.14148156  0.81133089  0.93288983  1
  O2-  O384  1  0.08792007  0.15562743  0.15277123  1
  O2-  O385  1  0.09628798  0.16527932  0.48156026  1
  O2-  O386  1  0.04376756  0.12985316  0.87128332  1
  O2-  O387  1  0.12006548  0.43301392  0.13632877  1
  O2-  O388  1  0.06461994  0.41113529  0.48930148  1
  O2-  O389  1  0.07074981  0.42308634  0.80496810  1
  O2-  O390  1  0.09282532  0.67677289  0.16339750  1
  O2-  O391  1  0.06003094  0.66277245  0.48064542  1
  O2-  O392  1  0.06301522  0.65910125  0.79332571  1
  O2-  O393  1  0.07906390  0.91499628  0.15200725  1
  O2-  O394  1  0.10180900  0.92707789  0.48191994  1
  O2-  O395  1  0.08526838  0.91762598  0.80313479  1
  O2-  O396  1  0.37254495  0.17572058  0.13180805  1
  O2-  O397  1  0.33581487  0.16176762  0.47403251  1
  O2-  O398  1  0.32668653  0.16564118  0.81207280  1
  O2-  O399  1  0.35743016  0.34736975  0.14148279  1
  O2-  O400  1  0.32942941  0.41416428  0.47102264  1
  O2-  O401  1  0.32202447  0.38646768  0.79910787  1
  O2-  O402  1  0.33781878  0.66786051  0.15392198  1
  O2-  O403  1  0.32063603  0.66798705  0.47817995  1
  O2-  O404  1  0.33130071  0.67691536  0.82560134  1
  O2-  O405  1  0.34767464  0.91116314  0.14946563  1
  O2-  O406  1  0.28784346  0.86658648  0.43075668  1
  O2-  O407  1  0.34455942  0.92881026  0.78046364  1
  O2-  O408  1  0.58697245  0.16167632  0.16717313  1
  O2-  O409  1  0.60641247  0.17412004  0.47453855  1
  O2-  O410  1  0.57882781  0.14884136  0.81041357  1
  O2-  O411  1  0.58408983  0.41833790  0.14228525  1
  O2-  O412  1  0.61920296  0.42778691  0.47204255  1
  O2-  O413  1  0.54861123  0.31757998  0.78732777  1
  O2-  O414  1  0.56686401  0.64694941  0.15419225  1
  O2-  O415  1  0.61725249  0.69288008  0.48190907  1
  O2-  O416  1  0.53948643  0.63209738  0.84389160  1
  O2-  O417  1  0.60511665  0.92714494  0.14019815  1
  O2-  O418  1  0.58258902  0.92223876  0.47164444  1
  O2-  O419  1  0.58297241  0.91083120  0.81816367  1
  O2-  O420  1  0.84433742  0.16781724  0.14585204  1
  O2-  O421  1  0.84525343  0.17072259  0.48488857  1
  O2-  O422  1  0.82224926  0.16874050  0.78614862  1
  O2-  O423  1  0.85432684  0.44834118  0.13944373  1
  O2-  O424  1  0.85697514  0.41785009  0.50023139  1
  O2-  O425  1  0.83176551  0.40412931  0.78670609  1
  O2-  O426  1  0.83616975  0.68086681  0.15427532  1
  O2-  O427  1  0.82839081  0.64727022  0.48262069  1
  O2-  O428  1  0.83107370  0.67600251  0.83934298  1
  O2-  O429  1  0.83844630  0.92430023  0.12935528  1
  O2-  O430  1  0.83619372  0.88859623  0.47508156  1
  O2-  O431  1  0.82447395  0.89271856  0.80403005  1
  O2-  O432  1  0.14862863  0.06464769  0.19036471  1
  O2-  O433  1  0.17937198  0.08405256  0.51929086  1
  O2-  O434  1  0.15788717  0.06849128  0.85735023  1
  O2-  O435  1  0.15164773  0.32660489  0.19087842  1
  O2-  O436  1  0.18979200  0.39553671  0.53295797  1
  O2-  O437  1  0.15677846  0.34970685  0.84762244  1
  O2-  O438  1  0.17364727  0.59694425  0.19865623  1
  O2-  O439  1  0.14612026  0.57325972  0.52269266  1
  O2-  O440  1  0.15624556  0.57620222  0.86941893  1
  O2-  O441  1  0.17461096  0.83688614  0.17149061  1
  O2-  O442  1  0.15640688  0.81610896  0.50904472  1
  O2-  O443  1  0.17479961  0.83482700  0.81479491  1
  O2-  O444  1  0.41209633  0.07466946  0.18536111  1
  O2-  O445  1  0.45921826  0.16591854  0.53431889  1
  O2-  O446  1  0.41143152  0.07993391  0.84429686  1
  O2-  O447  1  0.41266706  0.33012947  0.17656570  1
  O2-  O448  1  0.40140913  0.31911820  0.52044946  1
  O2-  O449  1  0.42452326  0.33986150  0.85918391  1
  O2-  O450  1  0.41463793  0.57691963  0.17980183  1
  O2-  O451  1  0.44214669  0.58047075  0.52238074  1
  O2-  O452  1  0.37494781  0.57398041  0.89037077  1
  O2-  O453  1  0.44061121  0.83876312  0.18975542  1
  O2-  O454  1  0.39640700  0.82872869  0.48082031  1
  O2-  O455  1  0.42902006  0.82864232  0.86400730  1
  O2-  O456  1  0.69394389  0.07706298  0.18348835  1
  O2-  O457  1  0.67299673  0.08498662  0.51595942  1
  O2-  O458  1  0.66719430  0.07571826  0.85153609  1
  O2-  O459  1  0.68525274  0.34637594  0.17372684  1
  O2-  O460  1  0.68337546  0.33571547  0.51630162  1
  O2-  O461  1  0.67283433  0.31720110  0.84571519  1
  O2-  O462  1  0.66353417  0.58465176  0.19009025  1
  O2-  O463  1  0.62138013  0.56649220  0.55106150  1
  O2-  O464  1  0.69193736  0.66047926  0.88820422  1
  O2-  O465  1  0.68051544  0.84666644  0.19479395  1
  O2-  O466  1  0.67685127  0.85917971  0.52021580  1
  O2-  O467  1  0.65618244  0.81615305  0.85747139  1
  O2-  O468  1  0.91777511  0.07877672  0.18458444  1
  O2-  O469  1  0.93521752  0.09033023  0.53157840  1
  O2-  O470  1  0.86486028  0.05928224  0.82992098  1
  O2-  O471  1  0.91673152  0.33464338  0.18008956  1
  O2-  O472  1  0.91458372  0.32017002  0.55456039  1
  O2-  O473  1  0.91216833  0.32185394  0.84029093  1
  O2-  O474  1  0.92630474  0.60780117  0.19155840  1
  O2-  O475  1  0.91307506  0.58141487  0.52202403  1
  O2-  O476  1  0.90246915  0.58842172  0.88735952  1
  O2-  O477  1  0.92957127  0.85767611  0.19510597  1
  O2-  O478  1  0.89361942  0.79435947  0.51743310  1
  O2-  O479  1  0.91703586  0.83109748  0.85434454  1
  O2-  O480  1  0.13920495  0.05957963  0.30796957  1
  O2-  O481  1  0.16840295  0.10079923  0.64353778  1
  O2-  O482  1  0.15229142  0.05677328  0.98028644  1
  O2-  O483  1  0.13834047  0.31735049  0.31544683  1
  O2-  O484  1  0.15449144  0.33448094  0.65375891  1
  O2-  O485  1  0.24382014  0.43643182  0.95398889  1
  O2-  O486  1  0.15917627  0.57983303  0.32376222  1
  O2-  O487  1  0.15223805  0.56879461  0.63876209  1
  O2-  O488  1  0.16615947  0.58460011  0.98737942  1
  O2-  O489  1  0.18267176  0.83844198  0.32212196  1
  O2-  O490  1  0.14550570  0.80277006  0.64121310  1
  O2-  O491  1  0.18255078  0.83942732  1.04356951  1
  O2-  O492  1  0.41452496  0.09683407  0.31677531  1
  O2-  O493  1  0.41597474  0.09495232  0.64392463  1
  O2-  O494  1  0.40729386  0.08022504  0.96732875  1
  O2-  O495  1  0.42021253  0.35113020  0.30368692  1
  O2-  O496  1  0.41510459  0.33240917  0.63775549  1
  O2-  O497  1  0.40818144  0.32414768  0.97256034  1
  O2-  O498  1  0.39779986  0.55757544  0.30192760  1
  O2-  O499  1  0.38934824  0.56684218  0.64344049  1
  O2-  O500  1  0.42826193  0.59547316  1.00958283  1
  O2-  O501  1  0.44464142  0.83629265  0.31534495  1
  O2-  O502  1  0.40612599  0.84009997  0.69980933  1
  O2-  O503  1  0.42923688  0.83643739  0.97940007  1
  O2-  O504  1  0.68779999  0.08599443  0.30064514  1
  O2-  O505  1  0.66521080  0.08577111  0.64662481  1
  O2-  O506  1  0.68223941  0.08004496  0.97663925  1
  O2-  O507  1  0.66665248  0.33774566  0.29517292  1
  O2-  O508  1  0.66376478  0.32384448  0.64130526  1
  O2-  O509  1  0.67326793  0.31531082  0.96356668  1
  O2-  O510  1  0.66136830  0.58784309  0.31207222  1
  O2-  O511  1  0.69530825  0.57070426  0.65846371  1
  O2-  O512  1  0.67181601  0.59297310  0.99271225  1
  O2-  O513  1  0.69130684  0.85217603  0.31273458  1
  O2-  O514  1  0.66783861  0.84965406  0.63976677  1
  O2-  O515  1  0.66861008  0.83070845  0.97919887  1
  O2-  O516  1  0.94745204  0.09565012  0.31086476  1
  O2-  O517  1  0.90812035  0.06178388  0.64716503  1
  O2-  O518  1  0.94016349  0.08084977  0.96966496  1
  O2-  O519  1  0.91303399  0.32740892  0.30915960  1
  O2-  O520  1  0.91207228  0.31904566  0.62232367  1
  O2-  O521  1  0.92196855  0.32585460  0.96465395  1
  O2-  O522  1  0.90561870  0.58232638  0.31745054  1
  O2-  O523  1  0.91280413  0.56070969  0.63825559  1
  O2-  O524  1  0.90490632  0.55680763  1.03388780  1
  O2-  O525  1  0.91343024  0.81564521  0.32315138  1
  O2-  O526  1  0.91666598  0.82298322  0.64050531  1
  O2-  O527  1  0.91809484  0.82689293  0.97487550  1
  O2-  O528  1  0.07940504  0.13528680  0.03912176  1
  O2-  O529  1  0.03913775  0.14140261  0.32361263  1
  O2-  O530  1  0.10943657  0.18503005  0.73002359  1
  O2-  O531  1  0.08731305  0.41689775  0.00815520  1
  O2-  O532  1  0.07122001  0.41348459  0.36111282  1
  O2-  O533  1  0.07620622  0.42052310  0.68199887  1
  O2-  O534  1  0.08689994  0.66330539  0.03702048  1
  O2-  O535  1  0.05502229  0.65239928  0.36427717  1
  O2-  O536  1  0.07520716  0.64438621  0.67203079  1
  O2-  O537  1  0.07122632  0.89981174  0.03112294  1
  O2-  O538  1  0.08627295  0.90510994  0.35548287  1
  O2-  O539  1  0.08790827  0.93034969  0.68187376  1
  O2-  O540  1  0.31580195  0.15290965  0.01482575  1
  O2-  O541  1  0.30919374  0.15744956  0.35853937  1
  O2-  O542  1  0.33310291  0.17501074  0.69048650  1
  O2-  O543  1  0.33381482  0.44054874  0.06195475  1
  O2-  O544  1  0.30742484  0.40440169  0.34774327  1
  O2-  O545  1  0.31847963  0.40661803  0.67641890  1
  O2-  O546  1  0.33374659  0.67309570  0.03037511  1
  O2-  O547  1  0.33327022  0.66071438  0.35429454  1
  O2-  O548  1  0.32176136  0.66430068  0.70483809  1
  O2-  O549  1  0.34998517  0.91866938  0.02097590  1
  O2-  O550  1  0.23645974  0.90293208  0.27770750  1
  O2-  O551  1  0.31613531  0.92082878  0.65754624  1
  O2-  O552  1  0.59260104  0.15677506  0.00981340  1
  O2-  O553  1  0.59321181  0.16606290  0.28739789  1
  O2-  O554  1  0.57738620  0.15827863  0.68623462  1
  O2-  O555  1  0.56608150  0.41062169  0.01792059  1
  O2-  O556  1  0.57774127  0.41316099  0.34987609  1
  O2-  O557  1  0.57775887  0.40231287  0.68153467  1
  O2-  O558  1  0.59384756  0.67546178  0.03674398  1
  O2-  O559  1  0.59692817  0.69896722  0.35685290  1
  O2-  O560  1  0.61041531  0.67157906  0.64200460  1
  O2-  O561  1  0.59032663  0.91450728  0.02233724  1
  O2-  O562  1  0.60638712  0.92829693  0.35076315  1
  O2-  O563  1  0.58424210  0.92366472  0.69188076  1
  O2-  O564  1  0.84882257  0.16096723  0.01180309  1
  O2-  O565  1  0.85911939  0.16843869  0.35634725  1
  O2-  O566  1  0.82154048  0.17197403  0.67084015  1
  O2-  O567  1  0.82352680  0.39132194  -0.00674783  1
  O2-  O568  1  0.81894452  0.40920057  0.34109852  1
  O2-  O569  1  0.83186121  0.39849494  0.66781833  1
  O2-  O570  1  0.83607803  0.66409666  0.03296451  1
  O2-  O571  1  0.81820500  0.65004926  0.36154551  1
  O2-  O572  1  0.85409640  0.65628761  0.68963346  1
  O2-  O573  1  0.83791529  0.91507908  0.00756204  1
  O2-  O574  1  0.85470945  0.92242152  0.35036119  1
  O2-  O575  1  0.83239488  0.90440838  0.68492951  1
