# generated using pymatgen
data_H2O
_symmetry_space_group_name_H-M   'P 1'
_cell_length_a   17.98456596
_cell_length_b   17.98728645
_cell_length_c   22.00026479
_cell_angle_alpha   89.99455953
_cell_angle_beta   90.01329660
_cell_angle_gamma   120.00386200
_symmetry_Int_Tables_number   1
_chemical_formula_structural   H2O
_chemical_formula_sum   'H384 O192'
_cell_volume   6163.21385226
_cell_formula_units_Z   192
loop_
 _symmetry_equiv_pos_site_id
 _symmetry_equiv_pos_as_xyz
  1  'x, y, z'
loop_
 _atom_type_symbol
 _atom_type_oxidation_number
  H+  1.0
  O2-  -2.0
loop_
 _atom_site_type_symbol
 _atom_site_label
 _atom_site_symmetry_multiplicity
 _atom_site_fract_x
 _atom_site_fract_y
 _atom_site_fract_z
 _atom_site_occupancy
  H+  H0  1  0.11632939  0.12867666  0.65790294  1
  H+  H1  1  0.35921867  0.72025729  0.81764903  1
  H+  H2  1  -0.11199385  0.48267799  0.87739297  1
  H+  H3  1  0.11611440  0.88511455  0.49512102  1
  H+  H4  1  0.12965657  0.43542637  0.80743016  1
  H+  H5  1  0.37892711  0.58995935  0.98553468  1
  H+  H6  1  0.25883409  -0.00073712  0.00348019  1
  H+  H7  1  0.64023929  0.86517019  0.32648239  1
  H+  H8  1  0.14712100  0.11368999  0.50252775  1
  H+  H9  1  0.88674549  0.10531095  0.32938877  1
  H+  H10  1  0.72711732  0.86124114  0.50605847  1
  H+  H11  1  0.86362468  0.57635204  0.80313554  1
  H+  H12  1  0.63500865  0.60514385  0.17531651  1
  H+  H13  1  0.53335206  0.65691679  -0.00519018  1
  H+  H14  1  0.11544056  0.58672165  0.99604207  1
  H+  H15  1  0.29871862  0.07505667  0.05209534  1
  H+  H16  1  0.36922601  0.47725740  0.48402285  1
  H+  H17  1  0.64215921  0.11107846  0.18131847  1
  H+  H18  1  0.90175131  0.28941686  0.98271806  1
  H+  H19  1  0.81464194  0.36795187  0.17017868  1
  H+  H20  1  0.74553733  0.88508802  0.17755729  1
  H+  H21  1  0.64851319  0.04656738  0.84024530  1
  H+  H22  1  0.86228983  0.51473264  0.17653721  1
  H+  H23  1  0.12108803  0.97673029  0.49449892  1
  H+  H24  1  0.28145376  0.38523413  0.48959494  1
  H+  H25  1  0.15010019  0.36228619  0.50289433  1
  H+  H26  1  0.01049958  0.62152890  0.00426818  1
  H+  H27  1  0.67437985  0.58394415  0.27147959  1
  H+  H28  1  0.61840178  0.71606983  0.49462150  1
  H+  H29  1  0.47823129  0.10757083  0.65409855  1
  H+  H30  1  0.53113588  0.15043435  0.32286141  1
  H+  H31  1  0.08828051  0.21947849  0.18380244  1
  H+  H32  1  0.57970815  0.93790516  0.89216558  1
  H+  H33  1  0.02602260  0.12468539  0.34864164  1
  H+  H34  1  0.02215984  0.13003223  0.66312547  1
  H+  H35  1  0.32010413  0.66812684  -0.03107739  1
  H+  H36  1  0.21403709  0.08796137  0.98226813  1
  H+  H37  1  0.15065136  0.61691291  0.49625623  1
  H+  H38  1  0.88489476  0.02901667  0.99423064  1
  H+  H39  1  0.32433531  0.15967645  0.73417081  1
  H+  H40  1  0.64344456  0.52235010  0.17700895  1
  H+  H41  1  0.90245016  0.27935732  0.82786283  1
  H+  H42  1  0.61239627  0.88068420  0.49504213  1
  H+  H43  1  0.28234635  0.64718763  0.66368858  1
  H+  H44  1  0.14245400  0.61833913  0.63877753  1
  H+  H45  1  0.98066876  0.69383399  0.28229054  1
  H+  H46  1  0.39663299  0.52399615  0.82244797  1
  H+  H47  1  0.60322571  0.37412722  -0.02075865  1
  H+  H48  1  0.21999730  0.61415220  0.15930512  1
  H+  H49  1  0.12414886  0.13149852  0.83907082  1
  H+  H50  1  0.48222126  0.86823101  0.50918552  1
  H+  H51  1  0.17799686  0.85395984  0.07262526  1
  H+  H52  1  0.65354888  0.61965770  0.62645025  1
  H+  H53  1  0.71132495  0.09722667  0.50345975  1
  H+  H54  1  0.70621030  0.34872092  0.65644758  1
  H+  H55  1  0.77354995  0.39162306  0.82249220  1
  H+  H56  1  0.50042768  0.86522210  -0.00715046  1
  H+  H57  1  0.39097598  0.37707678  0.82002955  1
  H+  H58  1  0.37073022  0.98503025  0.82406898  1
  H+  H59  1  0.76896448  0.12673438  0.67071191  1
  H+  H60  1  0.11080436  -0.03670154  0.34338811  1
  H+  H61  1  0.84437829  0.37743457  0.48421308  1
  H+  H62  1  0.86896518  0.88801650  0.49381297  1
  H+  H63  1  0.14581179  0.27010062  0.50224721  1
  H+  H64  1  0.64451478  0.52589246  0.33164154  1
  H+  H65  1  0.86218100  0.88840619  0.16437474  1
  H+  H66  1  0.38219254  0.11199446  0.50678028  1
  H+  H67  1  0.52241307  0.13366562  0.50377280  1
  H+  H68  1  0.87247916  0.63986081  0.66084156  1
  H+  H69  1  0.12385455  0.94033522  0.75874551  1
  H+  H70  1  0.88972782  0.86219037  0.65968877  1
  H+  H71  1  0.13088138  0.04250866  0.17568995  1
  H+  H72  1  0.40317316  0.10551032  0.98372166  1
  H+  H73  1  0.11499880  0.62603649  0.33543611  1
  H+  H74  1  0.36407349  0.96422852  0.33760315  1
  H+  H75  1  0.91967958  0.83827819  0.56557449  1
  H+  H76  1  1.02635046  0.88535667  0.66991276  1
  H+  H77  1  0.86311594  0.88043424  0.33685728  1
  H+  H78  1  0.88251915  0.64518332  0.49269612  1
  H+  H79  1  0.77318042  0.64079672  0.16056962  1
  H+  H80  1  0.39331525  0.61776286  0.66439517  1
  H+  H81  1  0.36099893  0.71770599  0.14350515  1
  H+  H82  1  0.47213815  0.86384963  0.83895381  1
  H+  H83  1  0.62637215  0.10366189  0.51301175  1
  H+  H84  1  0.05951540  0.40741653  0.50893614  1
  H+  H85  1  0.27650779  0.13489064  0.20037964  1
  H+  H86  1  0.52975817  0.14844669  0.81713306  1
  H+  H87  1  0.02525403  0.39607013  0.33398206  1
  H+  H88  1  -0.00166845  0.89047048  0.00038493  1
  H+  H89  1  0.61838556  0.50042735  1.00820608  1
  H+  H90  1  0.84336065  0.11967676  0.48206360  1
  H+  H91  1  0.28572537  0.89306841  0.13935132  1
  H+  H92  1  0.13330184  0.75052976  0.67658804  1
  H+  H93  1  0.42332892  0.53074341  0.97293850  1
  H+  H94  1  0.61746973  0.14629133  0.32622484  1
  H+  H95  1  0.29648252  0.39996872  0.81136357  1
  H+  H96  1  1.02539312  0.13876204  0.83991529  1
  H+  H97  1  0.86160361  0.63387481  1.00696780  1
  H+  H98  1  0.38133147  0.01207687  0.65903628  1
  H+  H99  1  0.15533843  0.92125830  0.82364972  1
  H+  H100  1  0.97699044  0.88494409  0.80971962  1
  H+  H101  1  0.77633844  0.88590525  0.66846352  1
  H+  H102  1  0.03957016  0.37512999  -0.00095542  1
  H+  H103  1  0.89192316  0.52195231  0.50685204  1
  H+  H104  1  0.11344993  0.14357500  1.00430226  1
  H+  H105  1  0.63608803  0.85519686  0.66176833  1
  H+  H106  1  0.89556454  0.36375457  0.83187758  1
  H+  H107  1  0.28331188  0.14959140  0.82904061  1
  H+  H108  1  0.48850146  0.44060272  0.98448492  1
  H+  H109  1  0.61144740  0.22151509  0.49934120  1
  H+  H110  1  0.48005793  0.36709906  0.50093160  1
  H+  H111  1  0.23000039  0.86258630  0.50196516  1
  H+  H112  1  0.39504777  0.26669655  -0.03525139  1
  H+  H113  1  0.27793315  0.40876988  0.01563298  1
  H+  H114  1  0.77771452  0.63400217  0.84163763  1
  H+  H115  1  0.91405790  0.53446579  0.66852496  1
  H+  H116  1  0.19712800  0.30268642  0.94972733  1
  H+  H117  1  0.22969789  0.60846995  0.31282178  1
  H+  H118  1  0.03660743  0.13739445  0.49683667  1
  H+  H119  1  0.43855947  0.09731678  0.89222574  1
  H+  H120  1  0.78164080  0.63526456  0.65826698  1
  H+  H121  1  0.01938510  0.63997374  0.15338031  1
  H+  H122  1  0.44141680  0.04589982  0.98862056  1
  H+  H123  1  0.87780294  0.73236803  0.49209230  1
  H+  H124  1  0.53072522  0.88479191  0.15934420  1
  H+  H125  1  0.11668188  0.22071072  0.86245109  1
  H+  H126  1  0.63901673  0.28735810  0.82711719  1
  H+  H127  1  0.18407683  0.59265953  0.58645773  1
  H+  H128  1  0.63210882  0.89720524  1.00463732  1
  H+  H129  1  0.11041911  0.90464807  0.13836874  1
  H+  H130  1  0.68361376  0.36398913  -0.01754100  1
  H+  H131  1  0.60824272  0.38927733  0.49156991  1
  H+  H132  1  0.40843751  0.78227445  1.00003725  1
  H+  H133  1  0.84731657  0.24011017  0.48696559  1
  H+  H134  1  0.37237114  0.61879160  0.33376189  1
  H+  H135  1  0.73228017  0.86712270  0.32545102  1
  H+  H136  1  0.83521738  0.18203715  0.05759826  1
  H+  H137  1  -0.01867210  0.87011643  0.50727029  1
  H+  H138  1  0.22248696  0.11054691  0.65940277  1
  H+  H139  1  0.37235522  0.12397294  0.33536854  1
  H+  H140  1  0.88983889  0.77246534  0.65795147  1
  H+  H141  1  0.53072787  0.38554857  0.16373687  1
  H+  H142  1  0.38417593  0.75777155  0.32430765  1
  H+  H143  1  0.27637067  0.89659955  0.67107933  1
  H+  H144  1  0.93278454  0.32757133  0.47888730  1
  H+  H145  1  0.19086868  0.28153271  0.17766470  1
  H+  H146  1  -0.00835933  0.68397760  0.82354902  1
  H+  H147  1  0.37221819  0.23381067  0.48806596  1
  H+  H148  1  0.59240443  0.62170342  0.70896999  1
  H+  H149  1  0.11517742  0.02190919  0.98316858  1
  H+  H150  1  0.88187738  0.30728228  0.31134559  1
  H+  H151  1  0.60975393  0.96908365  0.49511147  1
  H+  H152  1  0.63969074  0.76819296  0.65954318  1
  H+  H153  1  0.37972307  0.01947242  0.50544251  1
  H+  H154  1  0.72476254  0.10491020  0.32958586  1
  H+  H155  1  0.52160736  0.87431052  0.33965012  1
  H+  H156  1  0.16269905  0.35044854  0.90915398  1
  H+  H157  1  0.88655103  0.54445773  1.03856988  1
  H+  H158  1  0.87156712  0.33871731  0.64762375  1
  H+  H159  1  0.77228646  0.14441447  0.00074533  1
  H+  H160  1  0.11614929  0.54998854  0.83024006  1
  H+  H161  1  0.49907371  0.59500755  0.13760189  1
  H+  H162  1  0.12821212  0.34225393  0.65488158  1
  H+  H163  1  0.08966864  0.15957051  0.43345810  1
  H+  H164  1  0.83752170  0.16568103  0.26449233  1
  H+  H165  1  0.64531519  0.52971809  0.63788391  1
  H+  H166  1  0.66860461  0.83065245  0.56554010  1
  H+  H167  1  0.68139393  0.84960017  0.89413512  1
  H+  H168  1  0.37735417  0.74392793  0.49498979  1
  H+  H169  1  0.36567292  0.89307321  0.82363032  1
  H+  H170  1  0.39337198  0.85762067  0.16860431  1
  H+  H171  1  0.33854820  0.16808932  0.28948685  1
  H+  H172  1  0.64374621  0.02791828  0.99129864  1
  H+  H173  1  0.86922427  0.98827578  0.81993927  1
  H+  H174  1  0.86481496  0.50093090  0.33842859  1
  H+  H175  1  0.39808145  0.27970462  0.32914934  1
  H+  H176  1  0.87792610  0.77291605  1.00071267  1
  H+  H177  1  0.57942804  0.42691356  0.71780419  1
  H+  H178  1  0.60342749  0.39072822  0.65845669  1
  H+  H179  1  0.48074138  0.10796595  0.19237922  1
  H+  H180  1  0.14205926  0.76461273  0.36272001  1
  H+  H181  1  0.73708525  0.62486765  0.99530476  1
  H+  H182  1  0.17520736  0.83831151  0.59686396  1
  H+  H183  1  0.64991252  0.79113528  0.98906224  1
  H+  H184  1  0.35951210  0.49427156  0.15128661  1
  H+  H185  1  0.15174621  0.13927632  0.19569658  1
  H+  H186  1  0.38498403  0.84694250  0.32485559  1
  H+  H187  1  0.78510853  0.15042255  0.82354380  1
  H+  H188  1  0.88556303  0.77679867  0.17071985  1
  H+  H189  1  0.11320770  0.12104446  0.34965059  1
  H+  H190  1  0.87639862  0.41924463  0.33180328  1
  H+  H191  1  0.48720715  0.38591988  0.64783411  1
  H+  H192  1  0.22770321  0.09842155  0.33272954  1
  H+  H193  1  0.39338952  0.61184256  0.49544960  1
  H+  H194  1  0.14475056  0.36751899  0.31382540  1
  H+  H195  1  0.38857096  0.77462500  0.66140578  1
  H+  H196  1  0.47892572  0.60565399  0.49576875  1
  H+  H197  1  0.60411490  0.12796815  0.66538647  1
  H+  H198  1  0.86056611  0.63904839  0.15755715  1
  H+  H199  1  0.62018862  0.72479530  0.33739313  1
  H+  H200  1  0.62150182  0.15388089  0.81705119  1
  H+  H201  1  0.14077041  0.49042400  0.48728029  1
  H+  H202  1  0.78421179  0.74791660  0.87212538  1
  H+  H203  1  0.63364110  1.01734608  0.33303989  1
  H+  H204  1  0.14015044  0.52134269  0.31629795  1
  H+  H205  1  0.23533550  0.59333101  -0.00406026  1
  H+  H206  1  0.35003473  0.25932245  0.96560563  1
  H+  H207  1  0.63961199  0.23268865  0.02091027  1
  H+  H208  1  0.83343340  0.84913865  0.85408048  1
  H+  H209  1  0.51035662  0.67015472  0.81241661  1
  H+  H210  1  0.11297875  -0.02384322  0.66388022  1
  H+  H211  1  0.62933902  0.23076205  0.16970557  1
  H+  H212  1  0.76473340  0.29084848  0.70655999  1
  H+  H213  1  0.65188208  0.63284371  -0.01225106  1
  H+  H214  1  0.36979885  0.58809154  0.14484424  1
  H+  H215  1  0.95847129  0.18231056  0.53364947  1
  H+  H216  1  0.07446753  0.90776223  0.40351742  1
  H+  H217  1  0.37057741  0.89373480  0.49504884  1
  H+  H218  1  0.99913055  0.62376564  0.66541546  1
  H+  H219  1  0.61767535  0.97782065  0.16358786  1
  H+  H220  1  -0.02475875  0.85949182  0.32734341  1
  H+  H221  1  0.11901956  0.22917242  0.65780336  1
  H+  H222  1  0.89720033  0.12341858  0.83783904  1
  H+  H223  1  1.01344005  0.35978249  0.65625616  1
  H+  H224  1  0.53105360  0.39171252  0.33822658  1
  H+  H225  1  0.88937964  0.01581720  0.33064743  1
  H+  H226  1  0.13857448  0.85211277  0.36176803  1
  H+  H227  1  0.61560088  0.26649576  0.64977633  1
  H+  H228  1  0.34458741  0.35878134  0.16263380  1
  H+  H229  1  0.73506896  0.37530680  0.32123614  1
  H+  H230  1  0.23335080  0.87178181  0.85000235  1
  H+  H231  1  0.88744177  1.01803094  0.65795201  1
  H+  H232  1  0.52290142  0.39385228  0.80766996  1
  H+  H233  1  0.36424214  0.12870270  0.20310137  1
  H+  H234  1  0.28365205  0.39178299  0.33119952  1
  H+  H235  1  0.27940844  0.38192361  0.67160791  1
  H+  H236  1  0.02971057  0.63547067  0.33767993  1
  H+  H237  1  0.77667862  0.63664320  0.34333582  1
  H+  H238  1  0.15451399  0.04006617  0.82795717  1
  H+  H239  1  0.02067787  0.89753993  0.15712325  1
  H+  H240  1  0.88106070  0.28523775  0.18845919  1
  H+  H241  1  0.11014269  0.64398442  0.15518452  1
  H+  H242  1  0.64742755  0.28246558  0.31198069  1
  H+  H243  1  1.02153592  0.13327792  1.00741835  1
  H+  H244  1  0.52024876  0.88231193  0.67516341  1
  H+  H245  1  0.51692927  0.62670146  0.67047339  1
  H+  H246  1  0.37144659  0.23778516  0.82229594  1
  H+  H247  1  0.39801953  0.27386309  0.19091214  1
  H+  H248  1  -0.03194436  0.83948451  0.80767188  1
  H+  H249  1  0.73975347  0.87997059  -0.00751226  1
  H+  H250  1  0.88661040  0.10758899  0.66290097  1
  H+  H251  1  1.03241907  0.63194477  0.49607882  1
  H+  H252  1  0.86605012  -0.02503765  0.48828610  1
  H+  H253  1  0.61999765  0.39192983  0.33486645  1
  H+  H254  1  0.39810930  0.52405817  0.32493146  1
  H+  H255  1  0.89780978  0.64670090  0.32343801  1
  H+  H256  1  0.09922234  0.62344352  0.85241980  1
  H+  H257  1  0.14299175  0.87156425  0.65448023  1
  H+  H258  1  0.37093547  0.97292035  0.16820534  1
  H+  H259  1  0.61416918  0.39996213  0.80578941  1
  H+  H260  1  0.38893855  0.52567776  0.66475680  1
  H+  H261  1  0.13353102  0.90037877  -0.00224222  1
  H+  H262  1  0.13978299  0.78669604  0.12685682  1
  H+  H263  1  0.41602593  0.91283449  0.00950355  1
  H+  H264  1  -0.04046964  0.37624499  0.16350810  1
  H+  H265  1  0.13460677  0.79744885  0.85575662  1
  H+  H266  1  0.83340034  0.66914771  0.06479811  1
  H+  H267  1  0.23719609  0.11564308  0.50088650  1
  H+  H268  1  0.24530887  0.62590522  0.49467627  1
  H+  H269  1  0.39721239  0.12355089  0.83684053  1
  H+  H270  1  0.43903459  1.07424500  0.36949353  1
  H+  H271  1  0.64730128  0.88026778  0.17569216  1
  H+  H272  1  0.63323133  0.01938832  0.66237278  1
  H+  H273  1  0.14266152  0.77249987  0.50415656  1
  H+  H274  1  0.39185370  0.94750412  0.06922926  1
  H+  H275  1  0.94353498  0.33939662  0.92145908  1
  H+  H276  1  0.38777491  0.38128777  0.65267392  1
  H+  H277  1  0.81568595  0.38329496  0.73232476  1
  H+  H278  1  0.19064050  0.33312947  1.03862506  1
  H+  H279  1  0.03029438  0.40389500  0.80984033  1
  H+  H280  1  0.62163511  0.63695931  0.33980003  1
  H+  H281  1  0.63329244  0.80021130  0.83102979  1
  H+  H282  1  0.38894110  0.36550263  0.49867059  1
  H+  H283  1  0.48490108  0.61525900  0.32845964  1
  H+  H284  1  0.86210375  0.89308001  0.01420774  1
  H+  H285  1  0.35176274  0.13015446  0.67444374  1
  H+  H286  1  0.88727443  0.11924141  0.99054636  1
  H+  H287  1  0.71888365  0.36526502  0.49963240  1
  H+  H288  1  0.29606903  0.59520043  0.38150595  1
  H+  H289  1  0.65952829  0.33460183  0.55899803  1
  H+  H290  1  0.07710443  0.40771398  0.71159398  1
  H+  H291  1  0.06484151  0.70184344  0.77787818  1
  H+  H292  1  0.69690842  0.35314468  0.23045346  1
  H+  H293  1  0.33841146  0.21584056  0.08190422  1
  H+  H294  1  0.29131206  0.35862014  0.10451554  1
  H+  H295  1  0.40931131  0.07507626  0.59100762  1
  H+  H296  1  0.49195095  0.48298895  0.92246812  1
  H+  H297  1  0.20081093  0.87632849  0.22983469  1
  H+  H298  1  0.42441437  0.06860647  0.25257167  1
  H+  H299  1  0.16280011  0.07273841  0.27728277  1
  H+  H300  1  0.07656205  0.65749530  0.05783902  1
  H+  H301  1  0.62297979  0.39132335  0.15628939  1
  H+  H302  1  0.33754452  0.41501410  0.39428826  1
  H+  H303  1  0.87447619  0.98265178  0.16876240  1
  H+  H304  1  0.78028155  0.13956209  0.20477091  1
  H+  H305  1  0.62421205  0.90448273  0.84690385  1
  H+  H306  1  0.57048534  0.70802795  0.75456497  1
  H+  H307  1  0.18667134  0.87486218  0.95315763  1
  H+  H308  1  0.14051872  0.56440203  0.93409026  1
  H+  H309  1  0.87826718  0.20843778  0.35230392  1
  H+  H310  1  0.71093967  0.61791540  0.89471212  1
  H+  H311  1  0.85840271  0.21407354  0.66255639  1
  H+  H312  1  0.17230283  0.08520869  0.59415876  1
  H+  H313  1  0.65602753  0.34728049  0.88514856  1
  H+  H314  1  0.54622303  0.15473949  0.01002867  1
  H+  H315  1  0.85710141  0.64440840  0.75973393  1
  H+  H316  1  0.59091146  0.66029962  0.43490804  1
  H+  H317  1  0.33596992  0.92802662  0.73260154  1
  H+  H318  1  0.34297530  0.91812650  0.43230240  1
  H+  H319  1  0.88467274  0.77201283  0.32705917  1
  H+  H320  1  0.65984778  0.07162163  0.24102176  1
  H+  H321  1  0.38449251  0.22627390  0.08121341  1
  H+  H322  1  0.34523241  0.17397668  0.42889059  1
  H+  H323  1  0.36308300  0.63397452  0.81385301  1
  H+  H324  1  0.91825503  0.08810750  0.89936491  1
  H+  H325  1  0.83286013  0.90908011  0.39713711  1
  H+  H326  1  0.07541469  0.27352239  1.00410801  1
  H+  H327  1  0.39023789  0.86599508  0.66313742  1
  H+  H328  1  0.27635154  0.87515004  0.35444195  1
  H+  H329  1  0.32040530  0.65769118  0.08415923  1
  H+  H330  1  0.67889687  0.10908938  0.89531234  1
  H+  H331  1  0.64141968  0.11565695  0.99652383  1
  H+  H332  1  0.83721026  0.92190464  0.72719334  1
  H+  H333  1  0.58573359  0.67436752  0.05601121  1
  H+  H334  1  0.90528339  0.43388029  0.94269607  1
  H+  H335  1  0.87328420  0.82598462  0.94383931  1
  H+  H336  1  0.58156483  0.91046486  0.73311468  1
  H+  H337  1  0.91863712  0.16149234  0.18846157  1
  H+  H338  1  0.91035883  0.58710515  0.22734426  1
  H+  H339  1  0.19276103  0.86649296  0.26327392  1
  H+  H340  1  0.83958673  0.16837967  0.76226781  1
  H+  H341  1  0.91575956  0.83441485  0.23128154  1
  H+  H342  1  0.16511163  0.58649614  0.22090464  1
  H+  H343  1  0.83512479  0.92932786  0.07154330  1
  H+  H344  1  0.93014005  0.58071921  0.56630320  1
  H+  H345  1  0.34565873  0.41847598  0.73263323  1
  H+  H346  1  0.16919075  0.32070615  0.59626984  1
  H+  H347  1  0.16381261  0.30683061  0.27109315  1
  H+  H348  1  0.41970793  0.58246910  0.88392341  1
  H+  H349  1  0.43119310  0.34766397  0.23729737  1
  H+  H350  1  0.58282229  0.42283802  0.43345072  1
  H+  H351  1  0.92175703  0.09866529  0.57251143  1
  H+  H352  1  0.06908798  0.41467622  0.09765771  1
  H+  H353  1  0.35828754  0.69276797  0.43182618  1
  H+  H354  1  0.66711908  0.57775997  0.50858986  1
  H+  H355  1  0.16428367  0.08562529  0.89662714  1
  H+  H356  1  0.66208283  0.07569830  0.60127979  1
  H+  H357  1  0.92153342  0.36731989  0.25488964  1
  H+  H358  1  0.08553901  0.41810579  0.39293596  1
  H+  H359  1  0.93901441  0.07963567  0.24795184  1
  H+  H360  1  0.84314556  0.67048352  0.40152478  1
  H+  H361  1  0.89522142  0.31158439  0.58396916  1
  H+  H362  1  0.14599451  0.68427692  0.71825902  1
  H+  H363  1  0.59187552  0.16854623  0.11353260  1
  H+  H364  1  0.57964048  0.43243627  0.06445567  1
  H+  H365  1  0.77480925  0.90685356  0.81678380  1
  H+  H366  1  0.42246132  0.84073215  0.56935958  1
  H+  H367  1  0.42099159  0.34952950  0.58538627  1
  H+  H368  1  0.59745395  0.92268319  0.06509253  1
  H+  H369  1  0.41098875  0.82813297  0.89454494  1
  H+  H370  1  0.83017311  0.42741694  0.42995875  1
  H+  H371  1  0.55287533  0.56258479  0.10251602  1
  H+  H372  1  0.57950640  0.90561344  0.40030087  1
  H+  H373  1  0.06008511  0.93219907  0.05955271  1
  H+  H374  1  0.41834758  0.81935129  0.22534990  1
  H+  H375  1  0.33688997  0.67186233  0.72670735  1
  H+  H376  1  0.09298318  0.48249766  0.15087871  1
  H+  H377  1  0.57471958  0.16247840  0.72342857  1
  H+  H378  1  0.39314792  0.36736001  0.32998610  1
  H+  H379  1  0.08800673  0.65970489  0.43519170  1
  H+  H380  1  0.88665854  0.52118838  0.96380368  1
  H+  H381  1  0.81179760  0.13635683  0.41690255  1
  H+  H382  1  0.67871071  0.85050019  0.24246327  1
  H+  H383  1  0.42116600  0.35282679  0.88310427  1
  O2-  O384  1  -0.03442458  0.15194209  0.17225755  1
  O2-  O385  1  0.09564419  0.16553785  0.48080081  1
  O2-  O386  1  0.09041428  0.17209083  0.83219192  1
  O2-  O387  1  0.05365153  0.42165372  0.13943543  1
  O2-  O388  1  0.10448710  0.42600838  0.47831455  1
  O2-  O389  1  0.08570788  0.44454154  0.78886805  1
  O2-  O390  1  0.07977896  0.67457882  0.14044331  1
  O2-  O391  1  0.09302584  0.66427221  0.48048859  1
  O2-  O392  1  0.05339067  0.70178008  0.82164860  1
  O2-  O393  1  0.07763425  0.93564252  0.13776948  1
  O2-  O394  1  0.08518466  0.91550511  0.48166718  1
  O2-  O395  1  0.15335955  0.96570029  0.79770762  1
  O2-  O396  1  0.33913310  0.16642447  0.21029982  1
  O2-  O397  1  0.34314767  0.17221200  0.47358416  1
  O2-  O398  1  0.34204409  0.17459438  0.81219956  1
  O2-  O399  1  0.29885659  0.37063226  0.14866319  1
  O2-  O400  1  0.33976174  0.41373309  0.47140364  1
  O2-  O401  1  0.35452667  0.42681927  0.79502520  1
  O2-  O402  1  0.32381257  0.65774729  0.12915182  1
  O2-  O403  1  0.34902694  0.68494721  0.47596141  1
  O2-  O404  1  0.33285644  0.66358215  0.79785709  1
  O2-  O405  1  0.34921841  0.91923202  0.14365895  1
  O2-  O406  1  0.33951352  0.92224555  0.47783032  1
  O2-  O407  1  0.33700406  0.92488502  0.80831468  1
  O2-  O408  1  0.59328778  0.16933895  0.15872809  1
  O2-  O409  1  0.58347723  0.15821897  0.49341594  1
  O2-  O410  1  0.58890984  0.17973499  0.79850299  1
  O2-  O411  1  0.58986234  0.41990218  0.14548079  1
  O2-  O412  1  0.57552566  0.41774567  0.47839665  1
  O2-  O413  1  0.58067613  0.42478865  0.78833907  1
  O2-  O414  1  0.56077803  0.61329345  0.12431264  1
  O2-  O415  1  0.58623438  0.65607764  0.48000331  1
  O2-  O416  1  0.55861322  0.72384446  0.79465514  1
  O2-  O417  1  0.59262633  0.91791496  0.14635877  1
  O2-  O418  1  0.58031311  0.90893073  0.47876472  1
  O2-  O419  1  0.58767674  0.93442109  0.84856374  1
  O2-  O420  1  0.84055690  0.17659526  0.21942471  1
  O2-  O421  1  0.80767020  0.14096400  0.46316175  1
  O2-  O422  1  0.84486444  0.17439889  0.80749682  1
  O2-  O423  1  0.78423090  0.40069564  0.16109937  1
  O2-  O424  1  0.82628392  0.41990833  0.47496896  1
  O2-  O425  1  0.82988005  0.40606513  0.80240344  1
  O2-  O426  1  0.83319668  0.67289018  0.14419479  1
  O2-  O427  1  0.85637372  0.67566845  0.47254855  1
  O2-  O428  1  0.86938011  0.63444620  0.80193511  1
  O2-  O429  1  0.83435812  0.92312761  0.15238186  1
  O2-  O430  1  0.83537611  0.91478265  0.47622379  1
  O2-  O431  1  0.83491743  0.93016783  0.80157599  1
  O2-  O432  1  0.16731752  0.09347810  0.20114826  1
  O2-  O433  1  0.17788011  0.08360380  0.51799691  1
  O2-  O434  1  0.16842534  0.09657186  0.85055085  1
  O2-  O435  1  0.14446088  0.23324919  0.20083153  1
  O2-  O436  1  0.17582466  0.32936698  0.52044912  1
  O2-  O437  1  0.15870223  0.29498121  0.91498699  1
  O2-  O438  1  0.16052647  0.58889655  0.17589706  1
  O2-  O439  1  0.18411607  0.58779244  0.50784539  1
  O2-  O440  1  0.13481201  0.59711178  0.85979610  1
  O2-  O441  1  0.17441672  0.84924675  0.11752844  1
  O2-  O442  1  0.17127462  0.83260162  0.52018369  1
  O2-  O443  1  0.17809438  0.85581457  0.87034613  1
  O2-  O444  1  0.42105764  0.07193041  0.20707990  1
  O2-  O445  1  0.40642675  0.07789305  0.52596832  1
  O2-  O446  1  0.42987293  0.09344323  0.84702080  1
  O2-  O447  1  0.42836728  0.33802662  0.19219868  1
  O2-  O448  1  0.41805432  0.33479333  0.51698677  1
  O2-  O449  1  0.41922798  0.34247681  0.83929161  1
  O2-  O450  1  0.40122721  0.55649019  0.15008349  1
  O2-  O451  1  0.41562292  0.57279591  0.50336962  1
  O2-  O452  1  0.41951505  0.58455181  0.83904828  1
  O2-  O453  1  0.42279610  0.82482733  0.18022135  1
  O2-  O454  1  0.42113378  0.84163493  0.52389627  1
  O2-  O455  1  0.41024600  0.83243738  0.84969110  1
  O2-  O456  1  0.66789550  0.07594756  0.19541911  1
  O2-  O457  1  0.65576580  0.06997901  0.52574170  1
  O2-  O458  1  0.68015858  0.10921568  0.84993889  1
  O2-  O459  1  0.69521902  0.34773701  0.18316987  1
  O2-  O460  1  0.65831216  0.33162313  0.51381163  1
  O2-  O461  1  0.66994757  0.34819207  0.84112948  1
  O2-  O462  1  0.67197136  0.58322368  0.19173541  1
  O2-  O463  1  0.68043231  0.58440706  0.46459050  1
  O2-  O464  1  0.73222109  0.64607518  0.85499741  1
  O2-  O465  1  0.68245434  0.85488411  0.19390716  1
  O2-  O466  1  0.66664190  0.83132084  0.52027546  1
  O2-  O467  1  0.67557854  0.85794903  0.84986042  1
  O2-  O468  1  0.94714230  0.07156863  0.20234563  1
  O2-  O469  1  0.93048662  0.12009380  0.52889567  1
  O2-  O470  1  0.92553703  0.09157430  0.85366312  1
  O2-  O471  1  0.90108284  0.34748971  0.18542973  1
  O2-  O472  1  0.87983739  0.30163926  0.50250760  1
  O2-  O473  1  0.93357193  0.34033616  0.84244674  1
  O2-  O474  1  0.90329255  0.57661592  0.18275261  1
  O2-  O475  1  0.92942829  0.58207220  0.52130064  1
  O2-  O476  1  0.88992698  0.49609861  0.81896710  1
  O2-  O477  1  0.91487831  0.83759663  0.18579770  1
  O2-  O478  1  0.91968584  0.84092440  0.52013519  1
  O2-  O479  1  0.81577324  0.80866028  0.88834503  1
  O2-  O480  1  0.16506397  0.06715920  0.32248909  1
  O2-  O481  1  0.16324882  0.08315888  0.63948234  1
  O2-  O482  1  0.15864588  0.08084098  0.96722197  1
  O2-  O483  1  0.18988660  0.35697661  0.29834948  1
  O2-  O484  1  0.16323693  0.31383686  0.64183170  1
  O2-  O485  1  0.08668328  0.30982982  1.04076373  1
  O2-  O486  1  0.16834046  0.58158633  0.30033717  1
  O2-  O487  1  0.18221919  0.59737589  0.63151773  1
  O2-  O488  1  0.14287091  0.55424363  0.97846809  1
  O2-  O489  1  0.17496478  0.82674055  0.37193159  1
  O2-  O490  1  0.17737593  0.84327197  0.64261850  1
  O2-  O491  1  0.18747171  0.89683418  0.99474153  1
  O2-  O492  1  0.41586915  0.07311034  0.32926337  1
  O2-  O493  1  0.41435129  0.07508645  0.63960782  1
  O2-  O494  1  0.45476263  0.10326746  0.97019693  1
  O2-  O495  1  0.42778293  0.34034260  0.31536863  1
  O2-  O496  1  0.42410994  0.35543653  0.63243940  1
  O2-  O497  1  0.45168739  0.44974090  0.95472626  1
  O2-  O498  1  0.42472011  0.58559438  0.31258362  1
  O2-  O499  1  0.42551753  0.58752677  0.65496759  1
  O2-  O500  1  0.42888546  0.58821354  0.96788194  1
  O2-  O501  1  0.41587120  0.81705834  0.30897307  1
  O2-  O502  1  0.42200521  0.83798433  0.64801223  1
  O2-  O503  1  0.43979140  0.83433551  0.97585952  1
  O2-  O504  1  0.66336659  0.07685095  0.31633676  1
  O2-  O505  1  0.66261235  0.07982369  0.64719280  1
  O2-  O506  1  0.67091819  0.08814731  0.97540363  1
  O2-  O507  1  0.67927791  0.34596031  0.29952245  1
  O2-  O508  1  0.64880686  0.32789241  0.63781999  1
  O2-  O509  1  0.62797794  0.33915135  0.96244395  1
  O2-  O510  1  0.67617799  0.58699892  0.31665237  1
  O2-  O511  1  0.68410829  0.58777777  0.62059936  1
  O2-  O512  1  0.67645405  0.59562386  0.97806382  1
  O2-  O513  1  0.67296711  0.83951996  0.30681825  1
  O2-  O514  1  0.66945270  0.82903331  0.64576910  1
  O2-  O515  1  0.68040625  0.85206112  0.97430989  1
  O2-  O516  1  0.92263424  0.07713887  0.31731311  1
  O2-  O517  1  0.91960816  0.08098138  0.64548831  1
  O2-  O518  1  0.91507273  0.08728465  0.97489664  1
  O2-  O519  1  0.92349736  0.36700453  0.30178395  1
  O2-  O520  1  0.90382108  0.31308611  0.62858677  1
  O2-  O521  1  0.94479202  0.34615490  0.96647367  1
  O2-  O522  1  0.94237075  0.63688507  0.29910609  1
  O2-  O523  1  0.94097137  0.58939905  0.64734550  1
  O2-  O524  1  0.90108102  0.57375772  0.99944630  1
  O2-  O525  1  0.91544282  0.83191428  0.30993024  1
  O2-  O526  1  0.92190764  0.83404298  0.64436450  1
  O2-  O527  1  0.90021020  0.83338215  0.98627371  1
  O2-  O528  1  0.08124820  0.16951090  0.02167477  1
  O2-  O529  1  0.08499530  0.15244640  0.36595645  1
  O2-  O530  1  0.08584886  0.16192640  0.67297520  1
  O2-  O531  1  0.09599870  0.39167963  0.02029073  1
  O2-  O532  1  0.08549718  0.42013034  0.34807110  1
  O2-  O533  1  0.07320699  0.38367348  0.67036803  1
  O2-  O534  1  0.07296138  0.64703840  0.01363159  1
  O2-  O535  1  0.08469995  0.65137581  0.35819998  1
  O2-  O536  1  0.10252819  0.69227786  0.69752071  1
  O2-  O537  1  0.06022238  0.92838461  0.01421408  1
  O2-  O538  1  0.07487164  0.90261243  0.35824022  1
  O2-  O539  1  0.08895664  0.91707135  0.68088371  1
  O2-  O540  1  0.29405721  0.06424204  0.00847783  1
  O2-  O541  1  0.34074121  0.16111967  0.33458356  1
  O2-  O542  1  0.31544714  0.15245725  0.68927097  1
  O2-  O543  1  0.25006456  0.34779528  0.02508500  1
  O2-  O544  1  0.34317914  0.41777275  0.34892093  1
  O2-  O545  1  0.34069114  0.41526160  0.68261257  1
  O2-  O546  1  0.30284133  0.62781117  0.00274291  1
  O2-  O547  1  0.32911720  0.63919998  0.35119092  1
  O2-  O548  1  0.34212412  0.67786023  0.68037491  1
  O2-  O549  1  0.41829333  0.96364416  0.02816100  1
  O2-  O550  1  0.34121820  0.90425818  0.35441360  1
  O2-  O551  1  0.33760958  0.92857932  0.68641724  1
  O2-  O552  1  0.60181804  0.17287018  0.03248420  1
  O2-  O553  1  0.59425058  0.18572366  0.32921333  1
  O2-  O554  1  0.56962434  0.15580275  0.67763084  1
  O2-  O555  1  0.57457763  0.43945683  0.02001668  1
  O2-  O556  1  0.59196065  0.42218237  0.35304628  1
  O2-  O557  1  0.57850183  0.42688591  0.67090660  1
  O2-  O558  1  0.59286821  0.68788629  0.01170144  1
  O2-  O559  1  0.58940583  0.66603724  0.35390850  1
  O2-  O560  1  0.58313030  0.65820785  0.68095914  1
  O2-  O561  1  0.59760070  0.92447844  0.01971643  1
  O2-  O562  1  0.58210589  0.90723348  0.35472400  1
  O2-  O563  1  0.58256538  0.91208629  0.68880161  1
  O2-  O564  1  0.83453966  0.17799724  0.01340763  1
  O2-  O565  1  0.83388319  0.14955235  0.34415715  1
  O2-  O566  1  0.83074456  0.15711138  0.68371946  1
  O2-  O567  1  0.87351925  0.46109578  -0.07293685  1
  O2-  O568  1  0.84044179  0.44124023  0.35112469  1
  O2-  O569  1  0.79622018  0.35022452  0.69232855  1
  O2-  O570  1  0.83375680  0.66923276  0.01949683  1
  O2-  O571  1  0.83919666  0.67067051  0.35512898  1
  O2-  O572  1  0.83987721  0.66562438  0.67806872  1
  O2-  O573  1  0.83595009  0.92924970  0.02632672  1
  O2-  O574  1  0.83161718  0.91016976  0.35177191  1
  O2-  O575  1  0.83795976  0.91880668  0.68127902  1
