# generated using pymatgen
data_H2O
_symmetry_space_group_name_H-M   'P 1'
_cell_length_a   17.99828868
_cell_length_b   17.99774626
_cell_length_c   22.01366483
_cell_angle_alpha   90.00991965
_cell_angle_beta   89.99142489
_cell_angle_gamma   119.99754773
_symmetry_Int_Tables_number   1
_chemical_formula_structural   H2O
_chemical_formula_sum   'H384 O192'
_cell_volume   6175.65523536
_cell_formula_units_Z   192
loop_
 _symmetry_equiv_pos_site_id
 _symmetry_equiv_pos_as_xyz
  1  'x, y, z'
loop_
 _atom_type_symbol
 _atom_type_oxidation_number
  H+  1.0
  O2-  -2.0
loop_
 _atom_site_type_symbol
 _atom_site_label
 _atom_site_symmetry_multiplicity
 _atom_site_fract_x
 _atom_site_fract_y
 _atom_site_fract_z
 _atom_site_occupancy
  H+  H0  1  0.60823093  0.18487637  0.81106705  1
  H+  H1  1  0.36864123  0.65077522  0.49735830  1
  H+  H2  1  0.99505690  0.36211873  0.68375071  1
  H+  H3  1  0.56863843  0.60446102  0.47959906  1
  H+  H4  1  0.15795087  0.29040093  0.18902191  1
  H+  H5  1  0.86597988  0.09020703  0.16996430  1
  H+  H6  1  0.27068423  0.89639314  0.66786490  1
  H+  H7  1  0.10012129  0.45640433  0.01502945  1
  H+  H8  1  0.87331537  0.34793220  0.84324448  1
  H+  H9  1  0.11078601  0.45764666  0.33886219  1
  H+  H10  1  0.73446291  0.39048488  -0.00128154  1
  H+  H11  1  0.51785117  0.39037597  0.49281157  1
  H+  H12  1  0.86989488  0.72916783  0.15739528  1
  H+  H13  1  0.85156706  0.21506182  0.01503149  1
  H+  H14  1  0.85527511  0.11932554  0.79292711  1
  H+  H15  1  0.62571776  0.02338534  0.99060800  1
  H+  H16  1  0.23011156  0.62391703  0.50063556  1
  H+  H17  1  0.26926906  0.88346997  0.35529974  1
  H+  H18  1  0.77797417  0.87918018  0.14058837  1
  H+  H19  1  0.78168717  0.39066318  0.35592364  1
  H+  H20  1  0.08158191  0.17627337  0.12991331  1
  H+  H21  1  0.13656036  0.35481733  0.69353747  1
  H+  H22  1  0.79537289  0.89301136  0.49590004  1
  H+  H23  1  0.02899333  0.88669944  0.15780408  1
  H+  H24  1  0.53787245  0.87257805  0.49497795  1
  H+  H25  1  0.67170726  0.63776793  0.52363305  1
  H+  H26  1  0.47113765  0.83412626  0.83795453  1
  H+  H27  1  0.16769078  0.56897628  0.27130637  1
  H+  H28  1  0.89565861  0.36717955  0.50618681  1
  H+  H29  1  0.77202497  0.63879100  0.00433972  1
  H+  H30  1  0.11560582  0.38522275  0.49379950  1
  H+  H31  1  0.52262042  0.63644904  0.00320552  1
  H+  H32  1  0.36937445  0.52220537  0.32210518  1
  H+  H33  1  0.59727340  0.62201204  0.67346884  1
  H+  H34  1  0.38758916  0.85708783  0.17270553  1
  H+  H35  1  0.39774507  0.11470655  0.83312307  1
  H+  H36  1  0.88728848  0.12307329  0.51205914  1
  H+  H37  1  0.82467522  0.15522516  0.10484394  1
  H+  H38  1  1.00498560  0.37397958  0.83725811  1
  H+  H39  1  0.03309344  0.64126657  0.16334715  1
  H+  H40  1  0.12411380  0.01478294  0.99361271  1
  H+  H41  1  0.38284701  0.27565775  0.49694775  1
  H+  H42  1  0.17330414  0.60250180  0.92671025  1
  H+  H43  1  0.51453082  0.88550388  0.34166035  1
  H+  H44  1  0.38116943  0.85851729  0.33341905  1
  H+  H45  1  0.40141872  0.31101132  0.59290995  1
  H+  H46  1  0.12074761  0.89768456  0.66759973  1
  H+  H47  1  0.36240002  0.71627908  0.16465237  1
  H+  H48  1  0.56810411  0.65803603  0.39645689  1
  H+  H49  1  0.86385084  0.48464204  0.00050779  1
  H+  H50  1  0.72104785  0.10698390  0.17396753  1
  H+  H51  1  0.58820208  0.20589445  0.50318066  1
  H+  H52  1  0.64050294  0.10846679  0.65349554  1
  H+  H53  1  0.97017931  0.10812185  0.31595391  1
  H+  H54  1  0.59228666  0.12999137  -0.00497046  1
  H+  H55  1  0.47892717  0.35769736  0.84227833  1
  H+  H56  1  0.61356300  0.13159813  0.15885238  1
  H+  H57  1  0.87133797  0.85760622  0.34003253  1
  H+  H58  1  0.07978534  0.40273133  0.76709756  1
  H+  H59  1  0.60834540  0.95593925  0.82330086  1
  H+  H60  1  0.66189749  0.86922004  0.47265711  1
  H+  H61  1  0.88530975  0.77404230  0.98719839  1
  H+  H62  1  0.81385917  0.39281450  0.15427360  1
  H+  H63  1  0.38740670  0.36678401  0.50090519  1
  H+  H64  1  0.13435675  0.46505033  0.70953334  1
  H+  H65  1  0.19000676  0.33202651  0.54284106  1
  H+  H66  1  0.89008863  0.86547283  0.16433497  1
  H+  H67  1  0.67423694  0.36197188  0.19581974  1
  H+  H68  1  0.14327517  1.02037040  0.16676353  1
  H+  H69  1  0.37865689  0.03351038  0.65947120  1
  H+  H70  1  0.34670169  0.62173819  0.82145027  1
  H+  H71  1  0.90256320  0.35336882  0.17895970  1
  H+  H72  1  0.72975649  0.38004966  0.84362423  1
  H+  H73  1  0.12414286  0.22995225  0.31393930  1
  H+  H74  1  0.22453616  0.60132631  0.33217172  1
  H+  H75  1  -0.02642723  0.61075649  0.32566178  1
  H+  H76  1  0.48603399  0.61625085  0.17952793  1
  H+  H77  1  0.85896971  0.88354763  0.99509274  1
  H+  H78  1  0.63732004  0.87402174  0.16436275  1
  H+  H79  1  0.47073692  0.11736830  0.65409807  1
  H+  H80  1  0.91643484  0.11183307  0.90644228  1
  H+  H81  1  0.86061939  0.22275955  0.34138398  1
  H+  H82  1  0.86549151  0.91947798  0.82911140  1
  H+  H83  1  0.61912359  0.39514484  0.81948910  1
  H+  H84  1  0.52330745  0.87583180  0.00595532  1
  H+  H85  1  0.16605990  0.84239711  0.27065244  1
  H+  H86  1  0.61146483  0.72653915  0.00302609  1
  H+  H87  1  0.12166309  0.50708470  0.84362738  1
  H+  H88  1  0.37857346  0.10097629  0.33458509  1
  H+  H89  1  0.14726183  0.13112859  0.83832435  1
  H+  H90  1  1.02266201  0.65134223  0.67935434  1
  H+  H91  1  0.66037620  0.58054169  0.93151024  1
  H+  H92  1  0.75103928  0.86503770  0.32988565  1
  H+  H93  1  0.86454056  0.64004050  0.67652383  1
  H+  H94  1  0.93085768  0.83602019  0.61229337  1
  H+  H95  1  0.31996771  0.40758988  1.05585689  1
  H+  H96  1  0.90070599  0.82651190  0.82002095  1
  H+  H97  1  0.12533259  -0.00283952  0.66831939  1
  H+  H98  1  0.89440885  0.61507111  0.17017333  1
  H+  H99  1  0.85628436  0.20796986  0.16818507  1
  H+  H100  1  0.88743710  0.02430915  0.98997045  1
  H+  H101  1  0.72857109  0.87201817  0.84512200  1
  H+  H102  1  0.80388185  0.38301849  0.68593756  1
  H+  H103  1  0.21686307  0.62173778  0.65590955  1
  H+  H104  1  0.11209809  0.23647369  0.83538292  1
  H+  H105  1  0.14013781  0.60743347  0.17657576  1
  H+  H106  1  0.91903335  0.58402537  0.23105374  1
  H+  H107  1  0.19672911  0.36787103  0.86260930  1
  H+  H108  1  0.77619205  0.64450737  0.33890119  1
  H+  H109  1  0.10853039  0.61364692  0.82618100  1
  H+  H110  1  0.35914521  0.96689304  0.36378509  1
  H+  H111  1  0.10797422  0.73329530  0.00820342  1
  H+  H112  1  0.37602159  0.22455205  0.82155454  1
  H+  H113  1  0.73192498  0.86321735  0.65117775  1
  H+  H114  1  0.97330741  0.11436130  1.00279396  1
  H+  H115  1  0.61250267  0.48626423  0.81655437  1
  H+  H116  1  0.60797054  0.21856778  0.15479465  1
  H+  H117  1  0.12561734  -0.00055090  0.82664169  1
  H+  H118  1  0.37472931  0.51369212  0.65260615  1
  H+  H119  1  0.36229580  0.21353583  0.33053621  1
  H+  H120  1  0.27437386  0.62634844  0.16551749  1
  H+  H121  1  0.86952621  0.97735858  0.67097300  1
  H+  H122  1  0.40226454  0.53086406  0.83362990  1
  H+  H123  1  0.67357408  0.32198740  0.46278477  1
  H+  H124  1  0.39298180  0.76867535  0.00142348  1
  H+  H125  1  0.37571642  0.27272014  0.16221487  1
  H+  H126  1  0.60854608  0.48018589  0.49576624  1
  H+  H127  1  0.09293803  0.93439737  0.77070100  1
  H+  H128  1  0.61222476  0.75380747  0.32715038  1
  H+  H129  1  0.11036443  0.14145728  0.49077787  1
  H+  H130  1  0.64526231  0.02156576  0.50128243  1
  H+  H131  1  0.10070602  0.36838043  0.01135220  1
  H+  H132  1  0.13248990  0.79244201  0.33396397  1
  H+  H133  1  0.14289382  0.77510656  0.17848412  1
  H+  H134  1  0.36014573  0.96762129  0.00087756  1
  H+  H135  1  0.52018360  0.12958812  0.34948022  1
  H+  H136  1  0.35498119  0.22729106  0.99650768  1
  H+  H137  1  0.31196166  0.65247028  0.73076344  1
  H+  H138  1  0.48113976  0.11300111  0.15568522  1
  H+  H139  1  0.27403992  0.39671225  0.15021691  1
  H+  H140  1  0.58527596  0.42413735  0.39762209  1
  H+  H141  1  0.10016265  0.98140303  0.33459321  1
  H+  H142  1  0.11075326  0.64725146  0.00584386  1
  H+  H143  1  0.78125266  0.64124898  0.15886619  1
  H+  H144  1  0.36474891  0.97212411  0.15451375  1
  H+  H145  1  0.45671912  0.84658896  0.64766296  1
  H+  H146  1  0.61019106  0.13025713  0.34754752  1
  H+  H147  1  0.35548940  -0.02756839  0.82488075  1
  H+  H148  1  0.13487913  0.51538575  0.17721324  1
  H+  H149  1  0.38128474  0.36418147  0.99290868  1
  H+  H150  1  0.63419739  0.38868710  0.99973544  1
  H+  H151  1  0.63370155  0.60953028  0.83425275  1
  H+  H152  1  0.33857816  0.62236592  0.66924802  1
  H+  H153  1  0.45716197  0.60637891  0.64938638  1
  H+  H154  1  0.10135846  0.22610932  1.02128880  1
  H+  H155  1  1.02431851  0.88346872  1.00440711  1
  H+  H156  1  0.39094014  0.61050913  0.99552475  1
  H+  H157  1  0.22650121  0.69440507  0.95291258  1
  H+  H158  1  0.62898966  0.73931736  0.83952994  1
  H+  H159  1  0.56802524  0.15833828  0.05583751  1
  H+  H160  1  0.33361507  0.90970952  0.06124537  1
  H+  H161  1  0.63420552  0.08705637  0.82573359  1
  H+  H162  1  0.61757046  0.38993895  0.34284680  1
  H+  H163  1  0.84712807  0.69405904  0.83588803  1
  H+  H164  1  0.26280343  0.14204155  -0.00592943  1
  H+  H165  1  0.60868388  -0.02386864  0.15946911  1
  H+  H166  1  0.27358376  0.38885595  0.47316288  1
  H+  H167  1  0.90026561  0.87351574  0.66853029  1
  H+  H168  1  0.59126183  0.37314554  0.66664505  1
  H+  H169  1  0.22131985  0.86624930  0.84262738  1
  H+  H170  1  0.89735214  0.53181962  0.66582116  1
  H+  H171  1  0.88395528  1.01980932  0.33207083  1
  H+  H172  1  0.01524888  0.62008547  0.82956732  1
  H+  H173  1  0.88306593  0.52702128  0.32961069  1
  H+  H174  1  0.87701857  0.21796149  0.72034449  1
  H+  H175  1  0.26966714  0.12672222  0.32975347  1
  H+  H176  1  0.88747372  0.60175758  0.84098824  1
  H+  H177  1  0.35288915  0.46668415  -0.00368832  1
  H+  H178  1  0.85705210  0.13169617  0.34128014  1
  H+  H179  1  0.78424871  0.63376596  0.49920042  1
  H+  H180  1  0.61588622  0.88581988  0.66729876  1
  H+  H181  1  0.63506848  0.10462422  0.50494516  1
  H+  H182  1  0.97783229  0.87346002  0.33750052  1
  H+  H183  1  0.02686442  0.14710220  0.83363646  1
  H+  H184  1  0.65995890  0.78051926  0.47411824  1
  H+  H185  1  0.62213678  0.73351340  0.15533761  1
  H+  H186  1  0.14634574  0.32506016  0.62886976  1
  H+  H187  1  0.35597902  0.38711442  0.14431837  1
  H+  H188  1  0.13653476  0.11168289  0.30920730  1
  H+  H189  1  0.60547458  0.21931073  0.66679246  1
  H+  H190  1  0.39106314  0.85694804  -0.00530692  1
  H+  H191  1  0.13320528  0.14706583  0.17224091  1
  H+  H192  1  0.13351906  0.77412660  0.50873888  1
  H+  H193  1  0.52154174  0.88365192  0.16045378  1
  H+  H194  1  0.89201217  0.03716754  0.52187523  1
  H+  H195  1  0.62245283  0.50791844  0.15816632  1
  H+  H196  1  0.38585677  0.77784510  0.54768245  1
  H+  H197  1  0.41703634  0.58754129  0.26732382  1
  H+  H198  1  0.29052473  0.13908943  0.81215502  1
  H+  H199  1  0.93040872  0.32284023  0.62750649  1
  H+  H200  1  0.48225019  0.62539593  0.83702749  1
  H+  H201  1  0.64186892  0.52963122  0.32468993  1
  H+  H202  1  0.37601207  0.52531980  0.49524163  1
  H+  H203  1  0.89941208  0.61733068  0.50948404  1
  H+  H204  1  0.26704803  0.88019132  0.51047662  1
  H+  H205  1  0.72340634  0.08844681  0.83762473  1
  H+  H206  1  0.50147574  0.36907015  0.67273247  1
  H+  H207  1  0.61623576  0.97332930  0.67357333  1
  H+  H208  1  0.38733364  0.33957725  0.35193797  1
  H+  H209  1  0.02678614  0.88621088  0.49906537  1
  H+  H210  1  0.87828400  0.35499379  0.98902138  1
  H+  H211  1  0.63573066  0.29724969  0.85626007  1
  H+  H212  1  0.63334896  0.86097266  0.84136218  1
  H+  H213  1  0.11500371  0.88532818  0.00349762  1
  H+  H214  1  0.64212407  0.77921848  0.64860481  1
  H+  H215  1  0.10420493  0.14044213  0.03016896  1
  H+  H216  1  0.37375545  0.10089244  -0.01570044  1
  H+  H217  1  0.67729835  0.07941475  0.60009637  1
  H+  H218  1  0.35579634  0.42125358  0.75697140  1
  H+  H219  1  0.13497946  0.26726409  0.48966845  1
  H+  H220  1  0.72062571  0.11019721  0.33032682  1
  H+  H221  1  0.86594857  0.64406891  0.33817281  1
  H+  H222  1  -0.02291840  0.10965492  0.66923205  1
  H+  H223  1  0.88472096  0.26550934  0.49713916  1
  H+  H224  1  0.36660142  0.76268778  0.65497979  1
  H+  H225  1  0.13635866  0.02867588  0.50608845  1
  H+  H226  1  0.89716621  0.85942251  0.52515515  1
  H+  H227  1  0.36955103  -0.00794018  0.51516089  1
  H+  H228  1  0.27657867  0.88429719  0.16133055  1
  H+  H229  1  0.60040160  0.88068915  0.33993292  1
  H+  H230  1  0.46335922  0.09173116  0.51107097  1
  H+  H231  1  0.39431684  0.60886995  0.17709524  1
  H+  H232  1  0.14756978  0.37342695  0.18638027  1
  H+  H233  1  0.63372096  0.26135565  0.34321879  1
  H+  H234  1  0.14145568  0.86335188  0.17491902  1
  H+  H235  1  0.51371780  0.39133942  0.00617299  1
  H+  H236  1  0.98715719  0.36244604  0.50210686  1
  H+  H237  1  0.12046767  0.64280758  0.48504833  1
  H+  H238  1  0.73503959  0.87435995  -0.00696204  1
  H+  H239  1  0.13680829  0.87216934  0.84820025  1
  H+  H240  1  0.88275241  0.76957256  0.33689666  1
  H+  H241  1  0.89560187  0.76933860  0.51820605  1
  H+  H242  1  0.28250058  0.63760829  1.01066925  1
  H+  H243  1  0.50923234  0.62370361  0.33717487  1
  H+  H244  1  0.29859449  0.39279805  0.81508104  1
  H+  H245  1  0.50664507  0.63863110  0.49192393  1
  H+  H246  1  0.58923769  0.39908780  0.15673484  1
  H+  H247  1  0.70385858  0.37147290  0.63688040  1
  H+  H248  1  0.64459362  0.62558631  0.17099174  1
  H+  H249  1  0.35938737  0.37354785  0.66561386  1
  H+  H250  1  0.09999266  0.89243098  0.33704491  1
  H+  H251  1  0.89290040  0.36162488  0.33416136  1
  H+  H252  1  0.39718648  0.32681785  0.22244196  1
  H+  H253  1  0.85953223  0.47268155  0.83902874  1
  H+  H254  1  0.63395834  0.61662595  0.98960034  1
  H+  H255  1  0.85921499  0.13152333  1.01579042  1
  H+  H256  1  0.51228641  0.10787639  0.81898466  1
  H+  H257  1  0.72211247  0.60846093  0.67027142  1
  H+  H258  1  0.63103464  0.02135665  0.33006211  1
  H+  H259  1  0.12798343  0.78740445  0.66776275  1
  H+  H260  1  0.60379641  0.48495344  0.00253801  1
  H+  H261  1  0.22415166  0.86007127  0.99339043  1
  H+  H262  1  0.09641171  0.36731165  0.84670622  1
  H+  H263  1  0.13780840  0.11814389  0.66650829  1
  H+  H264  1  0.87171673  0.13187921  0.69783851  1
  H+  H265  1  0.11910132  0.54717576  0.64412190  1
  H+  H266  1  0.88516352  0.48893152  0.50445876  1
  H+  H267  1  0.71634066  0.59611395  0.83389384  1
  H+  H268  1  0.88699204  0.61875271  0.99169977  1
  H+  H269  1  0.16939745  0.07267120  0.25924518  1
  H+  H270  1  0.02503479  0.14720969  0.49623398  1
  H+  H271  1  0.63457101  0.87415987  0.99797151  1
  H+  H272  1  0.38320135  0.77157785  0.32858066  1
  H+  H273  1  0.35566324  0.89066023  0.66314277  1
  H+  H274  1  -0.00986900  0.62109355  0.50807899  1
  H+  H275  1  0.97946048  0.35500754  0.33353507  1
  H+  H276  1  0.27048744  0.14889249  0.48776106  1
  H+  H277  1  0.63278462  0.51776078  0.66548461  1
  H+  H278  1  0.36159729  0.63820603  0.34194646  1
  H+  H279  1  0.02473673  0.89960837  0.67146221  1
  H+  H280  1  0.13490388  0.86429714  0.50835654  1
  H+  H281  1  0.11053797  0.21690922  0.68719642  1
  H+  H282  1  0.16743034  0.59764112  0.55679738  1
  H+  H283  1  0.47865071  0.36003323  0.33024799  1
  H+  H284  1  0.36425087  0.14009369  0.13931320  1
  H+  H285  1  0.10451465  0.68202555  0.29996323  1
  H+  H286  1  0.39482130  0.36277394  0.83765845  1
  H+  H287  1  0.83544905  0.98923384  0.81680979  1
  H+  H288  1  0.40305786  0.04495974  0.29045366  1
  H+  H289  1  0.07889911  0.40264142  0.10986657  1
  H+  H290  1  0.41924865  0.10584874  0.20872245  1
  H+  H291  1  0.08738802  0.91269578  0.09827967  1
  H+  H292  1  0.08122439  0.40146237  0.39801579  1
  H+  H293  1  1.08417756  0.17744677  0.25399292  1
  H+  H294  1  0.46538516  0.10595711  0.98950080  1
  H+  H295  1  0.23162957  0.13138867  0.65434158  1
  H+  H296  1  0.99156045  0.90050186  0.83845650  1
  H+  H297  1  0.32836647  0.90421309  0.45252080  1
  H+  H298  1  0.08814155  0.67399117  0.42838042  1
  H+  H299  1  0.96363886  0.34979909  0.99521564  1
  H+  H300  1  0.67063632  0.36487680  0.93601073  1
  H+  H301  1  0.11495941  0.65986015  0.67412571  1
  H+  H302  1  0.56929095  0.15360989  0.44105922  1
  H+  H303  1  0.63366023  0.37339404  0.49331466  1
  H+  H304  1  0.85101400  0.43014009  0.40843691  1
  H+  H305  1  0.38280459  0.19178203  0.65317558  1
  H+  H306  1  0.69126662  0.31991457  0.28986168  1
  H+  H307  1  0.86580841  0.72928108  0.68265058  1
  H+  H308  1  0.58520192  0.30969622  0.22700394  1
  H+  H309  1  0.89284042  0.48607742  0.15388040  1
  H+  H310  1  0.65968974  0.07981197  0.23304848  1
  H+  H311  1  0.33614752  0.65742123  0.07285636  1
  H+  H312  1  0.83270959  0.91726358  0.72891036  1
  H+  H313  1  0.62413114  0.80521430  0.26639099  1
  H+  H314  1  0.83409559  0.67004444  0.06266709  1
  H+  H315  1  0.91882740  0.83892715  0.92952196  1
  H+  H316  1  0.41889021  0.33701652  0.93602159  1
  H+  H317  1  0.11345443  0.47468277  0.49412746  1
  H+  H318  1  0.84078109  0.42419972  0.05880588  1
  H+  H319  1  0.89557070  0.39802609  0.69151584  1
  H+  H320  1  0.83164384  0.41652032  0.77834266  1
  H+  H321  1  0.90326548  0.31361341  0.89819553  1
  H+  H322  1  0.41717917  0.81085532  0.89920248  1
  H+  H323  1  0.42012311  0.58641172  0.93305707  1
  H+  H324  1  0.53433285  0.62158100  0.72355812  1
  H+  H325  1  0.88466782  0.94138708  0.46271195  1
  H+  H326  1  0.63506151  0.61446319  0.32589029  1
  H+  H327  1  0.21346158  0.59781916  0.83357251  1
  H+  H328  1  0.33398364  0.38527561  0.29968117  1
  H+  H329  1  0.89473179  0.05774171  0.22765531  1
  H+  H330  1  0.70932889  0.88312616  0.21092818  1
  H+  H331  1  0.58193320  0.91298896  0.43200782  1
  H+  H332  1  0.97746680  0.62012035  0.99535391  1
  H+  H333  1  0.77360573  0.87487336  0.39733986  1
  H+  H334  1  0.32728813  0.17142587  0.42782741  1
  H+  H335  1  0.18946724  0.10292446  0.89084417  1
  H+  H336  1  0.09351710  0.06698166  0.95365150  1
  H+  H337  1  0.40482528  0.07307917  0.57416626  1
  H+  H338  1  0.58989307  0.67051336  0.09804131  1
  H+  H339  1  0.67004425  0.84581226  0.93054530  1
  H+  H340  1  0.13824747  0.31722471  0.93773639  1
  H+  H341  1  0.66905772  0.58967677  0.23157775  1
  H+  H342  1  0.42064177  0.08024725  0.89458535  1
  H+  H343  1  0.07978338  0.66103481  0.76723976  1
  H+  H344  1  0.77545552  0.14587735  0.49113015  1
  H+  H345  1  0.67572891  0.58198169  0.57601810  1
  H+  H346  1  0.33514516  0.42134496  0.41713484  1
  H+  H347  1  0.92233639  0.58394680  0.90377958  1
  H+  H348  1  0.91876163  0.09412168  0.61012377  1
  H+  H349  1  0.62274206  0.70162974  0.77476539  1
  H+  H350  1  0.27442474  0.37844719  0.67768367  1
  H+  H351  1  0.91842054  0.31993613  0.24236412  1
  H+  H352  1  0.39857042  0.57525512  0.55977433  1
  H+  H353  1  0.79348567  0.40279370  0.50332263  1
  H+  H354  1  0.58456871  0.91110246  0.06577371  1
  H+  H355  1  0.57276149  0.14822006  0.72013567  1
  H+  H356  1  0.57592402  0.41153813  0.75267142  1
  H+  H357  1  0.82863298  0.65423225  0.76864349  1
  H+  H358  1  0.64160353  0.32332655  0.58445591  1
  H+  H359  1  0.32271284  0.91630223  0.76576929  1
  H+  H360  1  0.34970765  0.71035804  0.82609678  1
  H+  H361  1  0.86213952  0.97072490  0.15079595  1
  H+  H362  1  0.21039864  0.35288199  0.99114011  1
  H+  H363  1  0.91691613  0.84090954  0.22710308  1
  H+  H364  1  0.08131448  0.15747800  0.74468664  1
  H+  H365  1  0.83984261  0.66822531  0.43829746  1
  H+  H366  1  0.58095914  0.44172662  0.09119667  1
  H+  H367  1  1.02588603  0.37291108  0.17193552  1
  H+  H368  1  0.16486126  0.09053538  0.56358273  1
  H+  H369  1  0.20814314  0.36078253  0.27675361  1
  H+  H370  1  0.15439391  0.83718720  0.60266560  1
  H+  H371  1  0.41646420  0.83082637  0.23383327  1
  H+  H372  1  0.83588633  0.17290810  0.43098081  1
  H+  H373  1  0.64965051  0.07275643  0.92845169  1
  H+  H374  1  0.11116562  0.61311905  0.33606626  1
  H+  H375  1  0.58392491  0.89932733  0.76263278  1
  H+  H376  1  0.09085696  0.67196992  0.10410802  1
  H+  H377  1  0.83509667  0.91528158  0.05621322  1
  H+  H378  1  0.07982154  0.91933994  0.43686962  1
  H+  H379  1  0.33614865  0.67417873  0.40070665  1
  H+  H380  1  0.32431251  0.16770927  0.08545278  1
  H+  H381  1  0.23319488  0.11008488  0.16508487  1
  H+  H382  1  0.92434638  0.58991122  0.60520761  1
  H+  H383  1  0.16420396  0.83462636  0.93321560  1
  O2-  O384  1  0.10591668  0.18356047  0.17124592  1
  O2-  O385  1  0.08204232  0.17369643  0.47615718  1
  O2-  O386  1  0.08733749  0.17449628  0.81931264  1
  O2-  O387  1  0.08481772  0.40980914  0.15481685  1
  O2-  O388  1  0.08000543  0.41243156  0.48370849  1
  O2-  O389  1  0.06920358  0.40551264  0.82741747  1
  O2-  O390  1  0.09398204  0.67110541  0.14944619  1
  O2-  O391  1  0.08872213  0.67353186  0.47310984  1
  O2-  O392  1  0.07621137  0.64666969  0.81249375  1
  O2-  O393  1  0.08957567  0.91396710  0.14380332  1
  O2-  O394  1  0.08589770  0.91882128  0.48153572  1
  O2-  O395  1  0.08843511  0.93706962  0.81506915  1
  O2-  O396  1  0.32947418  0.16769106  0.13090993  1
  O2-  O397  1  0.33001680  0.18233726  0.47195031  1
  O2-  O398  1  0.35226907  0.16735121  0.80266522  1
  O2-  O399  1  0.32571346  0.41434775  0.12487833  1
  O2-  O400  1  0.33573950  0.42333845  0.46195097  1
  O2-  O401  1  0.35877954  0.42466188  0.80295958  1
  O2-  O402  1  0.33405758  0.65642253  0.14888042  1
  O2-  O403  1  0.34171838  0.68609844  0.48442401  1
  O2-  O404  1  0.31364276  0.64955782  0.80825730  1
  O2-  O405  1  0.33539878  0.91036929  0.14364633  1
  O2-  O406  1  0.32863342  0.90956418  0.49769381  1
  O2-  O407  1  0.31665626  0.91331393  0.81027432  1
  O2-  O408  1  0.58130566  0.15900837  0.14078638  1
  O2-  O409  1  0.56454494  0.14775196  0.48668486  1
  O2-  O410  1  0.57012243  0.12698916  0.79668718  1
  O2-  O411  1  0.58323749  0.44650299  0.13786281  1
  O2-  O412  1  0.57947614  0.42202832  0.47766637  1
  O2-  O413  1  0.58549227  0.42143270  0.80042185  1
  O2-  O414  1  0.59533002  0.67259634  0.14328830  1
  O2-  O415  1  0.56641805  0.65741115  0.47624549  1
  O2-  O416  1  0.60488691  0.68277688  0.81671068  1
  O2-  O417  1  0.58150040  0.91572480  0.14335323  1
  O2-  O418  1  0.59385556  0.91191424  0.47664769  1
  O2-  O419  1  0.58192548  0.89531887  0.80857649  1
  O2-  O420  1  0.81986342  0.14936601  0.15154704  1
  O2-  O421  1  0.83740226  0.17971589  0.47706047  1
  O2-  O422  1  0.84599146  0.08380231  0.83189358  1
  O2-  O423  1  0.86964314  0.42747712  0.13515886  1
  O2-  O424  1  0.85343816  0.42711214  0.48956773  1
  O2-  O425  1  0.81978744  0.41348905  0.82285863  1
  O2-  O426  1  0.84050699  0.66865873  0.14228383  1
  O2-  O427  1  0.84400900  0.66646771  0.48324860  1
  O2-  O428  1  0.82016996  0.63965960  0.81383536  1
  O2-  O429  1  0.83964727  0.91094493  0.13041912  1
  O2-  O430  1  0.85944034  0.92654995  0.50328464  1
  O2-  O431  1  0.82090489  0.92789965  0.80918768  1
  O2-  O432  1  0.17477495  0.07944337  0.18444585  1
  O2-  O433  1  0.16400574  0.08990463  0.51856111  1
  O2-  O434  1  0.18115336  0.10121096  0.84665867  1
  O2-  O435  1  0.18536657  0.35176350  0.20228084  1
  O2-  O436  1  0.17145714  0.33276204  0.50143903  1
  O2-  O437  1  0.13669470  0.32433605  0.86662218  1
  O2-  O438  1  0.16782499  0.57567483  0.19306095  1
  O2-  O439  1  0.16838598  0.58962022  0.51207927  1
  O2-  O440  1  0.15314871  0.57187518  0.85077501  1
  O2-  O441  1  0.17139957  0.83528540  0.19470602  1
  O2-  O442  1  0.16030988  0.83195348  0.52824630  1
  O2-  O443  1  0.16268997  0.83833369  0.86219129  1
  O2-  O444  1  0.41814004  0.08689264  0.16716971  1
  O2-  O445  1  0.40328078  0.06095876  0.52767705  1
  O2-  O446  1  0.42594313  0.08222827  0.84910893  1
  O2-  O447  1  0.40471048  0.33225087  0.17842273  1
  O2-  O448  1  0.41576403  0.33552606  0.51675159  1
  O2-  O449  1  0.41990015  0.33034654  0.85746495  1
  O2-  O450  1  0.42888545  0.58803741  0.19856321  1
  O2-  O451  1  0.40419230  0.58346907  0.51458584  1
  O2-  O452  1  0.42224196  0.58916013  0.85035736  1
  O2-  O453  1  0.41888639  0.82826876  0.18856017  1
  O2-  O454  1  0.40408086  0.77405244  0.50556474  1
  O2-  O455  1  0.41281199  0.79930940  0.85509761  1
  O2-  O456  1  0.65867534  0.07835157  0.18781526  1
  O2-  O457  1  0.67507664  0.08318198  0.51360823  1
  O2-  O458  1  0.66229199  0.05941483  0.84801708  1
  O2-  O459  1  0.61305464  0.32600102  0.18720179  1
  O2-  O460  1  0.66586539  0.34150708  0.50253662  1
  O2-  O461  1  0.66776069  0.35959134  0.86072091  1
  O2-  O462  1  0.67125776  0.59057448  0.18587617  1
  O2-  O463  1  0.68000348  0.58871041  0.53052061  1
  O2-  O464  1  0.65402308  0.56815741  0.84571963  1
  O2-  O465  1  0.67176292  0.84600888  0.17874596  1
  O2-  O466  1  0.69790435  0.84181663  0.46534624  1
  O2-  O467  1  0.66919335  0.83859055  0.86375319  1
  O2-  O468  1  0.89264998  0.05535626  0.18291432  1
  O2-  O469  1  0.92074286  0.09928352  0.53144276  1
  O2-  O470  1  0.92837067  0.13482575  0.86362683  1
  O2-  O471  1  0.92202301  0.31600959  0.19697124  1
  O2-  O472  1  0.92244139  0.33021593  0.51559262  1
  O2-  O473  1  0.90628859  0.31957292  0.85309486  1
  O2-  O474  1  0.92438743  0.58484423  0.18592532  1
  O2-  O475  1  0.93120767  0.58953670  0.52653970  1
  O2-  O476  1  0.92145827  0.57664006  0.85782019  1
  O2-  O477  1  0.91983540  0.83583798  0.18299939  1
  O2-  O478  1  0.92800830  0.82799300  0.53637102  1
  O2-  O479  1  0.92861943  0.87043201  0.85110463  1
  O2-  O480  1  0.16356455  0.07495530  0.30493923  1
  O2-  O481  1  0.16985624  0.09136754  0.64659597  1
  O2-  O482  1  0.14274491  0.07443415  0.97726719  1
  O2-  O483  1  0.21507610  0.34853053  0.32080639  1
  O2-  O484  1  0.16417961  0.32528088  0.67068817  1
  O2-  O485  1  0.14694225  0.32060239  0.98428633  1
  O2-  O486  1  0.16422622  0.56662238  0.31687534  1
  O2-  O487  1  0.15965056  0.60754157  0.63597439  1
  O2-  O488  1  0.19192634  0.63473715  0.96601551  1
  O2-  O489  1  0.16330700  0.84990421  0.31626982  1
  O2-  O490  1  0.15569261  0.84556302  0.64828171  1
  O2-  O491  1  0.16286115  0.83209368  0.98003866  1
  O2-  O492  1  0.41243726  0.06917780  0.33122851  1
  O2-  O493  1  0.40931786  0.09245091  0.64104698  1
  O2-  O494  1  0.40458403  0.07065161  0.97207338  1
  O2-  O495  1  0.41622600  0.32560472  0.32006844  1
  O2-  O496  1  0.40303438  0.31017286  0.63930763  1
  O2-  O497  1  0.41813164  0.33783400  0.98138099  1
  O2-  O498  1  0.40894543  0.58364934  0.31395620  1
  O2-  O499  1  0.39600514  0.57312785  0.63703554  1
  O2-  O500  1  0.42241144  0.58258205  0.97799461  1
  O2-  O501  1  0.41325248  0.83277652  0.31434100  1
  O2-  O502  1  0.39661433  0.81849686  0.63333029  1
  O2-  O503  1  0.42361223  0.82724878  0.98308198  1
  O2-  O504  1  0.65981710  0.08244492  0.31590361  1
  O2-  O505  1  0.67172493  0.07771638  0.64466382  1
  O2-  O506  1  0.64157085  0.07888410  0.97210220  1
  O2-  O507  1  0.66804455  0.32350876  0.32908693  1
  O2-  O508  1  0.64393812  0.32916409  0.62918512  1
  O2-  O509  1  0.67157572  0.36497858  0.98196698  1
  O2-  O510  1  0.67125440  0.59042973  0.31038504  1
  O2-  O511  1  0.66313210  0.57865230  0.65250295  1
  O2-  O512  1  0.66235630  0.58297776  0.97635276  1
  O2-  O513  1  0.64064679  0.81395386  0.30935571  1
  O2-  O514  1  0.67344083  0.83826476  0.63391735  1
  O2-  O515  1  0.67109138  0.84551611  0.97842490  1
  O2-  O516  1  0.90641482  0.07614479  0.31264560  1
  O2-  O517  1  0.91655714  0.08252392  0.65460960  1
  O2-  O518  1  0.91752998  0.08644111  0.98025600  1
  O2-  O519  1  0.91664133  0.32589430  0.31931792  1
  O2-  O520  1  0.93336424  0.33538802  0.67092079  1
  O2-  O521  1  0.90478906  0.32059218  0.97761575  1
  O2-  O522  1  0.91261009  0.58673400  0.31291406  1
  O2-  O523  1  0.92070422  0.59140724  0.65070427  1
  O2-  O524  1  0.91765677  0.58814625  0.97752701  1
  O2-  O525  1  0.91035976  0.83480874  0.32525342  1
  O2-  O526  1  0.93529825  0.84446520  0.65775490  1
  O2-  O527  1  0.91645703  0.83571006  0.97460287  1
  O2-  O528  1  0.07099074  0.16812497  0.04167817  1
  O2-  O529  1  0.08432676  0.17142320  0.29883378  1
  O2-  O530  1  0.08123481  0.15518689  0.69876705  1
  O2-  O531  1  0.06857376  0.39717371  0.02909624  1
  O2-  O532  1  0.07571768  0.39760932  0.35352023  1
  O2-  O533  1  0.09185046  0.40524014  0.71726450  1
  O2-  O534  1  0.07734357  0.67203510  0.02390614  1
  O2-  O535  1  0.08416998  0.65155276  0.33856595  1
  O2-  O536  1  0.08268903  0.68385601  0.69598656  1
  O2-  O537  1  0.08446358  0.91580491  0.01956462  1
  O2-  O538  1  0.06685254  0.92036695  0.35175781  1
  O2-  O539  1  0.09183806  0.93375971  0.68321661  1
  O2-  O540  1  0.32198074  0.16548454  0.00863509  1
  O2-  O541  1  0.33003612  0.15308785  0.34519374  1
  O2-  O542  1  0.34697479  0.21935529  0.65752113  1
  O2-  O543  1  0.32083233  0.40561724  0.00889056  1
  O2-  O544  1  0.30862773  0.40236153  0.33264460  1
  O2-  O545  1  0.33812245  0.41062914  0.68323038  1
  O2-  O546  1  0.34112357  0.66154320  0.02710420  1
  O2-  O547  1  0.33007171  0.66811877  0.35590024  1
  O2-  O548  1  0.30856116  0.65224151  0.68503754  1
  O2-  O549  1  0.33246565  0.90682691  0.01609232  1
  O2-  O550  1  0.32669328  0.90448598  0.37350606  1
  O2-  O551  1  0.33193714  0.92605213  0.67944518  1
  O2-  O552  1  0.56173581  0.15972340  0.01157950  1
  O2-  O553  1  0.58062819  0.16120190  0.36475901  1
  O2-  O554  1  0.57376991  0.15731241  0.67519439  1
  O2-  O555  1  0.57641400  0.42558166  0.02132194  1
  O2-  O556  1  0.58717820  0.42163448  0.35228621  1
  O2-  O557  1  0.56292673  0.40223014  0.68706533  1
  O2-  O558  1  0.58446001  0.66695728  0.01794914  1
  O2-  O559  1  0.57112743  0.65564267  0.35136734  1
  O2-  O560  1  0.56297691  0.64927373  0.68568451  1
  O2-  O561  1  0.58552766  0.90686707  0.02026437  1
  O2-  O562  1  0.57601697  0.91561356  0.35599291  1
  O2-  O563  1  0.58346348  0.91140133  0.68623727  1
  O2-  O564  1  0.82899589  0.15869148  0.03506932  1
  O2-  O565  1  0.82768346  0.16226456  0.35749153  1
  O2-  O566  1  0.85125738  0.15684428  0.72956519  1
  O2-  O567  1  0.82716584  0.42345882  0.01465579  1
  O2-  O568  1  0.84397622  0.42619113  0.36347737  1
  O2-  O569  1  0.85985660  0.42581277  0.70151048  1
  O2-  O570  1  0.83316812  0.66969135  0.01714829  1
  O2-  O571  1  0.83713354  0.67598369  0.35411601  1
  O2-  O572  1  0.83306834  0.66771748  0.69464575  1
  O2-  O573  1  0.82804893  0.91348341  0.01049916  1
  O2-  O574  1  0.80239112  0.88860137  0.35708627  1
  O2-  O575  1  0.84246011  0.91558277  0.68448615  1
