# generated using pymatgen
data_H2O
_symmetry_space_group_name_H-M   'P 1'
_cell_length_a   17.96123379
_cell_length_b   17.95843365
_cell_length_c   21.99475572
_cell_angle_alpha   90.00481280
_cell_angle_beta   90.01805245
_cell_angle_gamma   119.93797630
_symmetry_Int_Tables_number   1
_chemical_formula_structural   H2O
_chemical_formula_sum   'H384 O192'
_cell_volume   6147.88093505
_cell_formula_units_Z   192
loop_
 _symmetry_equiv_pos_site_id
 _symmetry_equiv_pos_as_xyz
  1  'x, y, z'
loop_
 _atom_type_symbol
 _atom_type_oxidation_number
  H+  1.0
  O2-  -2.0
loop_
 _atom_site_type_symbol
 _atom_site_label
 _atom_site_symmetry_multiplicity
 _atom_site_fract_x
 _atom_site_fract_y
 _atom_site_fract_z
 _atom_site_occupancy
  H+  H0  1  0.23949582  0.37642780  0.66241450  1
  H+  H1  1  0.27486466  0.64749426  0.00121002  1
  H+  H2  1  0.13611583  0.51646104  0.49441354  1
  H+  H3  1  0.72424151  0.37569585  0.83495067  1
  H+  H4  1  0.92269567  0.07817192  0.26352642  1
  H+  H5  1  0.77617452  0.39396924  0.98978277  1
  H+  H6  1  0.63562603  0.29031522  0.67839565  1
  H+  H7  1  0.70870222  0.01382723  0.56716627  1
  H+  H8  1  0.36220701  0.48382902  0.83524506  1
  H+  H9  1  0.73160026  0.59965745  0.86235165  1
  H+  H10  1  0.11580135  0.73639617  0.00299055  1
  H+  H11  1  0.12063404  0.85178366  0.48228323  1
  H+  H12  1  0.10016214  0.77176810  0.64185780  1
  H+  H13  1  0.76908138  0.62742306  0.48751568  1
  H+  H14  1  0.33623108  0.42412271  0.43383727  1
  H+  H15  1  0.36055258  0.22953648  0.34462293  1
  H+  H16  1  0.96444055  0.83914128  0.83247875  1
  H+  H17  1  0.04963048  0.80690590  0.78681502  1
  H+  H18  1  0.64899364  0.11032254  0.00187673  1
  H+  H19  1  0.35866497  0.72399882  0.49363132  1
  H+  H20  1  0.37822996  0.14795062  0.61767577  1
  H+  H21  1  0.72664885  0.84915949  0.29800776  1
  H+  H22  1  0.14834877  0.32767640  0.93663481  1
  H+  H23  1  0.92102003  0.34781756  0.89908162  1
  H+  H24  1  0.72961784  0.60429893  0.31946492  1
  H+  H25  1  0.62751548  0.38976740  0.16775266  1
  H+  H26  1  0.11997859  0.01499644  0.49135821  1
  H+  H27  1  0.86893014  0.40141068  0.67572272  1
  H+  H28  1  0.39631289  0.12505647  1.00121692  1
  H+  H29  1  0.37087282  0.73233199  0.67293200  1
  H+  H30  1  0.52756247  0.62836426  0.32397706  1
  H+  H31  1  0.95639530  0.87635526  0.66543725  1
  H+  H32  1  0.17434949  0.58895694  0.93041326  1
  H+  H33  1  0.48246144  0.61494141  0.85074770  1
  H+  H34  1  0.39104553  0.78257654  0.32870840  1
  H+  H35  1  0.97925074  0.35943338  0.50683963  1
  H+  H36  1  0.96903195  0.59755724  0.49437286  1
  H+  H37  1  0.47339005  0.37608959  0.85463494  1
  H+  H38  1  0.88629903  0.77988468  0.25482407  1
  H+  H39  1  0.15213951  0.41206660  0.16642961  1
  H+  H40  1  0.37065074  0.89816059  0.00867129  1
  H+  H41  1  0.21247699  0.10020363  0.49762277  1
  H+  H42  1  0.84233890  0.95602974  0.31086137  1
  H+  H43  1  0.27964944  0.39835153  0.49495839  1
  H+  H44  1  0.42097415  0.59201457  0.94261538  1
  H+  H45  1  0.34281637  0.12561326  0.15466671  1
  H+  H46  1  0.60794077  0.96079018  0.50302324  1
  H+  H47  1  0.40406917  0.62446730  0.66076189  1
  H+  H48  1  0.94005610  0.04341435  0.16539140  1
  H+  H49  1  0.87902061  0.59744011  0.49643484  1
  H+  H50  1  0.60985520  0.22884007  0.34468883  1
  H+  H51  1  0.72864379  0.37431938  0.68869843  1
  H+  H52  1  0.08927799  0.66937334  0.05691278  1
  H+  H53  1  0.61986768  0.69400082  0.68197066  1
  H+  H54  1  0.85948397  0.37367789  0.49833091  1
  H+  H55  1  0.32959998  0.63478251  0.15782494  1
  H+  H56  1  0.61850068  0.63452544  0.84283173  1
  H+  H57  1  0.89063698  0.24354502  0.16513768  1
  H+  H58  1  0.87724371  0.09321580  0.32302784  1
  H+  H59  1  0.08605505  0.17596288  0.73133809  1
  H+  H60  1  0.45416139  0.72438189  0.37040730  1
  H+  H61  1  0.59579666  0.15524065  0.80653450  1
  H+  H62  1  0.36508992  0.67870734  0.40289903  1
  H+  H63  1  0.34789273  0.88513589  0.33750737  1
  H+  H64  1  0.11348300  -0.01680082  0.15994270  1
  H+  H65  1  0.39764532  0.62278262  0.84638784  1
  H+  H66  1  0.62557717  0.71777491  0.17462233  1
  H+  H67  1  0.63681313  0.85526190  1.00565215  1
  H+  H68  1  0.39393654  0.03460310  1.00401624  1
  H+  H69  1  0.63865748  0.52173746  0.50218969  1
  H+  H70  1  0.97665043  0.78270963  0.55403862  1
  H+  H71  1  0.02134323  0.37364116  0.33934220  1
  H+  H72  1  0.38137568  0.90123062  0.83643258  1
  H+  H73  1  0.63373575  0.96868177  0.17342175  1
  H+  H74  1  0.64061873  0.76597033  0.84942711  1
  H+  H75  1  0.61867583  0.05282557  0.85245655  1
  H+  H76  1  0.14016860  0.62027105  -0.01351181  1
  H+  H77  1  0.85860877  0.89339640  0.46407235  1
  H+  H78  1  0.10400573  0.38452774  0.00839803  1
  H+  H79  1  0.85210835  0.71736996  0.00695610  1
  H+  H80  1  0.20426217  0.10844895  0.16597296  1
  H+  H81  1  0.01548718  0.89084050  0.30926457  1
  H+  H82  1  0.85903567  0.49807833  0.82836908  1
  H+  H83  1  0.61169773  0.38647359  0.48201194  1
  H+  H84  1  0.63185995  0.28058469  0.51856342  1
  H+  H85  1  0.71590940  0.34591117  0.48406648  1
  H+  H86  1  0.85680517  0.60216970  0.33059260  1
  H+  H87  1  0.21270662  0.60464702  0.30274352  1
  H+  H88  1  0.61139855  0.72391844  0.01808655  1
  H+  H89  1  0.78910465  0.63628162  0.16680646  1
  H+  H90  1  0.66973059  0.79365091  0.58612654  1
  H+  H91  1  0.77368267  0.87061998  1.01535217  1
  H+  H92  1  0.48295334  0.86508956  0.18111542  1
  H+  H93  1  0.41851209  0.35941640  0.91638514  1
  H+  H94  1  0.90439451  0.29395153  0.66496930  1
  H+  H95  1  0.63925690  0.61158291  0.49981907  1
  H+  H96  1  0.72359292  0.35320869  0.33756275  1
  H+  H97  1  0.85783960  0.45097567  0.34437067  1
  H+  H98  1  0.60084662  0.09569722  0.49197490  1
  H+  H99  1  0.90174066  0.38071283  0.19495279  1
  H+  H100  1  0.07255481  0.57003805  0.70822235  1
  H+  H101  1  0.12269547  0.49271664  0.67260473  1
  H+  H102  1  0.11604579  0.39176982  0.82670458  1
  H+  H103  1  0.39157223  0.38714235  1.02052372  1
  H+  H104  1  0.57390908  0.13139877  0.66610862  1
  H+  H105  1  0.27394432  0.43745805  0.12508110  1
  H+  H106  1  0.61311103  0.47400662  0.01674774  1
  H+  H107  1  0.36153034  0.49730019  1.02142980  1
  H+  H108  1  0.72905718  0.85748887  0.84787388  1
  H+  H109  1  0.37746212  0.26107513  0.62310197  1
  H+  H110  1  0.14876161  0.88498193  0.99543761  1
  H+  H111  1  0.90087154  0.15977302  0.16158023  1
  H+  H112  1  0.36323709  0.23729790  0.87033898  1
  H+  H113  1  0.47640747  0.37857946  1.01258728  1
  H+  H114  1  0.37260991  0.48767852  0.67805120  1
  H+  H115  1  0.57828529  0.15420549  0.39699518  1
  H+  H116  1  0.65376488  0.96755090  0.80787509  1
  H+  H117  1  0.36308122  -0.02412558  0.67972623  1
  H+  H118  1  0.86337157  0.97417626  0.83047584  1
  H+  H119  1  0.61170917  1.01565381  0.67318157  1
  H+  H120  1  0.36640166  0.89322266  0.16276910  1
  H+  H121  1  0.85393395  0.89440838  0.67075477  1
  H+  H122  1  0.48935999  0.38481072  0.66536165  1
  H+  H123  1  0.13371519  0.06798304  1.00745084  1
  H+  H124  1  0.39014866  0.62698109  -0.00130700  1
  H+  H125  1  0.27420782  0.63175434  0.48446135  1
  H+  H126  1  0.11605248  0.48016289  1.00352647  1
  H+  H127  1  1.02250969  0.14292949  0.82155965  1
  H+  H128  1  0.88277953  0.14773986  0.67461147  1
  H+  H129  1  0.51049891  0.89408291  0.34588924  1
  H+  H130  1  0.67435393  0.11299545  0.69611550  1
  H+  H131  1  0.14486766  0.10888865  0.90779238  1
  H+  H132  1  0.07317674  0.11882956  0.18290409  1
  H+  H133  1  0.11754601  0.55528622  0.15348949  1
  H+  H134  1  0.11578571  0.38541947  0.49313264  1
  H+  H135  1  0.10579625  0.46497824  0.33227385  1
  H+  H136  1  0.40260654  0.78552836  0.84305505  1
  H+  H137  1  0.34199551  0.20557365  0.56044358  1
  H+  H138  1  0.72158427  0.85706159  0.48123763  1
  H+  H139  1  0.98284322  0.38070262  0.99448149  1
  H+  H140  1  0.77016935  0.12111560  0.34952388  1
  H+  H141  1  0.88986379  0.53208810  0.65523325  1
  H+  H142  1  0.13247452  0.26927243  -0.00478622  1
  H+  H143  1  0.97187757  0.81838832  0.98042378  1
  H+  H144  1  0.89121276  0.28973114  0.83944440  1
  H+  H145  1  0.60332673  0.97722018  0.34574441  1
  H+  H146  1  0.38869626  0.78210978  0.17403866  1
  H+  H147  1  0.72010358  0.60919707  1.01006352  1
  H+  H148  1  0.25119774  0.86744403  0.48762059  1
  H+  H149  1  0.48377665  0.36405299  0.18898936  1
  H+  H150  1  0.84332353  0.17854070  0.76830511  1
  H+  H151  1  0.22290315  0.36820160  0.84133839  1
  H+  H152  1  0.80016988  0.41548535  0.20116787  1
  H+  H153  1  -0.00336415  0.67040129  0.81946024  1
  H+  H154  1  0.85920488  0.88291850  0.82557452  1
  H+  H155  1  0.16804648  0.91920262  0.63668358  1
  H+  H156  1  0.06189042  0.68041751  0.76545809  1
  H+  H157  1  0.28003260  0.38814561  0.33699624  1
  H+  H158  1  0.75969623  0.12291395  0.16903659  1
  H+  H159  1  0.39842651  0.38319512  0.66595760  1
  H+  H160  1  0.85646381  0.46151016  0.49354369  1
  H+  H161  1  0.46078255  0.13015319  0.64434133  1
  H+  H162  1  0.17775106  0.85134985  0.93801482  1
  H+  H163  1  1.10161364  0.62828265  0.32577297  1
  H+  H164  1  0.49305821  0.87152101  0.84283011  1
  H+  H165  1  0.10797627  0.89006942  0.82132763  1
  H+  H166  1  0.20653804  0.81598175  0.70325972  1
  H+  H167  1  0.19595902  0.95124003  0.66037951  1
  H+  H168  1  0.40170435  0.38756085  0.50558570  1
  H+  H169  1  0.22295709  0.86018175  0.16918890  1
  H+  H170  1  0.97079573  0.61887545  0.98264142  1
  H+  H171  1  0.09604996  0.71443558  0.32776699  1
  H+  H172  1  0.14605829  0.79572632  0.84245642  1
  H+  H173  1  0.66882460  0.57665053  0.22908983  1
  H+  H174  1  0.62923362  0.60769589  1.01004313  1
  H+  H175  1  0.38242964  0.02422700  0.17669326  1
  H+  H176  1  0.24246770  0.87646401  0.84460064  1
  H+  H177  1  0.52355748  0.88594951  0.66730935  1
  H+  H178  1  0.52583847  0.88318905  1.02253963  1
  H+  H179  1  0.90622380  0.59641632  0.92404446  1
  H+  H180  1  0.86679993  0.64216601  0.66439258  1
  H+  H181  1  0.40463916  0.50175270  0.15986358  1
  H+  H182  1  0.11078806  0.13775864  0.49660737  1
  H+  H183  1  0.61832744  0.72135247  0.47427645  1
  H+  H184  1  0.51935640  0.63731386  0.02119477  1
  H+  H185  1  0.52486155  0.62086006  0.68810550  1
  H+  H186  1  0.11341140  0.14821203  0.82573589  1
  H+  H187  1  0.62161654  0.40496780  0.69242111  1
  H+  H188  1  0.09880222  0.70966745  0.47621560  1
  H+  H189  1  0.22392315  0.13073590  0.63424348  1
  H+  H190  1  0.62764962  0.74920709  0.30321386  1
  H+  H191  1  0.01760876  0.87352765  0.47892829  1
  H+  H192  1  0.36207934  -0.00525318  0.50119384  1
  H+  H193  1  0.77845285  0.15125751  0.82370860  1
  H+  H194  1  0.39398646  0.51277164  0.32740361  1
  H+  H195  1  0.34647566  0.11577035  0.48944747  1
  H+  H196  1  0.36017988  0.39455556  0.83645885  1
  H+  H197  1  0.61116309  0.38448202  1.00857109  1
  H+  H198  1  0.64354612  0.61171973  0.31767504  1
  H+  H199  1  0.46289636  0.85729993  0.50686691  1
  H+  H200  1  0.50821533  0.15190148  0.82239825  1
  H+  H201  1  0.54109474  0.02536971  0.44627514  1
  H+  H202  1  0.97953823  0.90442843  0.13907478  1
  H+  H203  1  0.87442901  0.39690156  -0.00696715  1
  H+  H204  1  0.79785313  0.15188229  0.66693361  1
  H+  H205  1  0.60559984  0.39589819  0.83059287  1
  H+  H206  1  0.14129480  0.36431078  0.31920262  1
  H+  H207  1  0.86727099  0.41144517  0.83058525  1
  H+  H208  1  0.28948666  0.64790969  0.82756746  1
  H+  H209  1  -0.00239049  0.09754319  0.34594539  1
  H+  H210  1  0.63970556  0.51620526  0.16886327  1
  H+  H211  1  0.62982839  0.84857243  0.49416707  1
  H+  H212  1  0.47474094  0.35894404  0.33593459  1
  H+  H213  1  0.66745983  0.57968853  0.91874758  1
  H+  H214  1  0.89924163  0.61277916  0.14123922  1
  H+  H215  1  0.11487063  0.14969514  0.66843301  1
  H+  H216  1  0.86118145  0.86954851  1.00544027  1
  H+  H217  1  0.52802711  0.39852960  0.49203062  1
  H+  H218  1  0.89299172  0.02882969  0.66468005  1
  H+  H219  1  0.02944873  0.39870081  0.82961777  1
  H+  H220  1  0.60830802  0.48437669  0.84012182  1
  H+  H221  1  0.04227598  0.93684920  0.00708244  1
  H+  H222  1  0.14702646  0.52576879  0.83672141  1
  H+  H223  1  0.13138331  0.71930990  0.16033285  1
  H+  H224  1  0.87613435  0.69784245  0.33461761  1
  H+  H225  1  0.61885588  0.11494143  0.31818694  1
  H+  H226  1  0.25679436  0.65902513  0.15194378  1
  H+  H227  1  0.36009094  0.24915318  1.00897688  1
  H+  H228  1  0.34739192  0.97386808  0.33987793  1
  H+  H229  1  0.88252639  0.34373511  0.33530207  1
  H+  H230  1  0.13335966  0.27934331  0.83574137  1
  H+  H231  1  0.21776438  0.12724040  0.86200763  1
  H+  H232  1  0.38575055  0.12235046  0.86345312  1
  H+  H233  1  0.63197569  0.28896672  0.82945339  1
  H+  H234  1  0.58622003  0.42120268  0.39882053  1
  H+  H235  1  0.96430838  0.58470060  0.31425228  1
  H+  H236  1  0.14774373  0.58542053  0.24928763  1
  H+  H237  1  0.15169689  0.61626158  0.83363699  1
  H+  H238  1  0.88846518  0.11260586  0.84140897  1
  H+  H239  1  0.85888107  0.72801203  0.67231142  1
  H+  H240  1  0.22352664  0.50163282  0.61483634  1
  H+  H241  1  0.10753145  0.97448447  0.32221906  1
  H+  H242  1  0.88776748  0.25735667  0.33285695  1
  H+  H243  1  0.63699274  0.36183575  0.33481463  1
  H+  H244  1  0.86941320  0.49263521  -0.01229968  1
  H+  H245  1  0.62411889  0.11119960  0.15124654  1
  H+  H246  1  0.14570015  0.28338823  0.51086189  1
  H+  H247  1  0.79975337  0.15156728  0.01634021  1
  H+  H248  1  0.71853646  0.83765031  0.64653471  1
  H+  H249  1  0.85290425  0.63016922  1.01067540  1
  H+  H250  1  0.13553748  0.60493398  0.49727213  1
  H+  H251  1  0.63170558  0.62345370  0.16465470  1
  H+  H252  1  0.89813826  0.74704363  0.50849468  1
  H+  H253  1  0.20995545  0.85542947  0.32240948  1
  H+  H254  1  0.92605569  0.13892721  0.98897834  1
  H+  H255  1  0.14712597  0.28256924  0.29896033  1
  H+  H256  1  0.65042560  0.27905535  -0.01103702  1
  H+  H257  1  1.02764082  0.41523071  0.16149926  1
  H+  H258  1  0.78564199  0.13224675  0.50902837  1
  H+  H259  1  0.28087198  0.89897864  1.00895619  1
  H+  H260  1  0.02077390  0.60919185  0.67915803  1
  H+  H261  1  0.12056866  0.85389199  0.31580121  1
  H+  H262  1  0.37626566  -0.01142738  0.83792061  1
  H+  H263  1  0.32916660  0.17297669  0.92480416  1
  H+  H264  1  0.61359777  0.47222213  0.33530750  1
  H+  H265  1  0.99420210  0.12969895  0.51885057  1
  H+  H266  1  0.40358447  0.87580403  0.66451047  1
  H+  H267  1  0.64598519  0.52752623  0.66045009  1
  H+  H268  1  0.42981123  0.40848642  0.20130684  1
  H+  H269  1  0.62417728  0.87416200  0.82958439  1
  H+  H270  1  0.67336795  0.33515687  0.24667294  1
  H+  H271  1  0.23016734  0.80218806  0.68189065  1
  H+  H272  1  0.84544975  0.86865898  0.29926406  1
  H+  H273  1  0.39125763  0.78447452  0.99698005  1
  H+  H274  1  0.39925657  0.62151277  0.50437398  1
  H+  H275  1  0.92994495  0.08981933  0.89804084  1
  H+  H276  1  0.40103748  0.60496327  0.31894344  1
  H+  H277  1  0.89837774  0.12638698  0.51977371  1
  H+  H278  1  0.91535059  0.86497231  0.22068188  1
  H+  H279  1  0.83200120  0.14959420  0.40692536  1
  H+  H280  1  0.61746623  -0.03263513  1.03006286  1
  H+  H281  1  0.13586914  0.10612534  0.32765103  1
  H+  H282  1  0.14607588  0.29418327  0.66060103  1
  H+  H283  1  0.98255202  0.39213850  0.66521225  1
  H+  H284  1  0.47034566  0.11210922  0.17630072  1
  H+  H285  1  0.67020588  0.29015003  0.18336258  1
  H+  H286  1  0.53730092  0.14350491  0.00388458  1
  H+  H287  1  0.98887748  0.12155526  0.66625641  1
  H+  H288  1  0.35792309  0.13889488  0.34451243  1
  H+  H289  1  0.67611655  0.58188361  0.59144303  1
  H+  H290  1  0.43057429  0.53061343  0.22886358  1
  H+  H291  1  0.10772082  0.88977931  0.15337247  1
  H+  H292  1  0.12122047  0.80079626  0.54163658  1
  H+  H293  1  0.71788035  0.44348746  0.56556539  1
  H+  H294  1  0.90663840  0.82989754  0.60384297  1
  H+  H295  1  0.08266466  0.40785882  0.43117550  1
  H+  H296  1  0.59235698  0.90140022  0.12023857  1
  H+  H297  1  0.54415677  0.16931642  0.72048643  1
  H+  H298  1  0.63444910  0.84680145  0.20326502  1
  H+  H299  1  0.09763900  0.94567521  0.06519801  1
  H+  H300  1  0.22949187  0.11516312  0.32761580  1
  H+  H301  1  0.29405547  0.63428174  0.66855181  1
  H+  H302  1  0.32919332  0.67878693  0.06256858  1
  H+  H303  1  0.37720229  0.94523238  0.74380045  1
  H+  H304  1  0.82834716  0.64905981  0.42738117  1
  H+  H305  1  0.36657053  0.38249286  0.34352327  1
  H+  H306  1  0.66927927  0.33754704  0.92872112  1
  H+  H307  1  0.29801216  0.12894207  0.73352439  1
  H+  H308  1  0.88471015  0.49593790  0.17135628  1
  H+  H309  1  0.89118933  0.51830936  0.26622352  1
  H+  H310  1  0.43259449  0.84782472  0.94069772  1
  H+  H311  1  0.93114115  0.09621296  0.58652353  1
  H+  H312  1  0.59827186  0.16417607  0.05990340  1
  H+  H313  1  0.58993949  0.41022668  0.10720670  1
  H+  H314  1  0.53466205  0.05481757  0.12113808  1
  H+  H315  1  0.86975861  0.92730179  0.08868897  1
  H+  H316  1  0.06494744  0.90900879  0.41360611  1
  H+  H317  1  0.67202804  0.07060162  0.59015846  1
  H+  H318  1  0.33665300  0.92293257  0.10305373  1
  H+  H319  1  0.34984879  0.67778751  0.76925834  1
  H+  H320  1  0.58512100  0.90841636  0.72504049  1
  H+  H321  1  0.01626941  0.69575885  0.61591077  1
  H+  H322  1  0.84569493  0.43857454  0.73533529  1
  H+  H323  1  0.15996097  0.08163666  0.23100498  1
  H+  H324  1  0.07957535  0.44066026  0.09758605  1
  H+  H325  1  0.08325721  0.45175993  0.73877587  1
  H+  H326  1  0.66511111  0.14296361  0.88350719  1
  H+  H327  1  0.37090140  0.85332740  0.50431051  1
  H+  H328  1  0.86785333  0.19135678  0.06894364  1
  H+  H329  1  0.57229252  0.91454887  0.43721407  1
  H+  H330  1  0.03055772  0.05192692  0.38911546  1
  H+  H331  1  0.14885253  0.08193847  0.58857684  1
  H+  H332  1  0.34009222  0.13174436  0.74129055  1
  H+  H333  1  0.17789231  0.34616073  0.56915081  1
  H+  H334  1  0.69476735  0.09695518  0.22579895  1
  H+  H335  1  0.45733108  0.07443966  0.49628318  1
  H+  H336  1  0.83661365  0.62891478  0.78693205  1
  H+  H337  1  0.41175980  0.83959623  0.26824382  1
  H+  H338  1  0.84393641  0.67831391  0.10935702  1
  H+  H339  1  0.19385493  0.37809935  0.21461912  1
  H+  H340  1  0.32543870  0.16521629  0.43878558  1
  H+  H341  1  0.43193066  0.59187934  0.60133952  1
  H+  H342  1  0.74737982  0.61973235  0.65479892  1
  H+  H343  1  0.41917722  0.33529191  0.27466335  1
  H+  H344  1  0.58262865  0.03858555  0.27253874  1
  H+  H345  1  0.08718506  0.99737407  0.67896198  1
  H+  H346  1  0.59359997  0.66729669  0.10588342  1
  H+  H347  1  0.87828807  0.75168467  0.84210855  1
  H+  H348  1  0.93180203  0.33454482  0.24063779  1
  H+  H349  1  0.01401863  0.56449221  0.87966498  1
  H+  H350  1  0.59083912  0.66932504  0.38214959  1
  H+  H351  1  0.34078488  0.42891273  0.73891343  1
  H+  H352  1  0.92471512  0.33764882  0.56928503  1
  H+  H353  1  0.81901157  0.89990671  0.40201464  1
  H+  H354  1  0.91254408  0.57755180  0.58937379  1
  H+  H355  1  0.41081506  0.83371555  0.60103342  1
  H+  H356  1  0.98558715  0.60823637  0.13769703  1
  H+  H357  1  0.43991170  0.37207024  0.56655299  1
  H+  H358  1  1.00691173  0.12379480  0.98636361  1
  H+  H359  1  0.07153466  0.16417264  0.44250535  1
  H+  H360  1  0.40313029  0.08087082  0.57978630  1
  H+  H361  1  0.58619023  0.65727500  0.78093060  1
  H+  H362  1  0.46762585  0.11202465  0.33029282  1
  H+  H363  1  0.05529388  0.92814890  0.73345738  1
  H+  H364  1  0.43139653  0.09268961  0.90935568  1
  H+  H365  1  0.19332189  0.56116120  0.58294455  1
  H+  H366  1  0.71291949  0.43564017  0.59920222  1
  H+  H367  1  0.82873201  0.92524293  0.73079896  1
  H+  H368  1  0.86971106  0.22660867  0.50179505  1
  H+  H369  1  0.82882349  0.39469805  0.40581036  1
  H+  H370  1  0.15833515  0.82483262  0.22528086  1
  H+  H371  1  0.00894955  0.52662590  0.89740273  1
  H+  H372  1  0.39705465  0.53221638  0.50420906  1
  H+  H373  1  0.31668822  0.15580936  0.09419971  1
  H+  H374  1  0.40827926  0.08406045  0.27125107  1
  H+  H375  1  0.52927132  0.63406343  0.47801610  1
  H+  H376  1  0.91411588  0.81695177  0.92513813  1
  H+  H377  1  0.26468788  0.16829784  0.00688654  1
  H+  H378  1  0.06951262  0.64593778  0.42028988  1
  H+  H379  1  0.66522871  0.82636313  0.94438388  1
  H+  H380  1  0.58557763  0.44447813  0.74032431  1
  H+  H381  1  0.89464371  0.29014617  -0.00390408  1
  H+  H382  1  0.31348487  0.90263863  0.42959877  1
  H+  H383  1  0.68583740  0.06364100  0.95934011  1
  O2-  O384  1  0.04519355  0.15518074  0.18510628  1
  O2-  O385  1  0.08173054  0.17247192  0.48715736  1
  O2-  O386  1  0.08268300  0.17655471  0.80582795  1
  O2-  O387  1  0.08368913  0.45636493  0.14183929  1
  O2-  O388  1  0.08097599  0.41068933  0.47645946  1
  O2-  O389  1  0.08936948  0.42755619  0.81347488  1
  O2-  O390  1  0.10534263  0.65968898  0.14140692  1
  O2-  O391  1  0.07136437  0.64732241  0.46580652  1
  O2-  O392  1  0.05297321  0.71221246  0.79942039  1
  O2-  O393  1  0.08504166  0.92615231  0.13743690  1
  O2-  O394  1  0.07361694  0.91218922  0.45859359  1
  O2-  O395  1  0.05648403  0.86488388  0.79517724  1
  O2-  O396  1  0.29972236  0.13744224  0.13646383  1
  O2-  O397  1  0.31822036  0.15045081  0.48323985  1
  O2-  O398  1  0.33303756  0.17419094  0.87976037  1
  O2-  O399  1  0.32927362  0.48206193  0.10483080  1
  O2-  O400  1  0.33979450  0.42996869  0.47916831  1
  O2-  O401  1  0.33148455  0.42448917  0.81776698  1
  O2-  O402  1  0.31888441  0.67985270  0.14310180  1
  O2-  O403  1  0.33699668  0.66594054  0.47469056  1
  O2-  O404  1  0.35080343  0.68102227  0.81474155  1
  O2-  O405  1  0.33420584  0.92190148  0.14861304  1
  O2-  O406  1  0.31335215  0.89926947  0.47536462  1
  O2-  O407  1  0.34992780  0.92963804  0.81995858  1
  O2-  O408  1  0.57410449  0.11421882  0.13306000  1
  O2-  O409  1  0.55380313  0.08081369  0.46343257  1
  O2-  O410  1  0.56191838  0.18298465  0.79660579  1
  O2-  O411  1  0.59497740  0.41728832  0.15238400  1
  O2-  O412  1  0.58859686  0.42590233  0.47387682  1
  O2-  O413  1  0.57433459  0.42691384  0.81983687  1
  O2-  O414  1  0.60241681  0.66271087  0.15186236  1
  O2-  O415  1  0.58784487  0.66017915  0.45896471  1
  O2-  O416  1  0.58763830  0.66360357  0.82710014  1
  O2-  O417  1  0.59532835  0.90636227  0.16570995  1
  O2-  O418  1  0.56880976  0.90575442  0.48309063  1
  O2-  O419  1  0.60213567  0.91121649  0.80990504  1
  O2-  O420  1  0.86491257  0.18410134  0.14777980  1
  O2-  O421  1  0.84259058  0.16392857  0.48895779  1
  O2-  O422  1  0.83984337  0.17911475  0.81343936  1
  O2-  O423  1  0.86361101  0.45032653  0.20500118  1
  O2-  O424  1  0.82684215  0.39992556  0.48033038  1
  O2-  O425  1  0.83331208  0.43652965  0.81363118  1
  O2-  O426  1  0.84940161  0.67176572  0.15368975  1
  O2-  O427  1  0.82992736  0.65286285  0.47249424  1
  O2-  O428  1  0.83992543  0.63591649  0.83142781  1
  O2-  O429  1  0.89728405  0.94771283  0.13178133  1
  O2-  O430  1  0.82170715  0.91281407  0.44602543  1
  O2-  O431  1  0.82901794  0.91421223  0.81382128  1
  O2-  O432  1  0.14652395  0.07877765  0.18683728  1
  O2-  O433  1  0.15006883  0.07388033  0.50941913  1
  O2-  O434  1  0.15463223  0.10148481  0.86448877  1
  O2-  O435  1  0.19085058  0.38813501  0.17094939  1
  O2-  O436  1  0.17508286  0.34474769  0.52296335  1
  O2-  O437  1  0.16092194  0.33895759  0.85299934  1
  O2-  O438  1  0.14948787  0.61783518  0.17022020  1
  O2-  O439  1  0.16958557  0.57730661  0.50950155  1
  O2-  O440  1  0.18136339  0.58809476  0.85081964  1
  O2-  O441  1  0.16102981  0.82368017  0.17988489  1
  O2-  O442  1  0.14391827  0.81585482  0.49944890  1
  O2-  O443  1  0.18346742  0.85219751  0.86197226  1
  O2-  O444  1  0.41164464  0.08482751  0.19249660  1
  O2-  O445  1  0.40009323  0.05765938  0.51339733  1
  O2-  O446  1  0.42217538  0.09387239  0.86470548  1
  O2-  O447  1  0.42821644  0.35197351  0.20618262  1
  O2-  O448  1  0.43674757  0.36307733  0.52187586  1
  O2-  O449  1  0.41382038  0.34780722  0.87182857  1
  O2-  O450  1  0.44392121  0.50625056  0.19330571  1
  O2-  O451  1  0.43246795  0.59365513  0.51788698  1
  O2-  O452  1  0.42124460  0.58813131  0.86488598  1
  O2-  O453  1  0.42101439  0.84133300  0.19120778  1
  O2-  O454  1  0.40249909  0.82580454  0.52215874  1
  O2-  O455  1  0.43422696  0.84577976  0.85949007  1
  O2-  O456  1  0.69756406  0.08854804  0.18156741  1
  O2-  O457  1  0.69047633  0.05351998  0.55206449  1
  O2-  O458  1  0.66082664  0.11326975  0.84531666  1
  O2-  O459  1  0.68557578  0.34553092  0.20140407  1
  O2-  O460  1  0.65179445  0.31563511  0.48197636  1
  O2-  O461  1  0.66459469  0.34401267  0.85203611  1
  O2-  O462  1  0.66967280  0.57889537  0.18319413  1
  O2-  O463  1  0.66982597  0.58318844  0.51816110  1
  O2-  O464  1  0.67125617  0.58081851  0.87312645  1
  O2-  O465  1  0.65950673  0.80982497  0.21699706  1
  O2-  O466  1  0.66488058  0.82090966  0.50149522  1
  O2-  O467  1  0.66870256  0.82753666  0.86407880  1
  O2-  O468  1  0.95216547  0.09541175  0.19053302  1
  O2-  O469  1  0.93275731  0.09987720  0.53709955  1
  O2-  O470  1  0.91868407  0.08122030  0.85222040  1
  O2-  O471  1  0.93114462  0.34547881  0.19622428  1
  O2-  O472  1  0.91952576  0.32791972  0.52412110  1
  O2-  O473  1  0.92074491  0.35033968  0.85376373  1
  O2-  O474  1  0.92385098  0.57593220  0.12833227  1
  O2-  O475  1  0.91001407  0.56838365  0.51298720  1
  O2-  O476  1  0.89926353  0.60261607  0.84976593  1
  O2-  O477  1  0.91718248  0.88092591  0.14920467  1
  O2-  O478  1  0.94198262  0.80036908  0.53003351  1
  O2-  O479  1  0.90600869  0.81392414  0.85174876  1
  O2-  O480  1  0.16977859  0.08205412  0.30963637  1
  O2-  O481  1  0.16075765  0.09565479  0.63272377  1
  O2-  O482  1  0.15756643  0.12662374  0.98960687  1
  O2-  O483  1  0.17959882  0.34516297  0.29991738  1
  O2-  O484  1  0.18158613  0.35235996  0.64313320  1
  O2-  O485  1  0.14086135  0.32568129  0.98119406  1
  O2-  O486  1  0.15147719  0.57475465  0.29328540  1
  O2-  O487  1  0.20911342  0.54641495  0.62314258  1
  O2-  O488  1  0.17212326  0.58991431  0.97568787  1
  O2-  O489  1  0.15103269  0.82219429  0.30453109  1
  O2-  O490  1  0.05982087  0.75610360  0.60789623  1
  O2-  O491  1  0.17492344  0.84980404  0.98381907  1
  O2-  O492  1  0.40657342  0.08102470  0.31674862  1
  O2-  O493  1  0.40096118  0.10280307  0.62301435  1
  O2-  O494  1  0.42841233  0.09585293  0.98950939  1
  O2-  O495  1  0.41401734  0.32970585  0.32161431  1
  O2-  O496  1  0.43137203  0.35807375  0.64595061  1
  O2-  O497  1  0.41626901  0.35675481  0.99804875  1
  O2-  O498  1  0.42791162  0.57089964  0.30675683  1
  O2-  O499  1  0.42723292  0.58724956  0.64641634  1
  O2-  O500  1  0.42052410  0.59476014  0.98822831  1
  O2-  O501  1  0.40905779  0.84160925  0.31376983  1
  O2-  O502  1  0.41933045  0.83450669  0.64594411  1
  O2-  O503  1  0.42761944  0.84701659  0.98592437  1
  O2-  O504  1  0.63441073  0.07440797  0.29638672  1
  O2-  O505  1  0.63755180  0.08128410  0.66190265  1
  O2-  O506  1  0.68068259  0.07724711  1.00145021  1
  O2-  O507  1  0.66382646  0.32711891  0.32036246  1
  O2-  O508  1  0.66608101  0.34751477  0.69702739  1
  O2-  O509  1  0.67702779  0.33958269  0.97421813  1
  O2-  O510  1  0.66961048  0.57690783  0.30383986  1
  O2-  O511  1  0.68370566  0.58439821  0.63749812  1
  O2-  O512  1  0.65891944  0.57667845  0.99511867  1
  O2-  O513  1  0.65800752  0.81383636  0.28399808  1
  O2-  O514  1  0.67685026  0.78210556  0.62888821  1
  O2-  O515  1  0.66500830  0.82346372  0.98980408  1
  O2-  O516  1  0.90546020  0.06146234  0.30727341  1
  O2-  O517  1  0.92664992  0.09115175  0.64931523  1
  O2-  O518  1  0.94832816  0.10518219  0.96887106  1
  O2-  O519  1  0.91760486  0.31817777  0.31960125  1
  O2-  O520  1  0.92485004  0.35125924  0.64665198  1
  O2-  O521  1  0.92087619  0.35041097  0.97912863  1
  O2-  O522  1  0.90118578  0.54679862  0.30723744  1
  O2-  O523  1  0.91937606  0.59002738  0.63432870  1
  O2-  O524  1  0.90947765  0.58673017  0.96989513  1
  O2-  O525  1  0.91016785  0.84098086  0.26368808  1
  O2-  O526  1  0.89845484  0.83150651  0.64807475  1
  O2-  O527  1  0.91777485  0.81636262  0.97133527  1
  O2-  O528  1  0.10657327  0.16066353  0.01751088  1
  O2-  O529  1  0.04867941  0.10843775  0.37168947  1
  O2-  O530  1  0.08313975  0.17759551  0.68529771  1
  O2-  O531  1  0.07916704  0.42226557  0.02155418  1
  O2-  O532  1  0.08389736  0.40778461  0.35094568  1
  O2-  O533  1  0.07068735  0.47004622  0.69891744  1
  O2-  O534  1  0.08477061  0.67365816  0.01241427  1
  O2-  O535  1  0.06681415  0.65308561  0.34158679  1
  O2-  O536  1  0.07101704  0.62456461  0.70502165  1
  O2-  O537  1  0.10119793  0.95534938  0.01953565  1
  O2-  O538  1  0.06859046  0.91256008  0.33374022  1
  O2-  O539  1  0.03640517  0.95203085  0.70012432  1
  O2-  O540  1  0.32685454  0.18455571  0.00900399  1
  O2-  O541  1  0.32695166  0.16820773  0.36002408  1
  O2-  O542  1  0.34309517  0.20053727  0.60535358  1
  O2-  O543  1  0.33336217  0.44340689  0.04684397  1
  O2-  O544  1  0.33795948  0.41666078  0.35628216  1
  O2-  O545  1  0.34205904  0.42698765  0.69341189  1
  O2-  O546  1  0.33517055  0.68025159  0.01763269  1
  O2-  O547  1  0.39281718  0.69355286  0.36104515  1
  O2-  O548  1  0.34853292  0.67305881  0.68992581  1
  O2-  O549  1  0.34143667  0.92927949  0.02466799  1
  O2-  O550  1  0.31479358  0.91233608  0.35326093  1
  O2-  O551  1  0.39874145  0.95738897  0.70089230  1
  O2-  O552  1  0.59976019  0.17037979  0.01478388  1
  O2-  O553  1  0.57736581  0.16466849  0.35310048  1
  O2-  O554  1  0.54670876  0.16688890  0.67479690  1
  O2-  O555  1  0.58229302  0.41189059  0.02960834  1
  O2-  O556  1  0.58524683  0.41360329  0.35332113  1
  O2-  O557  1  0.59257962  0.44126917  0.69536333  1
  O2-  O558  1  0.58024372  0.66462450  0.03661531  1
  O2-  O559  1  0.59033860  0.66843311  0.33598057  1
  O2-  O560  1  0.58170846  0.64434181  0.70791654  1
  O2-  O561  1  0.58416353  0.90580496  0.04145414  1
  O2-  O562  1  0.56831707  0.92115533  0.36570416  1
  O2-  O563  1  0.58403437  0.92379980  0.68208791  1
  O2-  O564  1  0.86116428  0.19197177  0.02380922  1
  O2-  O565  1  0.83039128  0.14694030  0.36158294  1
  O2-  O566  1  0.85297698  0.18013058  0.68799505  1
  O2-  O567  1  0.83981866  0.42885483  0.00212089  1
  O2-  O568  1  0.82644815  0.39050773  0.36002032  1
  O2-  O569  1  0.84227699  0.43564702  0.68979960  1
  O2-  O570  1  0.82402515  0.66059138  0.02782946  1
  O2-  O571  1  0.83375971  0.63973653  0.34690667  1
  O2-  O572  1  0.83119718  0.66501299  0.68245849  1
  O2-  O573  1  0.83565498  0.90013435  0.02583185  1
  O2-  O574  1  0.81023833  0.89181034  0.31890976  1
  O2-  O575  1  0.83108767  0.93174747  0.68571929  1
