# generated using pymatgen
data_H2O
_symmetry_space_group_name_H-M   'P 1'
_cell_length_a   17.92788682
_cell_length_b   17.94580494
_cell_length_c   21.93303331
_cell_angle_alpha   89.95051238
_cell_angle_beta   90.04489770
_cell_angle_gamma   119.99646612
_symmetry_Int_Tables_number   1
_chemical_formula_structural   H2O
_chemical_formula_sum   'H384 O192'
_cell_volume   6111.34273996
_cell_formula_units_Z   192
loop_
 _symmetry_equiv_pos_site_id
 _symmetry_equiv_pos_as_xyz
  1  'x, y, z'
loop_
 _atom_type_symbol
 _atom_type_oxidation_number
  H+  1.0
  O2-  -2.0
loop_
 _atom_site_type_symbol
 _atom_site_label
 _atom_site_symmetry_multiplicity
 _atom_site_fract_x
 _atom_site_fract_y
 _atom_site_fract_z
 _atom_site_occupancy
  H+  H0  1  0.36851237  0.66345031  0.34530675  1
  H+  H1  1  0.74708505  0.36933349  0.32314710  1
  H+  H2  1  1.07710755  0.69888461  0.11639300  1
  H+  H3  1  0.86460809  0.57223452  0.66602239  1
  H+  H4  1  0.11194656  0.71962500  0.49842304  1
  H+  H5  1  0.36784247  0.61808281  0.50276953  1
  H+  H6  1  0.11718921  0.34611231  0.65558291  1
  H+  H7  1  0.21546964  0.59613126  0.83347936  1
  H+  H8  1  0.87928984  0.47058449  0.49815808  1
  H+  H9  1  0.62776081  0.76132645  0.65066689  1
  H+  H10  1  0.66274509  0.00368465  0.63542253  1
  H+  H11  1  0.08496549  0.67590779  0.40488807  1
  H+  H12  1  0.59135244  0.61476708  0.01318628  1
  H+  H13  1  0.39343621  0.76655509  0.47573867  1
  H+  H14  1  1.02336255  0.65120826  0.34536884  1
  H+  H15  1  0.85685604  0.84938606  0.32141524  1
  H+  H16  1  0.37224916  0.74549341  -0.01457852  1
  H+  H17  1  0.63970154  0.61302928  0.84462924  1
  H+  H18  1  0.87145475  0.39411078  0.34151909  1
  H+  H19  1  0.47963131  0.46116938  0.47571125  1
  H+  H20  1  0.65564462  0.27488019  0.01425819  1
  H+  H21  1  -0.01500441  0.34790982  0.50286289  1
  H+  H22  1  0.56421910  0.32911275  0.40359360  1
  H+  H23  1  0.29449057  0.12996746  -0.01381449  1
  H+  H24  1  0.88688171  0.87685091  0.64778806  1
  H+  H25  1  0.62529127  0.36200159  0.34668908  1
  H+  H26  1  0.22975648  0.60216330  0.51988808  1
  H+  H27  1  0.45845471  0.86942866  0.30961438  1
  H+  H28  1  0.35232374  0.12928639  0.50513753  1
  H+  H29  1  0.51004792  0.62377188  0.67697121  1
  H+  H30  1  0.92237105  0.10764371  0.21435733  1
  H+  H31  1  0.14812473  0.15323413  0.32125203  1
  H+  H32  1  0.95044953  0.09772853  0.83632402  1
  H+  H33  1  0.62773516  0.72615135  0.49353929  1
  H+  H34  1  0.11752578  0.46232476  0.50211243  1
  H+  H35  1  0.90886794  0.44611668  0.78709096  1
  H+  H36  1  0.42893283  0.12707554  0.97153805  1
  H+  H37  1  0.14335850  0.60820153  0.51413546  1
  H+  H38  1  0.37185318  0.00448704  0.51113122  1
  H+  H39  1  0.42235630  0.14535774  0.13507709  1
  H+  H40  1  0.85774758  0.63643996  0.33815057  1
  H+  H41  1  1.03062456  0.67182744  1.02222123  1
  H+  H42  1  0.58826782  0.86029300  0.02138342  1
  H+  H43  1  0.89133966  0.53033506  0.33175479  1
  H+  H44  1  0.37224533  0.22156831  0.35330446  1
  H+  H45  1  0.11662161  0.76584900  0.65954408  1
  H+  H46  1  1.04760322  0.24256778  0.22836671  1
  H+  H47  1  0.11666994  0.40161273  0.16433183  1
  H+  H48  1  0.35475708  0.45088422  0.01198632  1
  H+  H49  1  0.31238488  0.65711627  0.06096879  1
  H+  H50  1  0.13186649  0.78057995  0.33689009  1
  H+  H51  1  0.89689097  0.60899001  0.50587526  1
  H+  H52  1  0.10246247  0.48228075  0.16280236  1
  H+  H53  1  0.58547316  0.69845254  0.03081520  1
  H+  H54  1  0.99132282  0.14987619  1.04289902  1
  H+  H55  1  0.35053273  0.63885144  0.15774266  1
  H+  H56  1  0.09790110  0.77135804  1.02693364  1
  H+  H57  1  0.41744050  0.52674124  0.50876434  1
  H+  H58  1  0.85416488  0.31594255  0.64725203  1
  H+  H59  1  0.85540401  0.21889487  0.48383167  1
  H+  H60  1  0.63234516  0.24172903  0.79335292  1
  H+  H61  1  0.84947122  0.09903780  0.99597159  1
  H+  H62  1  0.28518004  0.88097914  0.09121826  1
  H+  H63  1  1.02469554  0.39997289  0.34590893  1
  H+  H64  1  0.94458703  0.53072639  0.99550838  1
  H+  H65  1  0.50890380  0.62582045  0.17171080  1
  H+  H66  1  0.37936827  0.97768882  0.81864392  1
  H+  H67  1  0.28477035  0.89323619  0.82753828  1
  H+  H68  1  0.75931493  0.36821253  0.51150966  1
  H+  H69  1  0.61666431  0.72552182  0.82555417  1
  H+  H70  1  0.01379797  0.61864826  0.67367026  1
  H+  H71  1  0.37924100  0.86003585  0.65480093  1
  H+  H72  1  0.90747457  0.82199452  0.56200287  1
  H+  H73  1  0.68794085  0.35978780  0.92582975  1
  H+  H74  1  0.36810021  0.28355991  0.19491275  1
  H+  H75  1  0.63879599  0.81194201  1.09346291  1
  H+  H76  1  0.25543125  0.87659265  0.67290014  1
  H+  H77  1  0.37029274  0.78215641  0.30756590  1
  H+  H78  1  0.64755600  0.37230993  0.82522623  1
  H+  H79  1  0.86682324  0.63225334  0.84064542  1
  H+  H80  1  0.39741576  0.10714861  0.34029903  1
  H+  H81  1  0.17262622  0.22967421  0.06508624  1
  H+  H82  1  0.86353830  0.36100142  0.82641899  1
  H+  H83  1  0.88741883  0.54137689  0.17377642  1
  H+  H84  1  1.01192764  0.90653757  0.99471901  1
  H+  H85  1  0.89753407  0.76429034  0.61944399  1
  H+  H86  1  0.21304187  0.61708995  0.17088649  1
  H+  H87  1  -0.02580362  0.85671165  0.83771356  1
  H+  H88  1  0.30457270  0.15642438  0.16119778  1
  H+  H89  1  0.52694940  0.63783239  0.83319809  1
  H+  H90  1  0.35789296  0.58706826  0.99755446  1
  H+  H91  1  0.88279751  0.28026376  0.32484095  1
  H+  H92  1  0.44403824  0.48032836  0.34113871  1
  H+  H93  1  0.12471986  0.11082788  0.66894411  1
  H+  H94  1  0.67150153  0.27578844  0.30562584  1
  H+  H95  1  0.16442770  1.01540207  0.17136933  1
  H+  H96  1  0.68870225  0.85989267  0.87827140  1
  H+  H97  1  0.45751620  0.05745968  0.97634623  1
  H+  H98  1  0.52437449  0.32403618  0.55207649  1
  H+  H99  1  0.12703132  0.89422602  -0.01486866  1
  H+  H100  1  0.21481760  0.40969721  0.96808754  1
  H+  H101  1  0.38112739  0.40694901  0.17586472  1
  H+  H102  1  0.36976727  0.23957179  0.66626729  1
  H+  H103  1  0.60552476  0.72701557  0.33452496  1
  H+  H104  1  0.32643317  0.41663204  0.72427767  1
  H+  H105  1  0.90344265  0.07569939  0.31724701  1
  H+  H106  1  0.79903453  0.42199958  0.00065726  1
  H+  H107  1  0.84757560  0.22455214  0.63993537  1
  H+  H108  1  0.81745122  0.96000505  -0.00107898  1
  H+  H109  1  0.36242803  0.73583891  0.38854703  1
  H+  H110  1  0.36501817  0.35455243  0.51257951  1
  H+  H111  1  0.88594747  1.02151460  0.49437916  1
  H+  H112  1  0.18960964  0.19486481  0.00227806  1
  H+  H113  1  0.19977664  0.19920498  0.15733381  1
  H+  H114  1  0.09009249  0.21294119  0.82015893  1
  H+  H115  1  0.37546751  0.84136619  0.46017389  1
  H+  H116  1  0.86941651  0.64762318  0.16281384  1
  H+  H117  1  0.61985317  0.89756660  0.80714478  1
  H+  H118  1  0.35906508  0.42889772  0.10989730  1
  H+  H119  1  0.72137340  0.88315937  0.16703313  1
  H+  H120  1  0.47416413  0.62788032  0.33201282  1
  H+  H121  1  0.35610343  0.62825940  0.82494584  1
  H+  H122  1  0.72849427  0.61122823  0.84918589  1
  H+  H123  1  0.10860615  0.65239442  0.16761916  1
  H+  H124  1  0.58979378  0.96600617  0.34091945  1
  H+  H125  1  0.61777816  0.48165382  0.82096925  1
  H+  H126  1  0.61353822  0.50526732  0.17720020  1
  H+  H127  1  0.89738644  0.01051584  0.64808252  1
  H+  H128  1  0.11650263  0.51194581  0.99131594  1
  H+  H129  1  0.75117817  0.35316380  0.66745673  1
  H+  H130  1  0.72125424  0.11037071  0.79786170  1
  H+  H131  1  0.64831135  0.83737340  0.21743641  1
  H+  H132  1  0.12954612  0.60067685  0.83395595  1
  H+  H133  1  0.57481664  0.65466818  0.73352820  1
  H+  H134  1  0.09361518  0.38239471  0.00795452  1
  H+  H135  1  0.21892825  0.88532221  0.18823167  1
  H+  H136  1  0.89039661  0.51971347  0.85609584  1
  H+  H137  1  0.18945084  0.11361307  0.81673425  1
  H+  H138  1  0.87430540  0.49086828  0.65566114  1
  H+  H139  1  0.91418531  0.30912801  0.55761233  1
  H+  H140  1  0.47228708  0.10341326  0.87689987  1
  H+  H141  1  0.99538589  0.86444334  0.14796743  1
  H+  H142  1  0.13415174  0.25124354  0.50282427  1
  H+  H143  1  0.09978869  0.10371195  0.83045145  1
  H+  H144  1  0.16223821  0.24759516  0.32994882  1
  H+  H145  1  0.17499262  0.31210864  0.16999863  1
  H+  H146  1  0.21016406  0.26758122  0.87286330  1
  H+  H147  1  0.62757619  0.85053540  0.64560505  1
  H+  H148  1  0.49218822  0.62133061  0.51526113  1
  H+  H149  1  0.05240458  0.15535174  0.75932050  1
  H+  H150  1  0.21659400  0.11240191  0.67272205  1
  H+  H151  1  0.38671981  0.52303731  0.83944095  1
  H+  H152  1  0.48409966  0.34861867  0.33968445  1
  H+  H153  1  0.86611940  0.86217576  0.16869496  1
  H+  H154  1  0.67394495  0.82503604  0.56800763  1
  H+  H155  1  -0.04541468  0.33068982  0.84555212  1
  H+  H156  1  0.83832678  0.10375195  0.18831851  1
  H+  H157  1  0.91485919  0.34386170  0.26728988  1
  H+  H158  1  0.62662651  0.60495897  0.65909976  1
  H+  H159  1  0.53439869  0.88996920  0.38929204  1
  H+  H160  1  0.35720905  0.97850851  0.34312309  1
  H+  H161  1  0.83916279  0.88262366  1.00057906  1
  H+  H162  1  0.50802509  0.88999080  0.15100625  1
  H+  H163  1  0.11292229  0.85340133  0.66115024  1
  H+  H164  1  0.74092891  0.58894488  0.68543248  1
  H+  H165  1  0.63580801  0.51974748  -0.00010236  1
  H+  H166  1  0.02909696  0.62678577  0.49694370  1
  H+  H167  1  0.85674843  0.64445356  0.00769008  1
  H+  H168  1  0.00323673  0.11603912  0.03613290  1
  H+  H169  1  0.39746418  0.07218672  0.60525606  1
  H+  H170  1  0.28587170  0.38409803  0.82058681  1
  H+  H171  1  0.44714292  0.58732240  1.00114582  1
  H+  H172  1  0.60824971  0.63843049  0.33710108  1
  H+  H173  1  0.59115329  0.18841748  0.38072790  1
  H+  H174  1  0.63036725  -0.00168139  0.97557896  1
  H+  H175  1  0.86158951  0.87441179  0.81359579  1
  H+  H176  1  0.68647807  0.51934188  0.49528095  1
  H+  H177  1  0.72382056  0.60911382  0.32920503  1
  H+  H178  1  0.15657497  0.34813702  0.50752702  1
  H+  H179  1  0.15930380  0.84317518  0.27329525  1
  H+  H180  1  0.87614516  0.78162970  -0.00999822  1
  H+  H181  1  0.82254478  0.10285426  0.84600402  1
  H+  H182  1  0.85906378  -0.03815927  0.81036590  1
  H+  H183  1  0.60227566  0.38201629  0.15938885  1
  H+  H184  1  0.37695523  0.86269370  0.15030360  1
  H+  H185  1  1.02679900  0.63849571  0.82918757  1
  H+  H186  1  0.38248241  0.77409734  0.65463228  1
  H+  H187  1  0.84797334  0.14060483  0.33048614  1
  H+  H188  1  0.10437769  0.18477967  0.16661489  1
  H+  H189  1  0.69994438  0.83984257  1.03557276  1
  H+  H190  1  0.73897718  0.14788734  0.17479545  1
  H+  H191  1  0.88501377  0.76681118  0.83849502  1
  H+  H192  1  0.35530035  0.71616483  0.81893290  1
  H+  H193  1  0.40436281  0.26627114  -0.01603363  1
  H+  H194  1  0.38680840  0.53685347  0.18070555  1
  H+  H195  1  0.37911236  0.99870968  0.18128875  1
  H+  H196  1  0.51084833  0.12596397  0.80821969  1
  H+  H197  1  0.65884213  0.38976286  0.98666651  1
  H+  H198  1  0.70444028  0.10034300  0.32942137  1
  H+  H199  1  0.40460732  0.27544692  0.83546088  1
  H+  H200  1  0.51789574  0.31293738  0.51874253  1
  H+  H201  1  0.36252904  0.50943857  0.65984221  1
  H+  H202  1  0.48004840  0.86013102  0.83276296  1
  H+  H203  1  0.04953141  -0.01811458  0.36772336  1
  H+  H204  1  0.82181619  0.16691258  0.39259249  1
  H+  H205  1  1.06188312  0.17956031  0.27014733  1
  H+  H206  1  0.22557731  0.63201824  0.32826854  1
  H+  H207  1  0.84413021  0.22432626  0.02107318  1
  H+  H208  1  0.25093191  0.61365775  0.67114077  1
  H+  H209  1  0.14334446  0.86473127  0.83407119  1
  H+  H210  1  0.25090234  0.40467111  0.17555072  1
  H+  H211  1  0.94950148  0.85902558  0.32523753  1
  H+  H212  1  0.66483764  0.63016747  0.50540094  1
  H+  H213  1  0.51062011  0.37835015  0.16439482  1
  H+  H214  1  0.87008495  0.28163170  0.17757340  1
  H+  H215  1  0.51595385  0.06988252  0.20477673  1
  H+  H216  1  0.39159055  0.86050154  0.83738372  1
  H+  H217  1  0.35498943  0.12142683  0.67156873  1
  H+  H218  1  0.85803325  0.73963686  0.16058199  1
  H+  H219  1  0.40276977  0.36328992  0.34319843  1
  H+  H220  1  0.70619236  0.09669504  0.72639600  1
  H+  H221  1  0.11142569  0.48939624  0.34732875  1
  H+  H222  1  0.11771288  0.72602879  0.82590110  1
  H+  H223  1  0.57318248  0.18443031  0.01926559  1
  H+  H224  1  0.57915180  0.11455061  0.44904233  1
  H+  H225  1  0.84730209  0.98285375  0.16298198  1
  H+  H226  1  0.32049800  0.64770277  0.72937058  1
  H+  H227  1  0.67924826  0.33577917  0.56672335  1
  H+  H228  1  0.46180489  0.34519204  0.65392293  1
  H+  H229  1  0.44961344  0.06988519  0.25537457  1
  H+  H230  1  0.89683151  0.74014801  0.48398148  1
  H+  H231  1  0.25731799  0.11774159  0.32250118  1
  H+  H232  1  0.61774136  0.35103455  0.65234569  1
  H+  H233  1  0.36178862  0.01145272  0.66390887  1
  H+  H234  1  0.70088511  0.85693054  0.32000996  1
  H+  H235  1  0.23096209  0.87482142  0.33337574  1
  H+  H236  1  0.14166963  0.04389703  0.98791069  1
  H+  H237  1  0.38530037  0.54259463  0.33692122  1
  H+  H238  1  0.83672485  0.96058943  0.33627232  1
  H+  H239  1  0.60820917  1.02666529  0.17678292  1
  H+  H240  1  0.84896860  0.72169842  0.33632894  1
  H+  H241  1  0.73650065  0.37214620  0.82600675  1
  H+  H242  1  0.21776376  0.89986915  0.99132040  1
  H+  H243  1  0.10382271  0.84132615  0.50623438  1
  H+  H244  1  0.47339484  0.84169111  -0.00875899  1
  H+  H245  1  0.68786888  0.40208709  0.50591099  1
  H+  H246  1  0.08122589  0.45037580  0.66993447  1
  H+  H247  1  0.19989503  0.06738745  0.51939870  1
  H+  H248  1  0.59918517  0.60108449  0.17438686  1
  H+  H249  1  0.63249772  0.15726555  0.76677718  1
  H+  H250  1  0.08715582  0.87205894  0.15110693  1
  H+  H251  1  0.61402405  -0.01845670  0.78879358  1
  H+  H252  1  0.93953912  1.08150768  0.33824012  1
  H+  H253  1  0.00482025  0.12700064  0.66599791  1
  H+  H254  1  0.16782884  0.31112028  0.98731235  1
  H+  H255  1  0.86729920  0.40476664  0.16021377  1
  H+  H256  1  0.13035312  0.60433367  0.66595942  1
  H+  H257  1  0.75824010  0.13331846  1.01899044  1
  H+  H258  1  0.46753255  0.08061906  0.51879903  1
  H+  H259  1  1.01804083  0.13497374  0.47501912  1
  H+  H260  1  0.32561105  0.20309462  0.50632269  1
  H+  H261  1  0.10210785  -0.03083494  0.82576271  1
  H+  H262  1  0.63447616  0.52126416  0.33475908  1
  H+  H263  1  0.87649405  0.10544551  0.49580194  1
  H+  H264  1  0.08319086  0.16993480  0.41825884  1
  H+  H265  1  0.48181788  0.09418492  0.35380304  1
  H+  H266  1  0.87764297  0.36222396  -0.00252527  1
  H+  H267  1  0.17345306  0.03127248  0.13911764  1
  H+  H268  1  0.25714442  0.38414248  0.66928214  1
  H+  H269  1  0.73554525  0.86470430  0.81621014  1
  H+  H270  1  0.35318445  0.60997484  0.66388661  1
  H+  H271  1  0.53244785  0.38260631  1.00319658  1
  H+  H272  1  0.25054885  0.62609253  1.00122398  1
  H+  H273  1  0.34645896  0.88482854  0.33161335  1
  H+  H274  1  0.04155199  0.90677068  0.40728608  1
  H+  H275  1  0.60942574  0.85169737  0.31909074  1
  H+  H276  1  0.29148763  0.34822293  0.02792076  1
  H+  H277  1  0.37755664  0.39268477  0.81821013  1
  H+  H278  1  0.79160273  0.88071151  0.49061572  1
  H+  H279  1  0.25273515  0.87209799  0.49241826  1
  H+  H280  1  0.34816522  0.72582145  0.15058776  1
  H+  H281  1  0.13625180  0.78720604  0.18750996  1
  H+  H282  1  0.31365162  0.12875117  0.83877301  1
  H+  H283  1  0.10303591  0.97645901  0.68015682  1
  H+  H284  1  0.08736637  0.44937001  0.82545365  1
  H+  H285  1  0.61270626  0.09443782  0.34441211  1
  H+  H286  1  0.21934678  0.36404019  0.27350464  1
  H+  H287  1  0.59377456  0.46551401  0.66062945  1
  H+  H288  1  0.17061058  0.32443817  0.89034378  1
  H+  H289  1  0.43043786  0.33570304  0.89393548  1
  H+  H290  1  0.81732963  0.37560166  0.72262665  1
  H+  H291  1  0.64624056  0.56758836  0.23850483  1
  H+  H292  1  1.04437460  0.57740473  0.97381888  1
  H+  H293  1  0.09012279  0.41470495  0.43815292  1
  H+  H294  1  0.55752299  0.91148965  0.06152676  1
  H+  H295  1  0.14950272  0.56544533  0.92823994  1
  H+  H296  1  0.82453394  0.64222983  0.77949183  1
  H+  H297  1  0.81731383  0.90482144  0.39606814  1
  H+  H298  1  0.76299123  0.63498511  0.00956733  1
  H+  H299  1  0.57048473  0.41163173  0.72234106  1
  H+  H300  1  0.06507911  0.92089319  0.05542691  1
  H+  H301  1  0.33881726  0.05775331  0.12657573  1
  H+  H302  1  0.82661984  0.19251291  0.85627049  1
  H+  H303  1  0.90625788  0.07050242  0.59078427  1
  H+  H304  1  0.65518258  0.45195218  0.43747006  1
  H+  H305  1  0.31055716  0.90756127  0.43296953  1
  H+  H306  1  0.84890477  0.44061906  0.06509792  1
  H+  H307  1  0.09492506  0.21733852  0.67046868  1
  H+  H308  1  0.53118727  0.39115579  0.81964311  1
  H+  H309  1  0.17207142  0.03923798  0.29289300  1
  H+  H310  1  0.15454315  0.31375349  0.59996362  1
  H+  H311  1  0.67734554  0.07025858  0.92296852  1
  H+  H312  1  0.62613173  0.24865300  0.11599487  1
  H+  H313  1  0.40895077  0.59818507  0.23962241  1
  H+  H314  1  0.17193206  0.84286877  0.89581167  1
  H+  H315  1  0.48829870  0.71784084  0.74126747  1
  H+  H316  1  0.77838064  0.40328993  0.15285759  1
  H+  H317  1  0.14977422  0.04975091  0.58206210  1
  H+  H318  1  0.52148042  0.88562193  0.65291661  1
  H+  H319  1  0.32172201  0.90571632  0.72960520  1
  H+  H320  1  0.76131003  0.64309271  0.51106662  1
  H+  H321  1  0.58276733  0.41257273  0.06680721  1
  H+  H322  1  0.60289685  0.90177977  0.15123806  1
  H+  H323  1  0.32982254  0.15527220  0.40982834  1
  H+  H324  1  0.14476391  0.82613441  0.56604234  1
  H+  H325  1  0.91536252  0.57129798  0.56708549  1
  H+  H326  1  0.25641528  0.15190387  0.22444378  1
  H+  H327  1  0.77724928  0.04366970  0.95281851  1
  H+  H328  1  0.55867867  0.63099257  0.10728406  1
  H+  H329  1  0.91718343  0.59080952  0.27220764  1
  H+  H330  1  0.94711032  0.58352692  0.90901719  1
  H+  H331  1  0.06243171  0.94030269  0.51090875  1
  H+  H332  1  0.16985041  0.09564698  0.92566868  1
  H+  H333  1  0.97675163  0.63253570  0.17933952  1
  H+  H334  1  0.59580794  0.21910733  0.69149584  1
  H+  H335  1  0.89281007  0.82829111  0.22952816  1
  H+  H336  1  0.84665018  0.66884727  0.43322724  1
  H+  H337  1  0.41586006  0.81334874  0.92264277  1
  H+  H338  1  0.34019100  0.16375891  0.73501673  1
  H+  H339  1  0.65359771  0.07823638  0.54667437  1
  H+  H340  1  0.35701867  0.14452599  0.04259581  1
  H+  H341  1  0.05213773  0.38708098  0.76864731  1
  H+  H342  1  0.95981511  0.35205594  0.99978638  1
  H+  H343  1  0.58924599  0.66606911  0.43511713  1
  H+  H344  1  0.40354612  0.14122698  0.82008194  1
  H+  H345  1  0.83347062  0.67327843  0.09809776  1
  H+  H346  1  0.42465986  0.34196760  0.24881839  1
  H+  H347  1  0.83938700  0.41792135  0.40277195  1
  H+  H348  1  0.58081365  0.91027851  0.71158519  1
  H+  H349  1  0.67492447  0.34056959  0.22159410  1
  H+  H350  1  0.07007105  0.41319423  0.07101590  1
  H+  H351  1  0.13645289  0.63040056  0.32819005  1
  H+  H352  1  0.40586574  0.44525262  0.42307569  1
  H+  H353  1  0.75979420  0.13594768  0.47981346  1
  H+  H354  1  0.81684995  0.08458872  0.65209249  1
  H+  H355  1  0.16033227  0.57326708  0.60622098  1
  H+  H356  1  0.07594129  0.65854043  0.73173344  1
  H+  H357  1  0.40263273  0.35448775  0.99361261  1
  H+  H358  1  0.07462594  0.90970661  0.76674269  1
  H+  H359  1  -0.00418425  0.35690561  0.66558621  1
  H+  H360  1  0.88575906  0.05698182  0.89387458  1
  H+  H361  1  0.90244355  0.83436345  0.92739389  1
  H+  H362  1  0.40242014  0.57280527  0.90253112  1
  H+  H363  1  0.66237756  0.57997910  0.94044115  1
  H+  H364  1  0.67416810  0.59055499  0.60111648  1
  H+  H365  1  0.15928872  0.59310635  0.23320923  1
  H+  H366  1  0.82676804  0.92752920  0.09937253  1
  H+  H367  1  0.89773616  0.31377768  0.90694500  1
  H+  H368  1  0.87592064  0.91042418  0.71407303  1
  H+  H369  1  0.88002018  0.37901673  0.49491551  1
  H+  H370  1  0.75053662  0.52595861  0.72928764  1
  H+  H371  1  0.96701128  0.36492037  0.17310249  1
  H+  H372  1  0.00629003  0.90675528  0.68462227  1
  H+  H373  1  0.31922509  0.62868215  0.44565925  1
  H+  H374  1  0.28514867  0.38470187  0.32904598  1
  H+  H375  1  0.39889191  0.83792446  0.21640486  1
  H+  H376  1  0.27243902  0.29831714  0.53928754  1
  H+  H377  1  0.80147825  0.16887104  0.11719526  1
  H+  H378  1  0.66516036  0.92150077  0.50914682  1
  H+  H379  1  0.40774965  0.57884680  0.60174142  1
  H+  H380  1  0.88665407  0.89399843  0.47652920  1
  H+  H381  1  0.37574534  0.30941527  0.60493628  1
  H+  H382  1  0.50320538  0.75465243  0.76294273  1
  H+  H383  1  0.63221949  0.07268649  0.24252603  1
  O2-  O384  1  0.15647298  0.21344768  0.14039047  1
  O2-  O385  1  0.07955168  0.16500834  0.46303530  1
  O2-  O386  1  0.05104748  0.15343704  0.80579284  1
  O2-  O387  1  0.07679179  0.42121353  0.14879932  1
  O2-  O388  1  0.09110083  0.40440522  0.48348188  1
  O2-  O389  1  0.05199571  0.38819183  0.81376799  1
  O2-  O390  1  0.08056729  0.68819255  0.16168800  1
  O2-  O391  1  0.08960546  0.66002902  0.48160989  1
  O2-  O392  1  0.08519271  0.66553057  0.81061731  1
  O2-  O393  1  0.04565590  0.87487664  0.12323203  1
  O2-  O394  1  0.03543025  0.88633717  0.48488686  1
  O2-  O395  1  0.07902147  0.90867775  0.81277860  1
  O2-  O396  1  0.36434903  0.12096038  0.11791257  1
  O2-  O397  1  0.31348402  0.14796323  0.48728956  1
  O2-  O398  1  0.36342281  0.16603889  0.81371374  1
  O2-  O399  1  0.35700702  0.43971019  0.15424770  1
  O2-  O400  1  0.41936371  0.44587283  0.47269748  1
  O2-  O401  1  0.34517936  0.42179935  0.80502501  1
  O2-  O402  1  0.31741658  0.66358782  0.13816274  1
  O2-  O403  1  0.32964690  0.64140666  0.48919621  1
  O2-  O404  1  0.32466379  0.65527322  0.80521019  1
  O2-  O405  1  0.31920345  0.96292797  0.15685764  1
  O2-  O406  1  0.31336070  0.90075792  0.47775189  1
  O2-  O407  1  0.34338938  0.91538197  0.80944257  1
  O2-  O408  1  0.61850068  0.25152064  0.16163234  1
  O2-  O409  1  0.58724822  0.11464914  0.49671815  1
  O2-  O410  1  0.60037064  0.18996258  0.76715149  1
  O2-  O411  1  0.56961561  0.41083417  0.14575688  1
  O2-  O412  1  0.68966490  0.47028752  0.47506329  1
  O2-  O413  1  0.59015429  0.42368412  0.80100931  1
  O2-  O414  1  0.56609397  0.63847379  0.15310079  1
  O2-  O415  1  0.59454834  0.66428234  0.48024190  1
  O2-  O416  1  0.58575831  0.66311367  0.81549800  1
  O2-  O417  1  0.56775293  0.92686410  0.13474320  1
  O2-  O418  1  0.64029354  0.86474328  0.48999162  1
  O2-  O419  1  0.58009767  0.91747899  0.79292335  1
  O2-  O420  1  0.80066368  0.17444926  0.16260666  1
  O2-  O421  1  0.82023768  0.15952611  0.46631442  1
  O2-  O422  1  0.78589287  0.12933312  0.85315510  1
  O2-  O423  1  0.84089329  0.43871446  0.14364836  1
  O2-  O424  1  0.84684532  0.40924355  0.48351019  1
  O2-  O425  1  0.85219752  0.40408868  0.80278388  1
  O2-  O426  1  0.83626292  0.67626122  0.14447687  1
  O2-  O427  1  0.85914732  0.67539812  0.47779653  1
  O2-  O428  1  0.83441612  0.65906013  0.82329566  1
  O2-  O429  1  0.82623451  0.92385905  0.14473987  1
  O2-  O430  1  0.84582879  0.91633114  0.46715412  1
  O2-  O431  1  0.83358042  0.90321575  0.79184485  1
  O2-  O432  1  0.28098985  0.18613617  0.18624649  1
  O2-  O433  1  0.14574209  0.02740347  0.54022604  1
  O2-  O434  1  0.14039087  0.08234331  0.84392959  1
  O2-  O435  1  0.18950383  0.36877001  0.18820727  1
  O2-  O436  1  0.17105083  0.30673392  0.52627855  1
  O2-  O437  1  0.18700784  0.30131765  0.85445153  1
  O2-  O438  1  0.15336619  0.58989024  0.18760815  1
  O2-  O439  1  0.16835030  0.57527613  0.53361492  1
  O2-  O440  1  0.15526141  0.56598510  0.84895618  1
  O2-  O441  1  0.15969314  0.84755457  0.20402139  1
  O2-  O442  1  0.14341380  0.82131343  0.52054738  1
  O2-  O443  1  0.17587942  0.83736115  0.85091188  1
  O2-  O444  1  0.45746261  0.06228450  0.21090656  1
  O2-  O445  1  0.40719481  0.06453190  0.52710970  1
  O2-  O446  1  0.45630293  0.09398689  0.83296206  1
  O2-  O447  1  0.41735900  0.34294755  0.20352660  1
  O2-  O448  1  0.32978708  0.30249919  0.53908114  1
  O2-  O449  1  0.42882812  0.33639540  0.84821321  1
  O2-  O450  1  0.41229218  0.59848053  0.19406374  1
  O2-  O451  1  0.43096850  0.58323730  0.52828335  1
  O2-  O452  1  0.41108205  0.58178350  0.85766699  1
  O2-  O453  1  0.40200916  0.83089817  0.17108489  1
  O2-  O454  1  0.40603047  0.81170948  0.44524579  1
  O2-  O455  1  0.42106834  0.82817233  0.85122486  1
  O2-  O456  1  0.62487910  0.08155964  0.19822216  1
  O2-  O457  1  0.64325753  0.07658791  0.50218172  1
  O2-  O458  1  0.67531584  0.09132802  0.76491880  1
  O2-  O459  1  0.66926341  0.34400946  0.17639893  1
  O2-  O460  1  0.69543787  0.34948939  0.52219541  1
  O2-  O461  1  0.67656193  0.34044037  0.84027351  1
  O2-  O462  1  0.63937120  0.56648366  0.19309157  1
  O2-  O463  1  0.69990184  0.60773359  0.52536226  1
  O2-  O464  1  0.66630338  0.57960595  0.86104326  1
  O2-  O465  1  0.65753662  0.85280369  0.17347013  1
  O2-  O466  1  0.68784704  0.82725478  0.52007150  1
  O2-  O467  1  0.67646229  0.84323612  0.83555806  1
  O2-  O468  1  0.86141415  0.06720758  0.20402019  1
  O2-  O469  1  0.91165451  0.08088900  0.51138851  1
  O2-  O470  1  0.88961712  0.05729380  0.84871275  1
  O2-  O471  1  0.90758986  0.34390643  0.18900406  1
  O2-  O472  1  0.92144678  0.31907248  0.51256537  1
  O2-  O473  1  0.89363830  0.30366434  0.86171130  1
  O2-  O474  1  0.91352730  0.60114520  0.19099270  1
  O2-  O475  1  0.92192441  0.57379513  0.52187435  1
  O2-  O476  1  0.92369617  0.58103150  0.86652799  1
  O2-  O477  1  0.89148018  0.82627114  0.18355266  1
  O2-  O478  1  0.94060582  0.84416511  0.49365939  1
  O2-  O479  1  0.91233595  0.82858216  0.85084329  1
  O2-  O480  1  0.20858269  0.10165660  0.29213319  1
  O2-  O481  1  0.15568413  0.07867660  0.65940757  1
  O2-  O482  1  0.18442836  0.10075489  0.96963024  1
  O2-  O483  1  0.22448709  0.34877592  0.31574891  1
  O2-  O484  1  0.15239214  0.31876423  0.64580472  1
  O2-  O485  1  0.16060307  0.35561021  0.96355637  1
  O2-  O486  1  0.16605918  0.60023089  0.31185298  1
  O2-  O487  1  0.15832871  0.57059746  0.65260891  1
  O2-  O488  1  0.14378189  0.57105259  0.97321877  1
  O2-  O489  1  0.16408840  0.84251866  0.32038138  1
  O2-  O490  1  0.14601360  0.82667046  0.64532333  1
  O2-  O491  1  0.16063130  0.86428066  0.97386657  1
  O2-  O492  1  0.42317115  0.07126064  0.32877405  1
  O2-  O493  1  0.39028305  0.07295238  0.65039978  1
  O2-  O494  1  0.47521872  0.11419302  0.95946614  1
  O2-  O495  1  0.42392199  0.32390078  0.32571093  1
  O2-  O496  1  0.39804060  0.30594571  0.64706925  1
  O2-  O497  1  0.43302628  0.32837437  0.97196437  1
  O2-  O498  1  0.41180571  0.60186766  0.31997210  1
  O2-  O499  1  0.39571269  0.57567237  0.64707396  1
  O2-  O500  1  0.38741881  0.55525094  0.98402188  1
  O2-  O501  1  0.39827501  0.84267526  0.29234406  1
  O2-  O502  1  0.41344939  0.83375843  0.64041944  1
  O2-  O503  1  0.41180533  0.80717209  0.96945521  1
  O2-  O504  1  0.64225918  0.06651368  0.31969128  1
  O2-  O505  1  0.70770074  0.05423447  0.61119699  1
  O2-  O506  1  0.67992753  0.05547853  0.96549360  1
  O2-  O507  1  0.68791685  0.33642349  0.30279515  1
  O2-  O508  1  0.65084153  0.32186916  0.63903268  1
  O2-  O509  1  0.69827569  0.37020451  0.97019851  1
  O2-  O510  1  0.66117205  0.57748601  0.31499708  1
  O2-  O511  1  0.65710667  0.57412789  0.64477109  1
  O2-  O512  1  0.66291763  0.58171943  0.98615606  1
  O2-  O513  1  0.64185367  0.82438779  0.30231481  1
  O2-  O514  1  0.65835295  0.81949606  0.63241999  1
  O2-  O515  1  0.63760182  0.80637402  1.04836157  1
  O2-  O516  1  1.03612659  0.18341001  0.22976551  1
  O2-  O517  1  0.90122425  0.06652454  0.63633414  1
  O2-  O518  1  0.83426078  0.05249955  0.96542344  1
  O2-  O519  1  0.91566101  0.34217656  0.31297092  1
  O2-  O520  1  0.88616336  0.28706383  0.63300425  1
  O2-  O521  1  0.89899201  0.32263550  0.98450389  1
  O2-  O522  1  0.91903683  0.59151678  0.31764258  1
  O2-  O523  1  0.90272837  0.55361060  0.64673296  1
  O2-  O524  1  0.99195154  0.58335254  0.97505842  1
  O2-  O525  1  0.89122734  0.82316357  0.30607063  1
  O2-  O526  1  0.87494157  0.79878083  0.60198003  1
  O2-  O527  1  0.90135720  0.84033659  0.97293032  1
  O2-  O528  1  0.19460941  0.24708702  0.02236062  1
  O2-  O529  1  0.11721590  0.18412731  0.33226590  1
  O2-  O530  1  0.06291135  0.15634041  0.68618988  1
  O2-  O531  1  0.06351501  0.41115617  0.02536147  1
  O2-  O532  1  0.08249594  0.43077472  0.36463922  1
  O2-  O533  1  0.05460314  0.38962492  0.68321538  1
  O2-  O534  1  0.05532266  0.72152928  0.05070815  1
  O2-  O535  1  0.08473338  0.68447194  0.35944251  1
  O2-  O536  1  0.07491754  0.65576508  0.68614273  1
  O2-  O537  1  0.07199496  0.93774609  0.01089033  1
  O2-  O538  1  0.04439137  0.92544730  0.36381127  1
  O2-  O539  1  0.06434617  0.91452968  0.69237666  1
  O2-  O540  1  0.35626630  0.15646588  -0.00188954  1
  O2-  O541  1  0.34126220  0.15911061  0.36478319  1
  O2-  O542  1  0.33005819  0.16118241  0.69023037  1
  O2-  O543  1  0.35015989  0.39921961  0.03284830  1
  O2-  O544  1  0.38987444  0.44273903  0.36190358  1
  O2-  O545  1  0.31969557  0.42092559  0.67970692  1
  O2-  O546  1  0.31231730  0.65386681  0.01497142  1
  O2-  O547  1  0.33428663  0.69199390  0.35515344  1
  O2-  O548  1  0.31628852  0.64411513  0.68320186  1
  O2-  O549  1  0.34244757  0.92198922  0.10725813  1
  O2-  O550  1  0.31716326  0.91351602  0.35206301  1
  O2-  O551  1  0.31747607  0.90646092  0.68437940  1
  O2-  O552  1  0.62604174  0.22387950  0.04135043  1
  O2-  O553  1  0.56465025  0.12624095  0.38265355  1
  O2-  O554  1  0.58878694  0.22996335  0.64734149  1
  O2-  O555  1  0.59114815  0.41814558  0.02167856  1
  O2-  O556  1  0.58998126  0.37682595  0.37456197  1
  O2-  O557  1  0.56453393  0.40501008  0.67685119  1
  O2-  O558  1  0.55291134  0.63397546  0.03208778  1
  O2-  O559  1  0.57810817  0.66778905  0.35347560  1
  O2-  O560  1  0.57171839  0.65215601  0.68808620  1
  O2-  O561  1  0.55759195  0.89420143  0.01700818  1
  O2-  O562  1  0.55229227  0.90123841  0.34650869  1
  O2-  O563  1  0.58320563  0.91051083  0.66622936  1
  O2-  O564  1  0.81462650  0.16545859  0.03971468  1
  O2-  O565  1  0.82009137  0.17133223  0.34646393  1
  O2-  O566  1  0.77449816  0.10627876  0.65662885  1
  O2-  O567  1  0.85659878  0.44137464  0.01985929  1
  O2-  O568  1  0.83909168  0.42319097  0.35747253  1
  O2-  O569  1  0.81344735  0.37809565  0.67768317  1
  O2-  O570  1  0.82508607  0.67082645  0.02458312  1
  O2-  O571  1  0.82237049  0.66172602  0.35321528  1
  O2-  O572  1  0.78476172  0.58294851  0.71112531  1
  O2-  O573  1  0.80499641  0.90584804  0.02071906  1
  O2-  O574  1  0.80531080  0.90089262  0.35039780  1
  O2-  O575  1  0.91050461  0.92781713  0.67614298  1
