# generated using pymatgen
data_H2O
_symmetry_space_group_name_H-M   'P 1'
_cell_length_a   17.99781623
_cell_length_b   17.99981265
_cell_length_c   22.00675550
_cell_angle_alpha   89.99542256
_cell_angle_beta   90.00882766
_cell_angle_gamma   120.00480832
_symmetry_Int_Tables_number   1
_chemical_formula_structural   H2O
_chemical_formula_sum   'H384 O192'
_cell_volume   6173.81196795
_cell_formula_units_Z   192
loop_
 _symmetry_equiv_pos_site_id
 _symmetry_equiv_pos_as_xyz
  1  'x, y, z'
loop_
 _atom_type_symbol
 _atom_type_oxidation_number
  H+  1.0
  O2-  -2.0
loop_
 _atom_site_type_symbol
 _atom_site_label
 _atom_site_symmetry_multiplicity
 _atom_site_fract_x
 _atom_site_fract_y
 _atom_site_fract_z
 _atom_site_occupancy
  H+  H0  1  0.67802700  0.33461303  0.18780741  1
  H+  H1  1  0.64643407  0.62036309  0.66190983  1
  H+  H2  1  0.61306036  0.13705083  0.83744467  1
  H+  H3  1  0.89613171  0.27005990  0.16699492  1
  H+  H4  1  0.02962841  0.90235983  0.15789819  1
  H+  H5  1  0.38971248  0.26326226  0.98732051  1
  H+  H6  1  0.70740100  0.58823864  0.83895821  1
  H+  H7  1  0.77688600  0.14837130  0.15159431  1
  H+  H8  1  0.27800989  0.13964973  0.66614912  1
  H+  H9  1  0.90421421  0.88678106  0.17273023  1
  H+  H10  1  0.27265464  0.88629355  0.49161980  1
  H+  H11  1  0.13958398  0.86287426  0.50393551  1
  H+  H12  1  0.61091272  0.13983567  0.67286888  1
  H+  H13  1  0.89265483  0.12023083  0.83818598  1
  H+  H14  1  0.27635655  0.64313566  0.51095961  1
  H+  H15  1  0.52451874  0.13672323  0.82963524  1
  H+  H16  1  0.17668278  0.27672040  0.16595182  1
  H+  H17  1  0.03214908  0.38987496  0.15820838  1
  H+  H18  1  0.65718477  0.11031673  0.32502650  1
  H+  H19  1  0.89766730  1.04193877  0.50666144  1
  H+  H20  1  0.29709298  0.40624033  0.41193266  1
  H+  H21  1  0.39750733  0.26927629  0.65828442  1
  H+  H22  1  0.22128671  0.86071137  0.32366625  1
  H+  H23  1  0.12617649  0.30147282  0.99048893  1
  H+  H24  1  0.98113362  0.36711848  0.99103675  1
  H+  H25  1  0.89321116  0.03135115  0.83988360  1
  H+  H26  1  0.33326836  0.12415849  0.49356367  1
  H+  H27  1  0.39947989  0.88096885  0.66017927  1
  H+  H28  1  0.59257885  0.40249496  0.47336215  1
  H+  H29  1  0.39327924  0.87486366  0.50204448  1
  H+  H30  1  0.25195081  0.36787736  0.64816485  1
  H+  H31  1  0.77360964  0.40067399  0.65965066  1
  H+  H32  1  0.35462942  0.02652164  0.20486924  1
  H+  H33  1  0.48337206  0.35788127  0.82764614  1
  H+  H34  1  0.50644953  0.38909036  1.01384807  1
  H+  H35  1  0.88893779  0.88248884  0.99314539  1
  H+  H36  1  0.88614128  0.13374972  0.33356032  1
  H+  H37  1  0.33995872  0.22413346  0.33509211  1
  H+  H38  1  0.09413926  0.63489994  0.82570053  1
  H+  H39  1  0.86553709  0.38120351  -0.00001667  1
  H+  H40  1  0.64169244  0.43139258  0.16978574  1
  H+  H41  1  0.38278438  0.03057905  0.83510661  1
  H+  H42  1  0.38708368  0.53748028  0.17888386  1
  H+  H43  1  0.90044240  0.26997847  0.32470791  1
  H+  H44  1  0.86797850  -0.06965003  0.64683515  1
  H+  H45  1  0.62006745  0.89546354  0.68247452  1
  H+  H46  1  0.36774998  0.37748731  0.82177333  1
  H+  H47  1  0.12138101  0.98357173  0.65110376  1
  H+  H48  1  0.94171304  0.83270745  0.84417121  1
  H+  H49  1  0.77103521  0.37312503  0.34725628  1
  H+  H50  1  -0.01860576  0.86818949  -0.00615667  1
  H+  H51  1  0.10846944  0.63385773  0.49117039  1
  H+  H52  1  0.12964557  0.10042434  0.16778132  1
  H+  H53  1  0.15817871  0.58687159  0.26762346  1
  H+  H54  1  0.52999880  0.91049114  0.83547790  1
  H+  H55  1  0.36654986  0.96766016  0.13947726  1
  H+  H56  1  0.64455016  0.03268692  0.86025743  1
  H+  H57  1  0.99675308  0.61023917  0.98866902  1
  H+  H58  1  0.11067790  0.48269739  0.33718743  1
  H+  H59  1  0.13597052  0.38399308  0.32461080  1
  H+  H60  1  0.38012505  0.13254758  0.00337576  1
  H+  H61  1  0.61679477  0.21507771  -0.01078421  1
  H+  H62  1  0.28900549  0.12150960  0.99748317  1
  H+  H63  1  0.12650479  0.11616066  0.02854263  1
  H+  H64  1  0.62282997  0.71834045  0.00364617  1
  H+  H65  1  0.09330386  0.18903732  0.02840961  1
  H+  H66  1  0.37932256  0.62327376  0.17810811  1
  H+  H67  1  0.78500116  0.14774725  0.47697620  1
  H+  H68  1  0.10673672  0.72740993  0.16131328  1
  H+  H69  1  0.35402772  0.64346489  0.34865170  1
  H+  H70  1  0.47007666  0.54819417  0.30557454  1
  H+  H71  1  0.23071912  0.85892560  0.65801168  1
  H+  H72  1  0.39637983  0.79339155  0.65746762  1
  H+  H73  1  0.63364284  0.78624531  0.17051619  1
  H+  H74  1  0.12578032  0.75355620  -0.00489418  1
  H+  H75  1  0.14258061  0.12524863  0.64694330  1
  H+  H76  1  0.85922853  0.16361711  0.67474119  1
  H+  H77  1  0.11647817  0.51466356  0.83764459  1
  H+  H78  1  0.84990072  0.62591240  0.83853919  1
  H+  H79  1  0.82089217  0.65416633  0.77809121  1
  H+  H80  1  0.46077419  0.86260627  0.18231377  1
  H+  H81  1  0.12961577  0.77493411  0.83503541  1
  H+  H82  1  0.40435649  0.66486491  0.65461533  1
  H+  H83  1  0.27775125  0.14246481  0.15529046  1
  H+  H84  1  0.63447799  0.25018909  0.35561560  1
  H+  H85  1  0.98554118  0.86866532  0.69297756  1
  H+  H86  1  0.03911789  0.90945491  0.78257384  1
  H+  H87  1  0.39454450  0.52574589  0.99827800  1
  H+  H88  1  0.13483593  0.86597924  0.83292133  1
  H+  H89  1  0.26978683  0.38764844  -0.00185469  1
  H+  H90  1  0.62258998  0.54573253  0.18308979  1
  H+  H91  1  0.64580414  0.51608273  -0.00326167  1
  H+  H92  1  0.38421523  0.77499570  -0.02484242  1
  H+  H93  1  0.79769168  0.13698701  0.33550823  1
  H+  H94  1  0.35548312  0.68014348  0.87731202  1
  H+  H95  1  0.92319175  0.33576548  0.89346288  1
  H+  H96  1  0.12591971  0.61262045  0.32773052  1
  H+  H97  1  0.15333641  0.26914054  0.19575511  1
  H+  H98  1  0.63597429  1.02853105  0.47319427  1
  H+  H99  1  0.72288019  0.87270344  0.84142968  1
  H+  H100  1  0.77175564  0.88025914  0.15268107  1
  H+  H101  1  0.03564273  0.39021850  0.67527526  1
  H+  H102  1  0.36704035  0.14134859  0.82127704  1
  H+  H103  1  0.38922132  0.12342621  0.33564499  1
  H+  H104  1  0.58390721  0.43267762  0.11407861  1
  H+  H105  1  0.10206246  0.72572489  0.33884362  1
  H+  H106  1  0.39681682  0.59393012  0.84632803  1
  H+  H107  1  0.54050563  0.63895141  0.66557552  1
  H+  H108  1  0.72372672  0.86968068  0.50690473  1
  H+  H109  1  0.14275087  0.52895347  0.50081807  1
  H+  H110  1  0.91964381  0.10592083  0.60219238  1
  H+  H111  1  0.14492787  0.86434747  0.65036208  1
  H+  H112  1  0.86342474  0.71303841  0.46671441  1
  H+  H113  1  0.17425934  0.42882142  0.17713020  1
  H+  H114  1  0.87827898  0.39221502  0.80945816  1
  H+  H115  1  0.18661487  0.10552259  0.58991252  1
  H+  H116  1  0.80259579  0.40565525  0.16007427  1
  H+  H117  1  0.12639364  0.09726029  0.32619626  1
  H+  H118  1  0.03161595  0.15958442  0.66757413  1
  H+  H119  1  0.63671831  0.03310857  0.66603681  1
  H+  H120  1  0.89917901  0.29455218  0.65370523  1
  H+  H121  1  0.85213401  0.12946301  0.15035624  1
  H+  H122  1  0.53469997  0.38978626  0.66528292  1
  H+  H123  1  0.90200410  0.87119373  0.71225748  1
  H+  H124  1  0.45964819  0.36215652  0.50342932  1
  H+  H125  1  0.36874843  0.23131573  0.81861625  1
  H+  H126  1  0.10173187  0.86454467  0.00218311  1
  H+  H127  1  0.64018377  0.28133532  0.66412051  1
  H+  H128  1  0.88435392  0.85258785  0.47582393  1
  H+  H129  1  0.41687492  0.50194478  0.64825909  1
  H+  H130  1  0.35435178  0.37525657  0.22588662  1
  H+  H131  1  0.13298921  0.53265489  0.17374252  1
  H+  H132  1  0.12063617  0.41143782  1.00189613  1
  H+  H133  1  0.77111650  0.13888350  -0.00802030  1
  H+  H134  1  0.61645635  0.88755378  0.33451540  1
  H+  H135  1  0.26869607  0.64020431  0.16730782  1
  H+  H136  1  0.25787500  0.87318936  -0.00125173  1
  H+  H137  1  0.36143365  0.89336454  0.33988851  1
  H+  H138  1  0.54014591  0.64066671  0.82623790  1
  H+  H139  1  0.63693097  0.53231251  0.50491557  1
  H+  H140  1  0.65300476  0.02135526  0.32316853  1
  H+  H141  1  0.87557668  0.51967910  0.65272145  1
  H+  H142  1  1.04697149  0.14420471  0.50432723  1
  H+  H143  1  0.84489513  0.43038028  0.71291712  1
  H+  H144  1  0.69755914  0.61072040  0.32630347  1
  H+  H145  1  0.36438035  0.97543453  0.67562195  1
  H+  H146  1  0.88748059  0.05504295  0.66482125  1
  H+  H147  1  0.22890496  0.38156552  0.33161082  1
  H+  H148  1  0.96365549  0.61521238  0.83697970  1
  H+  H149  1  0.38024790  0.11395438  0.17222379  1
  H+  H150  1  0.91990114  0.09307627  0.93064672  1
  H+  H151  1  0.11553118  0.48435566  0.67906410  1
  H+  H152  1  0.13130821  0.62112409  0.17500578  1
  H+  H153  1  0.89174088  0.35528763  0.32302845  1
  H+  H154  1  0.60710574  0.46045677  0.82221958  1
  H+  H155  1  0.00231924  0.37318460  0.50064114  1
  H+  H156  1  0.35818838  0.98098617  0.33949412  1
  H+  H157  1  0.47694447  0.86838265  0.33173440  1
  H+  H158  1  0.87664812  -0.01827208  0.32960472  1
  H+  H159  1  0.08687986  0.42544573  0.76382029  1
  H+  H160  1  0.38408485  0.78092120  0.33361620  1
  H+  H161  1  0.53163179  0.89601209  0.68018488  1
  H+  H162  1  0.91115009  0.28893454  0.49824884  1
  H+  H163  1  0.86968225  0.47568434  0.81373721  1
  H+  H164  1  0.13348867  0.98512722  0.48575149  1
  H+  H165  1  0.31367878  0.16908344  0.39723067  1
  H+  H166  1  0.10937482  0.96983951  0.33493288  1
  H+  H167  1  0.82651762  0.93621581  0.41706643  1
  H+  H168  1  0.77470921  0.64180518  0.67931798  1
  H+  H169  1  0.88271134  0.61722297  0.65948922  1
  H+  H170  1  0.85381368  0.46584527  0.34546816  1
  H+  H171  1  0.21156428  0.62244363  0.65771186  1
  H+  H172  1  0.58541014  0.16859060  0.73448480  1
  H+  H173  1  0.21738907  0.10224179  0.32210795  1
  H+  H174  1  0.64516955  0.78221903  0.66282005  1
  H+  H175  1  0.88736618  0.65836946  0.16118038  1
  H+  H176  1  -0.02406526  0.85147204  0.32964179  1
  H+  H177  1  0.12394559  -0.02201248  0.14899570  1
  H+  H178  1  0.19849468  0.60786382  0.84393421  1
  H+  H179  1  0.60749296  0.22203181  0.51789448  1
  H+  H180  1  0.15704737  0.28528527  0.64659486  1
  H+  H181  1  0.08950906  0.42951580  0.09781693  1
  H+  H182  1  0.64905930  0.33685288  0.51263351  1
  H+  H183  1  0.14921329  -0.00917544  0.97549730  1
  H+  H184  1  0.17881022  0.13361266  0.49423491  1
  H+  H185  1  0.89324772  0.27462425  -0.01196338  1
  H+  H186  1  0.11945438  0.61064650  0.65566405  1
  H+  H187  1  0.11926445  0.14501721  0.81992522  1
  H+  H188  1  0.52306713  0.11130362  0.35602588  1
  H+  H189  1  0.61564441  0.64942473  0.34350531  1
  H+  H190  1  0.87268820  0.23262214  0.82978456  1
  H+  H191  1  0.25858581  0.41755050  0.18509558  1
  H+  H192  1  -0.01600270  0.36361480  0.83470326  1
  H+  H193  1  0.37353709  0.46792789  0.82661529  1
  H+  H194  1  0.04910622  0.16310534  0.17975246  1
  H+  H195  1  0.58857047  0.50695467  0.33784303  1
  H+  H196  1  0.91223495  0.04972106  0.17372871  1
  H+  H197  1  0.17027635  0.34829834  0.92686513  1
  H+  H198  1  0.35417423  0.87836957  0.16144625  1
  H+  H199  1  0.85401968  0.74702356  0.84913788  1
  H+  H200  1  0.37922549  0.34668811  -0.01560990  1
  H+  H201  1  0.53180572  0.88706361  0.00146794  1
  H+  H202  1  0.72052760  0.34417479  0.99195539  1
  H+  H203  1  0.60692823  0.65270668  0.16341919  1
  H+  H204  1  0.42140001  0.58299996  0.26745042  1
  H+  H205  1  0.48177768  0.09987589  0.98312905  1
  H+  H206  1  0.64555050  0.78475619  0.32767621  1
  H+  H207  1  0.14208884  0.39824956  0.48843452  1
  H+  H208  1  0.86689528  0.98550451  -0.00316398  1
  H+  H209  1  0.77769797  0.62532271  0.48313737  1
  H+  H210  1  0.89522077  0.75984722  0.31845743  1
  H+  H211  1  0.36136050  0.90283593  0.83208486  1
  H+  H212  1  0.37196889  0.27139213  0.50845652  1
  H+  H213  1  0.53437469  0.66469007  0.35120574  1
  H+  H214  1  0.59357087  0.10839567  0.40187931  1
  H+  H215  1  0.63674187  0.35853354  0.83910318  1
  H+  H216  1  0.16852306  0.15800010  1.02253414  1
  H+  H217  1  0.85100287  0.62847316  0.38682248  1
  H+  H218  1  0.11332616  0.49564725  0.00660856  1
  H+  H219  1  0.92574962  0.32598796  0.22924673  1
  H+  H220  1  0.63177841  0.65187654  0.49708839  1
  H+  H221  1  0.62955197  0.11152974  0.49032969  1
  H+  H222  1  0.35868451  0.58166818  0.50923890  1
  H+  H223  1  0.14383260  0.28250010  0.83556049  1
  H+  H224  1  0.27762817  0.74440994  0.71935842  1
  H+  H225  1  0.86677408  0.88528670  0.33723672  1
  H+  H226  1  0.21729074  0.86202312  0.16884233  1
  H+  H227  1  0.90492972  0.51796424  -0.01073104  1
  H+  H228  1  0.10597878  0.72440086  0.66962560  1
  H+  H229  1  0.63588429  0.87588395  0.84630067  1
  H+  H230  1  0.36062527  0.62684858  0.64897263  1
  H+  H231  1  0.36664678  0.02776038  0.49706021  1
  H+  H232  1  1.02107869  0.63712847  0.16527163  1
  H+  H233  1  0.49560957  0.52860173  0.60505753  1
  H+  H234  1  0.84990655  0.88014615  0.83086753  1
  H+  H235  1  0.37685886  0.37739467  0.67187462  1
  H+  H236  1  0.26790421  0.63768593  -0.03552714  1
  H+  H237  1  0.78118648  0.98015602  0.44959745  1
  H+  H238  1  0.26686252  0.89206269  0.82858684  1
  H+  H239  1  0.47532609  0.10479596  0.66903395  1
  H+  H240  1  0.37907090  0.85992277  0.99234698  1
  H+  H241  1  0.64364883  0.26582894  0.17065421  1
  H+  H242  1  0.64465712  0.52897410  0.66005404  1
  H+  H243  1  0.61347280  0.88464060  0.49361757  1
  H+  H244  1  0.77009922  0.37349554  0.50151498  1
  H+  H245  1  0.63710260  0.10956196  -0.04259123  1
  H+  H246  1  0.87608457  0.11444611  -0.01270954  1
  H+  H247  1  0.64126338  0.77456881  0.51175320  1
  H+  H248  1  0.64384396  0.86022598  -0.00343348  1
  H+  H249  1  0.60420960  0.19766669  0.14460002  1
  H+  H250  1  0.79376334  0.62156432  1.00566462  1
  H+  H251  1  0.51186307  0.11217423  0.14560359  1
  H+  H252  1  0.68313888  0.09445009  0.22967646  1
  H+  H253  1  0.89069709  0.62165610  0.50562395  1
  H+  H254  1  0.86420281  0.72692532  0.69921733  1
  H+  H255  1  0.11190431  0.88194869  0.33763576  1
  H+  H256  1  0.02474039  0.38809367  0.33775648  1
  H+  H257  1  0.62487612  0.39147531  0.66382271  1
  H+  H258  1  0.77867640  0.89115221  -0.00360948  1
  H+  H259  1  0.52705006  0.88972295  0.48881811  1
  H+  H260  1  0.64267925  0.27471229  0.84141035  1
  H+  H261  1  0.58947800  0.67784541  0.73003625  1
  H+  H262  1  0.51107054  0.34741088  0.19165247  1
  H+  H263  1  0.35457348  0.72879389  0.17273937  1
  H+  H264  1  0.71973692  0.12453268  0.66242966  1
  H+  H265  1  -0.00042821  0.16567568  0.01156871  1
  H+  H266  1  0.11329617  0.72605137  0.49193491  1
  H+  H267  1  0.97665538  0.86213039  0.47519129  1
  H+  H268  1  0.59362410  0.87415085  0.16104624  1
  H+  H269  1  0.33896612  0.16505374  0.09616205  1
  H+  H270  1  0.34860885  0.47472543  0.35742147  1
  H+  H271  1  0.23603570  0.12042041  0.82252195  1
  H+  H272  1  0.31060483  0.44442070  0.50412088  1
  H+  H273  1  0.63895871  0.10743816  0.16957978  1
  H+  H274  1  0.42515955  0.25593268  0.18365680  1
  H+  H275  1  0.90288417  0.13099318  0.50595653  1
  H+  H276  1  0.40821908  0.36742761  0.31955693  1
  H+  H277  1  0.51350509  0.82421935  0.11917116  1
  H+  H278  1  0.48605397  0.61345524  0.99771897  1
  H+  H279  1  0.77276782  0.89211450  0.67110870  1
  H+  H280  1  0.39460161  0.80498899  0.84532271  1
  H+  H281  1  0.01590153  0.11209803  0.35320575  1
  H+  H282  1  0.12938860  0.86411256  0.16870760  1
  H+  H283  1  0.12026933  0.39770716  0.82498269  1
  H+  H284  1  0.89850345  0.52266153  0.17836906  1
  H+  H285  1  0.83358819  0.92025349  0.77105541  1
  H+  H286  1  0.88171767  0.38779259  0.15779323  1
  H+  H287  1  0.52066486  0.65573559  0.15397109  1
  H+  H288  1  0.67309546  0.84300229  0.60410596  1
  H+  H289  1  0.16679432  0.08126989  0.22769305  1
  H+  H290  1  0.58977684  0.66610928  0.06488373  1
  H+  H291  1  0.82655353  0.18136804  0.73630055  1
  H+  H292  1  0.39165352  0.39807643  0.15989563  1
  H+  H293  1  0.03652200  0.15049997  0.11029108  1
  H+  H294  1  0.15750628  0.58391710  0.56140035  1
  H+  H295  1  0.86929134  0.68575869  0.09867719  1
  H+  H296  1  0.01318317  0.63760734  0.67008564  1
  H+  H297  1  0.82758965  0.90079591  0.09300686  1
  H+  H298  1  0.32370310  0.40125237  0.05809364  1
  H+  H299  1  0.61314162  0.73960121  0.82410836  1
  H+  H300  1  0.13496972  0.23281694  0.49590041  1
  H+  H301  1  0.16941531  0.82968891  0.56221672  1
  H+  H302  1  0.40564518  0.84131782  0.24449264  1
  H+  H303  1  0.72272620  0.40742287  0.24242437  1
  H+  H304  1  0.13638325  0.62989441  0.99676108  1
  H+  H305  1  0.58477486  0.40786075  0.75869657  1
  H+  H306  1  0.19644797  0.34379004  0.56392600  1
  H+  H307  1  0.91536589  0.57720982  0.89947610  1
  H+  H308  1  0.09305041  0.18233880  0.72467207  1
  H+  H309  1  0.58778251  0.91870953  0.06025996  1
  H+  H310  1  0.16037390  0.83073723  0.26442109  1
  H+  H311  1  0.62432529  0.29771631  0.30100557  1
  H+  H312  1  0.42900384  0.85358963  0.56202597  1
  H+  H313  1  0.19343882  0.39259406  0.26154405  1
  H+  H314  1  0.66838569  0.32350793  0.59670342  1
  H+  H315  1  0.07942339  0.90867465  0.05904498  1
  H+  H316  1  0.58754452  0.91529408  0.39536842  1
  H+  H317  1  0.90961357  0.57643802  0.23987400  1
  H+  H318  1  0.31808868  0.89995824  0.05753446  1
  H+  H319  1  0.43075274  0.57213588  0.90610371  1
  H+  H320  1  0.42132447  0.32887380  0.59884479  1
  H+  H321  1  0.59893021  0.68364541  0.44069753  1
  H+  H322  1  0.31687558  0.69014851  0.74386172  1
  H+  H323  1  0.94530130  0.34196839  0.59116597  1
  H+  H324  1  0.26668602  0.64286280  0.33838101  1
  H+  H325  1  0.55582242  0.44060689  0.42516078  1
  H+  H326  1  0.11327933  0.93414443  0.71217165  1
  H+  H327  1  0.65692275  0.60740025  0.99156488  1
  H+  H328  1  0.10442931  0.42378017  0.43027940  1
  H+  H329  1  0.38573361  0.10199128  0.66323191  1
  H+  H330  1  0.08629067  0.66859131  0.05852602  1
  H+  H331  1  0.35780667  0.63568684  0.96939162  1
  H+  H332  1  0.43167331  0.71783002  0.82747292  1
  H+  H333  1  0.45015529  0.11966676  0.50848224  1
  H+  H334  1  0.42595500  0.32921004  0.88961703  1
  H+  H335  1  0.14616805  0.58188849  0.93596536  1
  H+  H336  1  0.07331806  0.66746393  0.39949925  1
  H+  H337  1  0.67034157  0.83380747  0.93509310  1
  H+  H338  1  0.86342949  0.05029168  0.23218712  1
  H+  H339  1  0.92848154  0.84391132  0.58835723  1
  H+  H340  1  0.32959676  0.91357860  0.73383638  1
  H+  H341  1  0.58530466  0.14316534  0.04225980  1
  H+  H342  1  0.92073084  0.59978098  0.58024786  1
  H+  H343  1  0.66452069  0.84442905  0.23073053  1
  H+  H344  1  0.03060387  0.14529368  0.82305097  1
  H+  H345  1  0.93851299  0.86215826  0.23148858  1
  H+  H346  1  0.53210011  0.47732677  0.04377827  1
  H+  H347  1  0.15333029  0.82226618  0.93559395  1
  H+  H348  1  0.41600926  0.31479625  0.26383681  1
  H+  H349  1  0.96155446  0.09750834  0.27949905  1
  H+  H350  1  0.42388616  0.85987453  0.90601894  1
  H+  H351  1  0.57026569  0.40710095  0.33918794  1
  H+  H352  1  -0.01187784  0.62860756  0.51144401  1
  H+  H353  1  0.08652653  0.14754125  0.40630955  1
  H+  H354  1  0.85513563  0.17354647  0.42605848  1
  H+  H355  1  0.63994111  0.60044692  0.24384980  1
  H+  H356  1  0.55786122  0.17202186  0.45627654  1
  H+  H357  1  0.73504340  0.87290882  0.32139639  1
  H+  H358  1  0.12659249  0.99098883  0.80750266  1
  H+  H359  1  0.41506902  0.08580785  0.89590477  1
  H+  H360  1  0.83467414  0.40155736  0.44737964  1
  H+  H361  1  0.38676149  0.01407560  0.98775701  1
  H+  H362  1  0.07116336  0.66764756  0.76462370  1
  H+  H363  1  0.84308796  0.41440619  0.06042469  1
  H+  H364  1  0.17803079  0.07203357  0.87957905  1
  H+  H365  1  0.66305982  0.32209519  0.93237009  1
  H+  H366  1  0.23543264  0.36799827  0.83511386  1
  H+  H367  1  0.34653228  0.41374635  0.72849845  1
  H+  H368  1  0.90922182  0.79602478  0.58643697  1
  H+  H369  1  0.32925798  0.91936821  0.43148971  1
  H+  H370  1  0.78351046  0.14534598  0.83865943  1
  H+  H371  1  0.59144278  0.93451120  0.77728076  1
  H+  H372  1  0.90694431  0.82811638  0.93623586  1
  H+  H373  1  0.42675360  0.10132852  0.27788458  1
  H+  H374  1  0.68060551  0.58901129  0.56489668  1
  H+  H375  1  0.65599561  0.55085133  0.89876111  1
  H+  H376  1  0.40528278  0.54649373  0.55176843  1
  H+  H377  1  0.88371518  0.62613281  1.00418504  1
  H+  H378  1  0.96511036  0.62217487  0.33800141  1
  H+  H379  1  0.09551230  0.92201796  0.42910255  1
  H+  H380  1  0.16240412  0.08217208  0.96964644  1
  H+  H381  1  0.37046586  0.72517425  0.50878618  1
  H+  H382  1  0.33576084  0.16660854  0.72649230  1
  H+  H383  1  0.82406372  0.16380084  0.05645160  1
  O2-  O384  1  0.03792927  0.12104332  0.14795526  1
  O2-  O385  1  0.10590239  0.16972630  0.48756968  1
  O2-  O386  1  0.09043966  0.17724779  0.80672045  1
  O2-  O387  1  0.09189887  0.42911495  0.14333447  1
  O2-  O388  1  0.11054193  0.42812416  0.47520178  1
  O2-  O389  1  0.08564738  0.42393276  0.81209962  1
  O2-  O390  1  0.08024721  0.66679276  0.14759941  1
  O2-  O391  1  0.07737330  0.66509634  0.47779575  1
  O2-  O392  1  0.07124654  0.67163515  0.81001631  1
  O2-  O393  1  0.08659619  0.91765331  0.13583389  1
  O2-  O394  1  0.09607804  0.92413541  0.47499415  1
  O2-  O395  1  0.09962948  0.92983531  0.79179823  1
  O2-  O396  1  0.33868350  0.16732979  0.14148739  1
  O2-  O397  1  0.29772940  0.15659158  0.48094226  1
  O2-  O398  1  0.33624085  0.17003678  0.80362835  1
  O2-  O399  1  0.35199138  0.40323338  0.18722688  1
  O2-  O400  1  0.27580828  0.37994533  0.48847374  1
  O2-  O401  1  0.33855781  0.40991198  0.80808851  1
  O2-  O402  1  0.33057694  0.67024972  0.15570410  1
  O2-  O403  1  0.33829945  0.66244410  0.51443079  1
  O2-  O404  1  0.36930049  0.68818802  0.83195166  1
  O2-  O405  1  0.32574276  0.90609450  0.13747719  1
  O2-  O406  1  0.33308798  0.92122168  0.47678138  1
  O2-  O407  1  0.32708694  0.92616788  0.81270388  1
  O2-  O408  1  0.56852167  0.13629751  0.12627779  1
  O2-  O409  1  0.55788186  0.15833124  0.49912021  1
  O2-  O410  1  0.58522070  0.16427098  0.81546655  1
  O2-  O411  1  0.59076092  0.43656650  0.15890589  1
  O2-  O412  1  0.56285903  0.43506801  0.47119991  1
  O2-  O413  1  0.57699956  0.40026109  0.80367869  1
  O2-  O414  1  0.58084051  0.68362974  0.13935488  1
  O2-  O415  1  0.60101780  0.68275366  0.48601416  1
  O2-  O416  1  0.58852169  0.68408294  0.80221609  1
  O2-  O417  1  0.54605061  0.87953586  0.13948409  1
  O2-  O418  1  0.58714184  0.91516304  0.47266982  1
  O2-  O419  1  0.59139245  0.93663753  0.82298609  1
  O2-  O420  1  0.83623347  0.17110863  0.13282548  1
  O2-  O421  1  0.84769060  0.17298751  0.47144335  1
  O2-  O422  1  0.83909950  0.16964181  0.81724844  1
  O2-  O423  1  0.85916745  0.42452993  0.14113588  1
  O2-  O424  1  0.81447254  0.42474126  0.47926629  1
  O2-  O425  1  0.86106052  0.42838687  0.78665910  1
  O2-  O426  1  0.88023075  0.70351381  0.14196381  1
  O2-  O427  1  0.83609977  0.64908924  0.46438797  1
  O2-  O428  1  0.81779513  0.65561900  0.82336684  1
  O2-  O429  1  0.81854032  0.87520539  0.13360998  1
  O2-  O430  1  0.81261717  0.95050537  0.45929715  1
  O2-  O431  1  0.83079615  0.92006088  0.81571835  1
  O2-  O432  1  0.17348160  0.08677722  0.18218235  1
  O2-  O433  1  0.21020970  0.10276355  0.50676226  1
  O2-  O434  1  0.17390091  0.08641447  0.83650729  1
  O2-  O435  1  0.22252959  0.43742886  0.20465303  1
  O2-  O436  1  0.18855902  0.34198698  0.51440504  1
  O2-  O437  1  0.17547494  0.34255257  0.85140360  1
  O2-  O438  1  0.16176866  0.59103775  0.19215444  1
  O2-  O439  1  0.16191752  0.58830942  0.51611975  1
  O2-  O440  1  0.13790574  0.57573566  0.85423805  1
  O2-  O441  1  0.15929757  0.83457980  0.18707699  1
  O2-  O442  1  0.16753708  0.82928468  0.51672064  1
  O2-  O443  1  0.16189032  0.83508490  0.85139377  1
  O2-  O444  1  0.40496523  0.07958800  0.19160326  1
  O2-  O445  1  0.38570313  0.08882946  0.50654032  1
  O2-  O446  1  0.41649061  0.09096124  0.85058554  1
  O2-  O447  1  0.46744516  0.29494483  0.21375484  1
  O2-  O448  1  0.40686489  0.32790811  0.52753430  1
  O2-  O449  1  0.42187981  0.32934166  0.84470301  1
  O2-  O450  1  0.41619839  0.59742928  0.19202562  1
  O2-  O451  1  0.37313047  0.53476040  0.51320908  1
  O2-  O452  1  0.43009995  0.56765481  0.86042204  1
  O2-  O453  1  0.40118570  0.83841767  0.19876812  1
  O2-  O454  1  0.42650960  0.84764629  0.51706146  1
  O2-  O455  1  0.42452987  0.86484320  0.85954188  1
  O2-  O456  1  0.68668594  0.10074773  0.18478766  1
  O2-  O457  1  0.66146422  0.09100981  0.46496696  1
  O2-  O458  1  0.67584246  0.09408238  0.87543721  1
  O2-  O459  1  0.71316090  0.40119389  0.19865078  1
  O2-  O460  1  0.66811709  0.30205027  0.53367828  1
  O2-  O461  1  0.66769656  0.33267196  0.85934950  1
  O2-  O462  1  0.64318385  0.60455081  0.19787534  1
  O2-  O463  1  0.68106886  0.59037443  0.51951734  1
  O2-  O464  1  0.64834112  0.54963448  0.85404737  1
  O2-  O465  1  0.65976644  0.84672934  0.18554164  1
  O2-  O466  1  0.66757980  0.83684956  0.52750739  1
  O2-  O467  1  0.66354278  0.84157696  0.85796560  1
  O2-  O468  1  0.86013729  0.04942311  0.18730489  1
  O2-  O469  1  0.93046385  0.09972251  0.52503453  1
  O2-  O470  1  0.92591661  0.09218771  0.85317878  1
  O2-  O471  1  0.92837414  0.32990651  0.18388516  1
  O2-  O472  1  0.94238709  0.34730166  0.51528795  1
  O2-  O473  1  0.92238404  0.33132301  0.84824660  1
  O2-  O474  1  0.92154471  0.58112023  0.19594327  1
  O2-  O475  1  0.92904921  0.60649730  0.53046024  1
  O2-  O476  1  0.90516875  0.58056340  0.85451029  1
  O2-  O477  1  0.95735489  0.90095941  0.19613071  1
  O2-  O478  1  0.91493672  0.82193033  0.46749808  1
  O2-  O479  1  0.88572577  0.81067097  0.86327024  1
  O2-  O480  1  0.15823790  0.07069723  0.30515592  1
  O2-  O481  1  0.17288492  0.09424406  0.63367120  1
  O2-  O482  1  0.18775988  0.04827864  0.95545139  1
  O2-  O483  1  0.17405684  0.36234824  0.30452405  1
  O2-  O484  1  0.19503007  0.34188403  0.62732732  1
  O2-  O485  1  0.17193197  0.35582408  0.97249530  1
  O2-  O486  1  0.15825124  0.58434579  0.31355075  1
  O2-  O487  1  0.15445689  0.58560657  0.63982390  1
  O2-  O488  1  0.16587146  0.59300546  0.97881080  1
  O2-  O489  1  0.16017353  0.82845671  0.31002998  1
  O2-  O490  1  0.17088518  0.82796610  0.64073508  1
  O2-  O491  1  0.15436612  0.82164554  0.98055904  1
  O2-  O492  1  0.42111753  0.09388503  0.32240708  1
  O2-  O493  1  0.41414108  0.06770433  0.65615300  1
  O2-  O494  1  0.41868260  0.07475879  0.97349559  1
  O2-  O495  1  0.37360453  0.32195835  0.29033021  1
  O2-  O496  1  0.42771747  0.33076058  0.64479164  1
  O2-  O497  1  0.41724790  0.32400881  0.97252546  1
  O2-  O498  1  0.43004135  0.56949460  0.31052961  1
  O2-  O499  1  0.46097587  0.55099430  0.62245492  1
  O2-  O500  1  0.42546446  0.58465196  0.98151989  1
  O2-  O501  1  0.41521550  0.84246911  0.31953796  1
  O2-  O502  1  0.43242406  0.85327300  0.64415916  1
  O2-  O503  1  0.41762289  0.83889316  0.97600206  1
  O2-  O504  1  0.68795843  0.08214269  0.30869554  1
  O2-  O505  1  0.65982377  0.09010642  0.64704923  1
  O2-  O506  1  0.67370860  0.08493813  0.94203622  1
  O2-  O507  1  0.65353498  0.30886493  0.33997669  1
  O2-  O508  1  0.66895431  0.33842106  0.64381778  1
  O2-  O509  1  0.66041457  0.31042380  0.97767109  1
  O2-  O510  1  0.63763868  0.59069803  0.31697939  1
  O2-  O511  1  0.67683974  0.59060927  0.64596847  1
  O2-  O512  1  0.68161112  0.57232013  0.97696365  1
  O2-  O513  1  0.67341491  0.84375058  0.30859090  1
  O2-  O514  1  0.67653633  0.84437773  0.64991469  1
  O2-  O515  1  0.67580921  0.83169164  0.98025948  1
  O2-  O516  1  0.91967958  0.07533906  0.31222506  1
  O2-  O517  1  0.92083776  0.11292161  0.64755634  1
  O2-  O518  1  0.91436383  0.09026491  0.97614055  1
  O2-  O519  1  0.92754106  0.33064357  0.30867715  1
  O2-  O520  1  0.95285311  0.34016475  0.63621852  1
  O2-  O521  1  0.92279401  0.33454641  0.97233944  1
  O2-  O522  1  0.90199408  0.58515201  0.32597564  1
  O2-  O523  1  0.91301871  0.58950803  0.64041486  1
  O2-  O524  1  0.93555036  0.57677239  0.97169980  1
  O2-  O525  1  0.91670917  0.82125118  0.31236593  1
  O2-  O526  1  0.93625124  0.84388248  0.72194419  1
  O2-  O527  1  0.91846054  0.84609557  0.98042708  1
  O2-  O528  1  0.05186864  0.20829629  0.03549198  1
  O2-  O529  1  0.07852566  0.13830847  0.36198177  1
  O2-  O530  1  0.09262155  0.18169399  0.67937266  1
  O2-  O531  1  0.08490291  0.43328070  0.02028318  1
  O2-  O532  1  0.08644287  0.42181583  0.35192109  1
  O2-  O533  1  0.09122863  0.42732280  0.69836864  1
  O2-  O534  1  0.09180571  0.67027765  0.01396827  1
  O2-  O535  1  0.06799927  0.66527971  0.35409209  1
  O2-  O536  1  0.07341203  0.66492812  0.68647061  1
  O2-  O537  1  0.07570529  0.90252874  0.01328470  1
  O2-  O538  1  0.08189647  0.91163974  0.35458136  1
  O2-  O539  1  0.09654463  0.92452847  0.66847156  1
  O2-  O540  1  0.34540710  0.15995737  0.01646700  1
  O2-  O541  1  0.32239751  0.16667329  0.35289653  1
  O2-  O542  1  0.33797734  0.16571924  0.68105353  1
  O2-  O543  1  0.33005421  0.40915709  0.01417534  1
  O2-  O544  1  0.30795696  0.41410518  0.36720331  1
  O2-  O545  1  0.34972215  0.41309025  0.68318289  1
  O2-  O546  1  0.33077946  0.66651112  -0.04924072  1
  O2-  O547  1  0.32667005  0.67797896  0.35341258  1
  O2-  O548  1  0.29999064  0.70751978  0.70654636  1
  O2-  O549  1  0.32023771  0.90425851  0.01245555  1
  O2-  O550  1  0.32586933  0.91971561  0.35204604  1
  O2-  O551  1  0.33181229  0.91104742  0.68862144  1
  O2-  O552  1  0.58573142  0.14886973  -0.00256919  1
  O2-  O553  1  0.58478535  0.13755315  0.36664533  1
  O2-  O554  1  0.58076920  0.17028348  0.68966313  1
  O2-  O555  1  0.55251716  0.43667070  0.03882768  1
  O2-  O556  1  0.54645373  0.44160746  0.35456401  1
  O2-  O557  1  0.59534558  0.42376864  0.67974362  1
  O2-  O558  1  0.59124397  0.65846246  0.01948490  1
  O2-  O559  1  0.59526361  0.69136104  0.36240922  1
  O2-  O560  1  0.59712938  0.67886352  0.68418138  1
  O2-  O561  1  0.59149940  0.91221592  0.01603538  1
  O2-  O562  1  0.58565378  0.91772261  0.34984523  1
  O2-  O563  1  0.58934820  0.92350770  0.70004608  1
  O2-  O564  1  0.82882039  0.16638241  0.01064148  1
  O2-  O565  1  0.85839779  0.16901832  0.34943780  1
  O2-  O566  1  0.82296749  0.18561632  0.69150383  1
  O2-  O567  1  0.83600477  0.41181794  0.01551751  1
  O2-  O568  1  0.83448352  0.40414821  0.34759992  1
  O2-  O569  1  0.83662475  0.43718451  0.66857369  1
  O2-  O570  1  0.85363469  0.65624281  0.01945212  1
  O2-  O571  1  0.86061729  0.63543753  0.34181165  1
  O2-  O572  1  0.83216841  0.66355007  0.69951539  1
  O2-  O573  1  0.84134513  0.92367774  0.00893152  1
  O2-  O574  1  0.83994248  0.92011096  0.34781207  1
  O2-  O575  1  0.83661078  0.92626678  0.68402057  1
