# generated using pymatgen
data_H2O
_symmetry_space_group_name_H-M   'P 1'
_cell_length_a   18.00047247
_cell_length_b   18.00526673
_cell_length_c   22.02031046
_cell_angle_alpha   89.98665619
_cell_angle_beta   89.98996961
_cell_angle_gamma   119.96708279
_symmetry_Int_Tables_number   1
_chemical_formula_structural   H2O
_chemical_formula_sum   'H384 O192'
_cell_volume   6182.74671014
_cell_formula_units_Z   192
loop_
 _symmetry_equiv_pos_site_id
 _symmetry_equiv_pos_as_xyz
  1  'x, y, z'
loop_
 _atom_type_symbol
 _atom_type_oxidation_number
  H+  1.0
  O2-  -2.0
loop_
 _atom_site_type_symbol
 _atom_site_label
 _atom_site_symmetry_multiplicity
 _atom_site_fract_x
 _atom_site_fract_y
 _atom_site_fract_z
 _atom_site_occupancy
  H+  H0  1  0.08005893  0.41089989  0.43015391  1
  H+  H1  1  0.38111230  0.59988902  0.16708483  1
  H+  H2  1  0.17279462  0.54456566  0.82547218  1
  H+  H3  1  0.09516325  0.46127447  0.33907123  1
  H+  H4  1  0.67507208  0.30428004  0.65108994  1
  H+  H5  1  0.88104248  0.66253784  0.66817964  1
  H+  H6  1  0.21808453  0.61357625  0.50740541  1
  H+  H7  1  0.35396298  0.47641139  0.15111313  1
  H+  H8  1  0.88403160  0.95744251  0.03025835  1
  H+  H9  1  0.45465505  0.84281386  0.82466575  1
  H+  H10  1  1.03033919  0.13804443  0.48831132  1
  H+  H11  1  0.11149376  0.64263207  0.66679977  1
  H+  H12  1  0.61287342  0.51843105  0.66143362  1
  H+  H13  1  0.94815276  0.59496015  0.91660420  1
  H+  H14  1  0.87919371  0.23291733  0.49415482  1
  H+  H15  1  0.38654880  0.39527584  0.99081493  1
  H+  H16  1  0.53961193  0.97118791  0.44864983  1
  H+  H17  1  0.65634462  0.10895587  0.66840886  1
  H+  H18  1  0.28181378  0.14600270  0.16792890  1
  H+  H19  1  0.11505031  0.39714183  0.82597264  1
  H+  H20  1  0.61095259  0.90652775  0.01084744  1
  H+  H21  1  0.62404790  0.15071581  0.50184197  1
  H+  H22  1  0.66080540  0.37529511  0.50469249  1
  H+  H23  1  0.52018824  0.39461312  0.82598304  1
  H+  H24  1  0.66626822  0.25878991  0.01984629  1
  H+  H25  1  0.78435213  0.12782488  0.67895344  1
  H+  H26  1  0.76968261  0.13010032  0.15991666  1
  H+  H27  1  0.22483850  0.86930251  0.50501165  1
  H+  H28  1  0.13445845  0.86633307  0.50018528  1
  H+  H29  1  0.01440545  0.87925518  0.34723184  1
  H+  H30  1  0.34144944  0.62313521  0.68401519  1
  H+  H31  1  1.01745742  0.39538812  1.00546317  1
  H+  H32  1  0.89311647  0.38836688  0.84368219  1
  H+  H33  1  0.72654612  0.84970166  0.80566044  1
  H+  H34  1  0.20876562  0.18396382  0.23378467  1
  H+  H35  1  0.13242662  0.50977381  0.17054270  1
  H+  H36  1  0.46768120  0.05541904  0.98480263  1
  H+  H37  1  0.47275822  0.61541851  0.98281172  1
  H+  H38  1  0.40526891  0.27933385  0.17845854  1
  H+  H39  1  0.37540780  -0.00502904  0.50407641  1
  H+  H40  1  0.90909954  0.27058449  0.81724382  1
  H+  H41  1  0.49098288  0.36898853  0.17160701  1
  H+  H42  1  0.05279047  0.62331267  0.00240900  1
  H+  H43  1  0.13263199  0.36070067  0.16955749  1
  H+  H44  1  0.90311572  0.87480604  0.66090502  1
  H+  H45  1  0.41944182  0.33429992  0.59186574  1
  H+  H46  1  0.20672811  0.62962400  0.99968056  1
  H+  H47  1  0.79938140  0.91212061  0.36087122  1
  H+  H48  1  0.09850157  0.65404348  0.09641962  1
  H+  H49  1  0.52641089  0.13435683  0.34507510  1
  H+  H50  1  0.35220104  0.38482476  0.82102289  1
  H+  H51  1  0.89597927  0.12930129  0.82706901  1
  H+  H52  1  0.26793659  0.61886420  0.15696756  1
  H+  H53  1  0.43027002  0.36055397  0.46813415  1
  H+  H54  1  0.98997284  0.60282436  0.31422513  1
  H+  H55  1  0.12470975  0.27065185  0.83927855  1
  H+  H56  1  0.22285044  0.85505790  0.83678936  1
  H+  H57  1  0.72098930  0.35362247  0.17316493  1
  H+  H58  1  0.88519467  0.26360270  0.17131344  1
  H+  H59  1  0.51621644  0.62737937  0.14613967  1
  H+  H60  1  0.78235866  0.13983302  0.50152218  1
  H+  H61  1  0.88395335  0.43905758  0.69044730  1
  H+  H62  1  0.85591492  0.71525517  1.01202184  1
  H+  H63  1  0.27588438  0.13946921  0.82174617  1
  H+  H64  1  1.03670383  0.41514646  0.83207309  1
  H+  H65  1  0.39384688  0.12441368  0.49990205  1
  H+  H66  1  0.64539376  0.52000748  0.99946336  1
  H+  H67  1  0.11774585  0.14077750  0.68405646  1
  H+  H68  1  0.25540603  0.19607214  -0.06347875  1
  H+  H69  1  0.47656514  0.87415982  0.52446257  1
  H+  H70  1  0.15980639  0.17201936  0.00675237  1
  H+  H71  1  0.89327147  0.55474537  0.65864418  1
  H+  H72  1  0.56773831  0.91573011  0.07213930  1
  H+  H73  1  0.61378880  0.70798770  0.33641780  1
  H+  H74  1  0.65000990  0.58185858  0.60495015  1
  H+  H75  1  0.85508482  0.97936296  0.81669116  1
  H+  H76  1  0.89489831  0.88765403  0.84094192  1
  H+  H77  1  0.18183303  0.84499760  0.30934441  1
  H+  H78  1  0.10595022  0.96527402  0.14484472  1
  H+  H79  1  0.03258965  0.89467286  0.67066221  1
  H+  H80  1  0.90593842  0.78706227  0.66677594  1
  H+  H81  1  1.01278826  0.38963588  0.67541865  1
  H+  H82  1  0.60079846  -0.02971393  0.16412603  1
  H+  H83  1  0.34921637  0.59449720  0.84255799  1
  H+  H84  1  0.78085385  0.88950768  0.66848750  1
  H+  H85  1  0.61739562  0.39120458  0.15470667  1
  H+  H86  1  0.39070587  0.26703350  0.49356929  1
  H+  H87  1  0.25169587  0.62226610  0.67546141  1
  H+  H88  1  0.85998622  0.32776736  0.63802870  1
  H+  H89  1  -0.01913799  0.60171071  0.49876503  1
  H+  H90  1  0.47411308  0.35700555  0.65449464  1
  H+  H91  1  0.10876274  0.47262731  0.49016024  1
  H+  H92  1  0.25622046  0.38391515  0.14772204  1
  H+  H93  1  0.34577602  0.87487827  0.81755476  1
  H+  H94  1  0.27015322  0.88410171  0.15411851  1
  H+  H95  1  0.65495991  0.97615989  0.34974173  1
  H+  H96  1  0.13004865  0.37939850  -0.01053917  1
  H+  H97  1  0.35590016  0.87795063  0.15521488  1
  H+  H98  1  0.59963689  0.88131657  0.67842956  1
  H+  H99  1  0.40175302  0.19844645  0.01524479  1
  H+  H100  1  0.62693844  0.24017980  0.49733058  1
  H+  H101  1  0.48723403  0.13018910  0.50747149  1
  H+  H102  1  0.57931303  0.18290950  0.70436293  1
  H+  H103  1  0.01164506  0.12900393  0.15904990  1
  H+  H104  1  0.59497639  0.92793308  0.44160963  1
  H+  H105  1  0.61826184  0.76260952  0.15865688  1
  H+  H106  1  0.82391135  0.66165121  0.10709255  1
  H+  H107  1  0.09281869  0.70983531  0.31824295  1
  H+  H108  1  0.13617200  1.01205178  0.83028081  1
  H+  H109  1  0.57829252  0.91943790  0.73865800  1
  H+  H110  1  0.76438002  0.62854237  0.16588180  1
  H+  H111  1  0.13307656  0.85523688  0.15726251  1
  H+  H112  1  0.64324785  0.27052105  0.32898266  1
  H+  H113  1  0.73407357  0.82372371  0.29071257  1
  H+  H114  1  0.45710029  0.97487461  0.27154174  1
  H+  H115  1  0.13206468  0.85213478  0.84148177  1
  H+  H116  1  0.88796165  0.50184823  0.31427203  1
  H+  H117  1  0.63182533  0.10392585  0.33614660  1
  H+  H118  1  0.76899629  0.12146320  0.32409290  1
  H+  H119  1  0.60675809  0.63228530  0.14403743  1
  H+  H120  1  0.62125007  0.05760224  0.90396824  1
  H+  H121  1  0.60373737  0.97033064  0.82915024  1
  H+  H122  1  0.47941982  0.87850892  0.67764466  1
  H+  H123  1  0.36507094  0.51564370  0.83731411  1
  H+  H124  1  0.16781768  0.32985777  0.58347960  1
  H+  H125  1  0.40023939  0.50553866  0.31820933  1
  H+  H126  1  0.09228059  0.97909668  0.34538563  1
  H+  H127  1  0.88670412  0.62165295  1.01173725  1
  H+  H128  1  0.14503247  0.13783425  0.18029644  1
  H+  H129  1  0.34685206  0.97616324  0.66250221  1
  H+  H130  1  0.38036703  0.79593250  0.36860490  1
  H+  H131  1  0.37597527  0.02252102  0.32283685  1
  H+  H132  1  0.64579444  0.36068718  0.33122000  1
  H+  H133  1  0.01976897  0.88952729  0.49747655  1
  H+  H134  1  0.67541158  0.35071682  0.94624737  1
  H+  H135  1  0.17312549  0.08648589  0.74330367  1
  H+  H136  1  0.84265689  0.41668060  0.39271156  1
  H+  H137  1  0.35976776  0.13823673  0.65852752  1
  H+  H138  1  0.79563791  0.14351207  -0.00211884  1
  H+  H139  1  0.62874153  0.10664964  0.84604425  1
  H+  H140  1  0.77877059  0.60854766  0.82616875  1
  H+  H141  1  0.66889977  0.83614669  0.71634582  1
  H+  H142  1  0.86201599  0.86368163  0.01609209  1
  H+  H143  1  0.35826479  0.73992696  0.51893371  1
  H+  H144  1  0.25448596  0.91415375  0.38433693  1
  H+  H145  1  0.89670480  1.03432706  0.32713360  1
  H+  H146  1  0.63323963  0.47561747  0.34760333  1
  H+  H147  1  0.44859870  0.10992057  0.66149009  1
  H+  H148  1  0.35442320  0.63157616  -0.00080861  1
  H+  H149  1  0.10102759  0.12973397  0.82515939  1
  H+  H150  1  0.33490743  0.15582556  0.10657685  1
  H+  H151  1  0.39113061  0.12477061  0.85620121  1
  H+  H152  1  0.62750361  0.51205920  0.16019595  1
  H+  H153  1  0.34991995  0.39627484  0.49865624  1
  H+  H154  1  0.57268027  0.40717000  0.73200168  1
  H+  H155  1  0.11081399  0.98062534  0.49212563  1
  H+  H156  1  0.54769775  0.38698343  0.49830545  1
  H+  H157  1  0.86933744  -0.01979954  0.66338826  1
  H+  H158  1  0.27320431  0.13567116  0.48483540  1
  H+  H159  1  0.89734135  0.86455985  0.33384164  1
  H+  H160  1  0.38131033  0.87934121  0.67141065  1
  H+  H161  1  0.38627093  0.38649248  0.33967952  1
  H+  H162  1  0.01159178  0.12892301  0.82931268  1
  H+  H163  1  0.97651181  0.84780512  0.18189410  1
  H+  H164  1  0.87328384  0.13279677  0.49791139  1
  H+  H165  1  0.48035700  0.62754967  0.51583067  1
  H+  H166  1  0.58075472  0.88128442  0.34912563  1
  H+  H167  1  0.52891198  0.13478570  0.15874722  1
  H+  H168  1  0.14080141  0.76920032  0.15664927  1
  H+  H169  1  0.77741898  0.38278017  0.33548902  1
  H+  H170  1  0.63550213  0.28642466  0.85877055  1
  H+  H171  1  0.87908051  0.61086592  0.16442635  1
  H+  H172  1  0.11296693  0.72087611  0.82079688  1
  H+  H173  1  0.41494067  0.59404294  0.61049760  1
  H+  H174  1  0.86174029  0.18114431  0.72811691  1
  H+  H175  1  0.38606068  0.28350510  0.84329951  1
  H+  H176  1  0.34196495  0.67030841  0.35691890  1
  H+  H177  1  0.64905804  0.60969285  0.33816673  1
  H+  H178  1  0.76842468  0.00184167  0.95952667  1
  H+  H179  1  0.85799745  0.06755624  0.98661020  1
  H+  H180  1  0.87380912  0.01464051  0.17475957  1
  H+  H181  1  0.79194525  0.89296787  0.50183739  1
  H+  H182  1  0.65968279  0.62647994  0.83880998  1
  H+  H183  1  0.60803397  0.39252095  0.83016394  1
  H+  H184  1  0.76700788  0.62544455  1.01111434  1
  H+  H185  1  0.61509674  0.22571203  0.16743611  1
  H+  H186  1  0.40231977  0.81830134  0.22300909  1
  H+  H187  1  0.37327539  0.14050262  0.33111032  1
  H+  H188  1  0.26368816  0.13239659  -0.01993572  1
  H+  H189  1  0.85232728  0.45686167  0.16283723  1
  H+  H190  1  0.13863069  0.26878965  0.65152845  1
  H+  H191  1  0.36031833  0.49956110  -0.00025903  1
  H+  H192  1  0.39162640  0.58789872  0.31598004  1
  H+  H193  1  0.97616798  0.25608512  0.78209107  1
  H+  H194  1  0.75535748  0.88504860  0.16504309  1
  H+  H195  1  0.51167649  0.63732495  0.68192140  1
  H+  H196  1  0.11121182  0.85582320  -0.00193482  1
  H+  H197  1  0.52650818  0.61816810  0.33612591  1
  H+  H198  1  0.87806867  0.66487763  0.83589412  1
  H+  H199  1  0.78849094  0.41988845  0.67529305  1
  H+  H200  1  0.37725312  0.75036820  1.00036418  1
  H+  H201  1  0.37109157  0.98288771  -0.00463932  1
  H+  H202  1  0.07547352  0.42735383  0.73300366  1
  H+  H203  1  0.52530097  0.09031230  0.73105399  1
  H+  H204  1  0.13461577  0.77155661  0.65679349  1
  H+  H205  1  0.87681323  0.47165666  0.48767469  1
  H+  H206  1  0.22029796  0.36280015  0.50084604  1
  H+  H207  1  0.26004363  0.37926659  0.81886971  1
  H+  H208  1  0.26978139  0.14259915  0.68157491  1
  H+  H209  1  0.77674394  0.39916202  0.00971743  1
  H+  H210  1  0.17624988  0.08436843  0.88326878  1
  H+  H211  1  0.11068155  0.94343691  -0.00683607  1
  H+  H212  1  0.89711845  0.11373577  0.65643988  1
  H+  H213  1  0.97190807  0.84010445  0.99315464  1
  H+  H214  1  0.59618028  0.87819794  0.16003298  1
  H+  H215  1  0.39084828  0.87861173  0.52774852  1
  H+  H216  1  0.38787096  0.01791227  0.16851662  1
  H+  H217  1  0.84196523  0.50231805  0.83286162  1
  H+  H218  1  0.92476657  0.82570369  0.27602465  1
  H+  H219  1  0.74171522  0.88522919  0.00167619  1
  H+  H220  1  0.98565874  0.35638566  0.49676141  1
  H+  H221  1  0.11302576  0.72887581  0.48037870  1
  H+  H222  1  0.41364735  0.28440563  0.32570442  1
  H+  H223  1  0.58985276  0.01660884  0.30121376  1
  H+  H224  1  0.13947467  0.60254812  0.17080848  1
  H+  H225  1  0.87936817  0.72708497  0.35912533  1
  H+  H226  1  0.11708087  0.22633620  0.48875722  1
  H+  H227  1  0.40738196  0.07376044  0.91002480  1
  H+  H228  1  0.23263036  0.36103974  0.65092198  1
  H+  H229  1  0.89222244  0.78196910  0.51412687  1
  H+  H230  1  0.64889264  0.53223170  0.50941735  1
  H+  H231  1  0.91580875  0.56820536  0.12143799  1
  H+  H232  1  0.35855774  0.38435038  0.66699023  1
  H+  H233  1  0.16522373  0.19684022  0.32690591  1
  H+  H234  1  0.37497525  0.84385859  0.99860786  1
  H+  H235  1  0.88165941  0.28645685  0.99358140  1
  H+  H236  1  0.88760497  0.76057176  0.18697150  1
  H+  H237  1  0.87091542  0.37923995  0.48204959  1
  H+  H238  1  0.37281679  0.78420674  0.33498555  1
  H+  H239  1  0.87192623  0.11930731  0.31998880  1
  H+  H240  1  0.38918910  0.10752349  0.17353848  1
  H+  H241  1  0.88906891  0.37756463  -0.00635946  1
  H+  H242  1  0.29432531  0.15675288  0.32737934  1
  H+  H243  1  0.59883735  0.63190706  0.67542550  1
  H+  H244  1  0.12030775  0.52212180  0.65823134  1
  H+  H245  1  0.85646919  0.21597627  0.32668568  1
  H+  H246  1  0.60451695  0.11480838  -0.00311781  1
  H+  H247  1  0.35512769  0.70929782  0.15499363  1
  H+  H248  1  0.10146423  0.62251654  0.32620266  1
  H+  H249  1  0.75185994  0.19436983  0.02817244  1
  H+  H250  1  0.37039993  0.10127222  0.01286803  1
  H+  H251  1  0.26286747  0.88141540  0.66168070  1
  H+  H252  1  0.72197549  0.37815457  0.85025274  1
  H+  H253  1  0.60697209  0.63121263  -0.00611790  1
  H+  H254  1  0.62049420  0.72780226  0.49402387  1
  H+  H255  1  0.61087314  0.38811074  0.67125844  1
  H+  H256  1  1.03530490  0.63673806  0.15285260  1
  H+  H257  1  0.54745502  0.40272447  0.00848844  1
  H+  H258  1  0.63688437  0.11187970  0.17398672  1
  H+  H259  1  0.13025987  0.36235418  0.50572991  1
  H+  H260  1  0.78297175  0.65804282  0.51012644  1
  H+  H261  1  0.64728734  0.04074228  0.50990015  1
  H+  H262  1  0.52233348  0.14914440  0.85851269  1
  H+  H263  1  0.20529275  0.58649914  0.32406821  1
  H+  H264  1  0.88498214  0.25734629  0.65056693  1
  H+  H265  1  0.67488741  0.85702773  0.32304212  1
  H+  H266  1  0.88337371  0.35134873  0.17121939  1
  H+  H267  1  0.01878244  0.37768916  0.15899115  1
  H+  H268  1  0.38018796  0.52466532  0.66375091  1
  H+  H269  1  0.26132708  0.85554739  0.00196293  1
  H+  H270  1  0.65291000  0.86506682  0.53037220  1
  H+  H271  1  0.54193467  0.38941101  0.34283665  1
  H+  H272  1  0.67238579  0.84790933  0.94936465  1
  H+  H273  1  0.12906058  0.60971559  0.49777566  1
  H+  H274  1  0.89425546  0.02794770  0.50623072  1
  H+  H275  1  0.79606765  0.63775009  0.36599198  1
  H+  H276  1  0.98635879  0.63469793  0.65189266  1
  H+  H277  1  0.07991133  0.66694793  0.42181497  1
  H+  H278  1  0.13050939  0.27070691  0.16686805  1
  H+  H279  1  0.13751503  0.12013175  0.49624647  1
  H+  H280  1  0.39516293  0.63329678  0.51817423  1
  H+  H281  1  0.88291349  0.89562886  0.50372352  1
  H+  H282  1  0.26657944  0.40965539  -0.00268198  1
  H+  H283  1  0.14194593  0.75381536  0.98326512  1
  H+  H284  1  0.88066674  0.10789859  0.16972832  1
  H+  H285  1  0.02582002  0.88901209  0.82448225  1
  H+  H286  1  0.39816484  0.31691752  1.00509678  1
  H+  H287  1  0.45103118  0.90085604  0.31182082  1
  H+  H288  1  0.40906810  0.09466570  0.59241784  1
  H+  H289  1  0.67695294  0.57985941  0.93799552  1
  H+  H290  1  0.91988142  0.35148602  0.90040186  1
  H+  H291  1  0.32093599  0.40684039  0.72678784  1
  H+  H292  1  0.68176957  0.08989841  0.57295565  1
  H+  H293  1  0.31261485  0.90929314  0.76351000  1
  H+  H294  1  0.82919137  0.40714108  0.10010001  1
  H+  H295  1  0.31969366  0.89004531  0.06433792  1
  H+  H296  1  0.60686684  0.88215261  0.81693986  1
  H+  H297  1  0.40263409  0.58153866  0.92653589  1
  H+  H298  1  0.30346735  0.58383321  0.39391555  1
  H+  H299  1  0.98586031  0.11403175  0.65566428  1
  H+  H300  1  0.36239486  0.75887542  0.82760909  1
  H+  H301  1  0.44367504  0.34391863  0.26599745  1
  H+  H302  1  0.91097197  0.31909798  0.26421069  1
  H+  H303  1  0.15808654  0.33719977  0.89508429  1
  H+  H304  1  0.41528487  0.35036960  0.89889148  1
  H+  H305  1  0.03965583  0.04968811  0.30009813  1
  H+  H306  1  0.60359979  0.70337627  0.76615496  1
  H+  H307  1  0.07620709  0.90057594  0.08928964  1
  H+  H308  1  0.92255411  0.32359950  0.55588273  1
  H+  H309  1  0.84431025  0.92244877  0.75764141  1
  H+  H310  1  0.14368044  0.02036622  0.68884587  1
  H+  H311  1  0.18799619  0.31888644  0.25782176  1
  H+  H312  1  0.35050570  0.17877845  0.77258597  1
  H+  H313  1  0.68202777  0.82516454  0.58038548  1
  H+  H314  1  0.62271904  0.76389399  0.67080900  1
  H+  H315  1  0.13112410  0.64541380  0.80994315  1
  H+  H316  1  0.82870594  0.44324311  0.77840439  1
  H+  H317  1  0.63668277  0.19370374  0.07705891  1
  H+  H318  1  0.34285123  0.70824197  0.45284663  1
  H+  H319  1  0.91181644  0.08105533  0.25845209  1
  H+  H320  1  0.08395011  0.90760611  0.76387082  1
  H+  H321  1  0.64779464  0.38326754  0.00699079  1
  H+  H322  1  0.82756616  0.90280134  0.11775661  1
  H+  H323  1  0.92250158  0.57748026  0.55794809  1
  H+  H324  1  0.66493762  0.33052022  0.23374815  1
  H+  H325  1  0.32599858  0.65534193  0.06261859  1
  H+  H326  1  0.12081786  0.89020475  0.66810019  1
  H+  H327  1  0.08613509  0.67386559  0.72820881  1
  H+  H328  1  0.96924763  0.93939954  0.88615622  1
  H+  H329  1  0.69458343  0.35995798  0.59217394  1
  H+  H330  1  0.16028555  0.82857434  0.59499573  1
  H+  H331  1  0.59490467  0.42361778  0.08860952  1
  H+  H332  1  0.01261136  0.36954147  0.34305397  1
  H+  H333  1  0.41607466  0.56554643  0.22266578  1
  H+  H334  1  0.84902742  0.68178741  0.45482143  1
  H+  H335  1  0.70875395  0.59899105  0.28902903  1
  H+  H336  1  0.36407041  0.23843121  0.65947195  1
  H+  H337  1  0.13917034  0.80861236  0.24640392  1
  H+  H338  1  0.64337462  0.81272490  0.22168320  1
  H+  H339  1  0.10171578  0.48740232  0.01122957  1
  H+  H340  1  0.15431212  0.56671546  0.26151491  1
  H+  H341  1  0.60273931  0.41947873  0.43729875  1
  H+  H342  1  0.63709581  0.61461350  0.50831293  1
  H+  H343  1  0.90978137  0.82508712  0.93777485  1
  H+  H344  1  0.74799569  0.36960141  0.50145968  1
  H+  H345  1  0.63650240  0.52839969  0.83546184  1
  H+  H346  1  0.87903980  0.34728469  0.32348935  1
  H+  H347  1  0.16974606  0.09045265  0.55461883  1
  H+  H348  1  0.57370817  0.18536582  0.79925182  1
  H+  H349  1  0.58372131  0.66549699  0.43577921  1
  H+  H350  1  0.07957049  0.17561559  0.73273242  1
  H+  H351  1  0.92071620  0.55975836  0.25000868  1
  H+  H352  1  0.87006806  0.48597030  0.01268577  1
  H+  H353  1  0.64048595  0.01409385  0.66674737  1
  H+  H354  1  0.08024622  0.16308271  0.10288672  1
  H+  H355  1  0.93385448  0.84825111  0.57170521  1
  H+  H356  1  0.47223055  0.85097608  1.00290871  1
  H+  H357  1  0.82454303  0.16825199  0.09961001  1
  H+  H358  1  0.29492329  0.37969779  0.33363510  1
  H+  H359  1  0.92658435  0.09091524  0.56362667  1
  H+  H360  1  0.07662472  0.92186885  0.41251198  1
  H+  H361  1  0.14289441  0.29691848  0.99369492  1
  H+  H362  1  0.41839880  0.07869726  0.26190570  1
  H+  H363  1  0.57573901  0.66404839  0.04859269  1
  H+  H364  1  0.62387926  0.56553324  0.21670517  1
  H+  H365  1  0.15242473  0.57882023  0.59698318  1
  H+  H366  1  0.07764672  0.41299710  0.09884902  1
  H+  H367  1  0.32873645  0.40924154  0.43025532  1
  H+  H368  1  0.33546281  0.16458056  0.42606729  1
  H+  H369  1  0.29016324  0.63929484  0.76469941  1
  H+  H370  1  0.66831319  0.08141281  0.23173363  1
  H+  H371  1  0.86522710  0.93860408  0.41259452  1
  H+  H372  1  0.56823350  1.01315230  -0.00244055  1
  H+  H373  1  0.29694516  0.86299516  0.35651341  1
  H+  H374  1  0.41843352  0.84410677  0.61585536  1
  H+  H375  1  0.31819399  0.42750593  0.08133351  1
  H+  H376  1  0.16617299  0.81823389  0.92572769  1
  H+  H377  1  0.87485077  0.07622774  0.88769351  1
  H+  H378  1  0.58611814  0.16760600  0.40503163  1
  H+  H379  1  0.35445381  0.93026320  0.44959537  1
  H+  H380  1  0.46513590  0.85271044  0.16747028  1
  H+  H381  1  0.85235039  0.67514047  0.73328829  1
  H+  H382  1  0.12684918  0.07353197  0.26808952  1
  H+  H383  1  0.20119822  0.24201736  0.05615262  1
  O2-  O384  1  0.07404731  0.16294524  0.14749256  1
  O2-  O385  1  0.09084818  0.16604769  0.47448888  1
  O2-  O386  1  0.07122720  0.16110966  0.81271585  1
  O2-  O387  1  0.07972964  0.40897956  0.14424383  1
  O2-  O388  1  0.08156173  0.41135412  0.47684886  1
  O2-  O389  1  0.09306075  0.43530945  0.81204019  1
  O2-  O390  1  0.09626468  0.66218615  0.14122720  1
  O2-  O391  1  0.08660696  0.66838747  0.46637104  1
  O2-  O392  1  0.08971271  0.66445372  0.80002797  1
  O2-  O393  1  0.07664259  0.90442404  0.13474684  1
  O2-  O394  1  0.08012028  0.91977598  0.47744176  1
  O2-  O395  1  0.08542458  0.91209161  0.80939542  1
  O2-  O396  1  0.33948749  0.16271112  0.15128039  1
  O2-  O397  1  0.33480243  0.16446307  0.47154389  1
  O2-  O398  1  0.33882829  0.17767148  0.81613037  1
  O2-  O399  1  0.31666859  0.41839537  0.12913033  1
  O2-  O400  1  0.31376741  0.41021573  0.47384494  1
  O2-  O401  1  0.31892643  0.40890733  0.80110029  1
  O2-  O402  1  0.32808460  0.64887228  0.14039850  1
  O2-  O403  1  0.33147841  0.68633487  0.49431625  1
  O2-  O404  1  0.29146963  0.64070880  0.81329292  1
  O2-  O405  1  0.33137389  0.91319188  0.13961399  1
  O2-  O406  1  0.34609483  0.93168016  0.49343403  1
  O2-  O407  1  0.31256551  0.90466189  0.80786131  1
  O2-  O408  1  0.59150434  0.16615463  0.15008438  1
  O2-  O409  1  0.59229032  0.17793596  0.48489560  1
  O2-  O410  1  0.58424939  0.18160142  0.84231128  1
  O2-  O411  1  0.58912026  0.42211887  0.13832550  1
  O2-  O412  1  0.60680633  0.42212549  0.48304749  1
  O2-  O413  1  0.57944956  0.42116534  0.80906430  1
  O2-  O414  1  0.57617778  0.66324305  0.13143539  1
  O2-  O415  1  0.58428723  0.66774894  0.48094748  1
  O2-  O416  1  0.62863125  0.72962594  0.80693882  1
  O2-  O417  1  0.56638556  0.91069743  0.14780726  1
  O2-  O418  1  0.56841163  0.94729386  0.47276520  1
  O2-  O419  1  0.57601758  0.91306979  0.80704144  1
  O2-  O420  1  0.82993109  0.16086407  0.14421915  1
  O2-  O421  1  0.84220179  0.16580656  0.48362454  1
  O2-  O422  1  0.91559087  0.22602255  0.79348482  1
  O2-  O423  1  0.82532567  0.39855969  0.14574808  1
  O2-  O424  1  0.84221748  0.41114440  0.46853667  1
  O2-  O425  1  0.82879846  0.44346397  0.82362353  1
  O2-  O426  1  0.82555200  0.65843712  0.15273954  1
  O2-  O427  1  0.84446921  0.69250551  0.49897490  1
  O2-  O428  1  0.83536518  0.61673766  0.81223290  1
  O2-  O429  1  0.81857428  0.91571488  0.15968349  1
  O2-  O430  1  0.85164314  0.92599915  0.48659697  1
  O2-  O431  1  0.83616643  0.91959870  0.80294180  1
  O2-  O432  1  0.18787331  0.13301569  0.20661861  1
  O2-  O433  1  0.16885238  0.08744322  0.51039592  1
  O2-  O434  1  0.16553672  0.07624956  0.83884252  1
  O2-  O435  1  0.16677165  0.33175771  0.18011495  1
  O2-  O436  1  0.16120299  0.33180462  0.52076205  1
  O2-  O437  1  0.15656480  0.33253938  0.84981555  1
  O2-  O438  1  0.16682237  0.57000884  0.18677141  1
  O2-  O439  1  0.15598976  0.57776170  0.51577720  1
  O2-  O440  1  0.20345503  0.60687956  0.83589404  1
  O2-  O441  1  0.16624725  0.82859874  0.17342081  1
  O2-  O442  1  0.16296407  0.83353168  0.51343483  1
  O2-  O443  1  0.16241428  0.82245510  0.85610025  1
  O2-  O444  1  0.41972895  0.07645290  0.18708087  1
  O2-  O445  1  0.42520187  0.09777239  0.52022078  1
  O2-  O446  1  0.42375807  0.09673460  0.86819135  1
  O2-  O447  1  0.43526988  0.33837957  0.19429863  1
  O2-  O448  1  0.42595274  0.32940743  0.50558336  1
  O2-  O449  1  0.41364498  0.34540392  0.85374484  1
  O2-  O450  1  0.41037640  0.56619399  0.17726961  1
  O2-  O451  1  0.42368299  0.60397467  0.53570702  1
  O2-  O452  1  0.38693221  0.57225581  0.85669430  1
  O2-  O453  1  0.40230220  0.81701949  0.17867895  1
  O2-  O454  1  0.41922791  0.84646369  0.54364179  1
  O2-  O455  1  0.39485355  0.82079928  0.83703874  1
  O2-  O456  1  0.66462298  0.07732139  0.18710823  1
  O2-  O457  1  0.68427183  0.09839769  0.52793880  1
  O2-  O458  1  0.64439053  0.06495210  0.86218751  1
  O2-  O459  1  0.66096016  0.32734589  0.18853543  1
  O2-  O460  1  0.68896676  0.34292051  0.52098552  1
  O2-  O461  1  0.66255339  0.34967122  0.86683025  1
  O2-  O462  1  0.65200122  0.57463693  0.17743902  1
  O2-  O463  1  0.67102638  0.59037756  0.52661534  1
  O2-  O464  1  0.67781313  0.58619076  0.85245094  1
  O2-  O465  1  0.64314818  0.82151521  0.17748026  1
  O2-  O466  1  0.68374856  0.83389611  0.53613019  1
  O2-  O467  1  0.66413817  0.82237088  0.79430366  1
  O2-  O468  1  0.91005024  0.07778712  0.18726263  1
  O2-  O469  1  0.92232585  0.09041097  0.51792275  1
  O2-  O470  1  0.90125137  0.08240479  0.84684280  1
  O2-  O471  1  0.91616207  0.32403460  0.18698835  1
  O2-  O472  1  0.92274472  0.32077050  0.51052475  1
  O2-  O473  1  0.92465358  0.35843381  0.85496882  1
  O2-  O474  1  0.91465423  0.58048639  0.16469852  1
  O2-  O475  1  0.92368778  0.56076020  0.51508649  1
  O2-  O476  1  0.96887430  0.64182573  0.94620725  1
  O2-  O477  1  0.92388898  0.81733652  0.20634621  1
  O2-  O478  1  0.93021469  0.84812152  0.52604167  1
  O2-  O479  1  0.93845487  0.88281722  0.86725028  1
  O2-  O480  1  0.09676488  0.05861798  0.30845424  1
  O2-  O481  1  0.17415670  0.08554718  0.69870740  1
  O2-  O482  1  0.22075067  0.13993882  0.95558529  1
  O2-  O483  1  0.19749425  0.31178157  0.30176417  1
  O2-  O484  1  0.17136737  0.32777059  0.63285772  1
  O2-  O485  1  0.16384171  0.35276201  0.97320397  1
  O2-  O486  1  0.14791949  0.56818972  0.30703768  1
  O2-  O487  1  0.15330181  0.58269959  0.64200280  1
  O2-  O488  1  0.14383758  0.59712692  0.99149922  1
  O2-  O489  1  0.12793570  0.80151069  0.29133619  1
  O2-  O490  1  0.16544651  0.83310854  0.64000025  1
  O2-  O491  1  0.16574327  0.81500893  0.97268676  1
  O2-  O492  1  0.42005193  0.07948663  0.30809213  1
  O2-  O493  1  0.39444329  0.08808584  0.63748083  1
  O2-  O494  1  0.40751776  0.04537911  0.98547292  1
  O2-  O495  1  0.44490630  0.34524230  0.31274795  1
  O2-  O496  1  0.41371470  0.32792982  0.63653465  1
  O2-  O497  1  0.41777096  0.36505634  0.97731857  1
  O2-  O498  1  0.42804505  0.56558814  0.30010121  1
  O2-  O499  1  0.40914673  0.58707541  0.65606775  1
  O2-  O500  1  0.40911174  0.58697490  0.97300726  1
  O2-  O501  1  0.48538540  0.94146888  0.27985783  1
  O2-  O502  1  0.41687870  0.84893763  0.66181069  1
  O2-  O503  1  0.41078152  0.81570988  0.98657358  1
  O2-  O504  1  0.64687798  0.06206182  0.31685487  1
  O2-  O505  1  0.67953260  0.07496715  0.65102044  1
  O2-  O506  1  0.56509848  0.05949617  0.97563827  1
  O2-  O507  1  0.67445781  0.33004953  0.31305249  1
  O2-  O508  1  0.69338769  0.36285960  0.63872219  1
  O2-  O509  1  0.68137755  0.35218518  0.99129654  1
  O2-  O510  1  0.68578667  0.58301598  0.33000774  1
  O2-  O511  1  0.63885327  0.57889532  0.64938896  1
  O2-  O512  1  0.67524081  0.58274828  0.98278496  1
  O2-  O513  1  0.67542841  0.80957089  0.30030005  1
  O2-  O514  1  0.65833126  0.83008926  0.67113454  1
  O2-  O515  1  0.69829482  0.89398059  0.97929370  1
  O2-  O516  1  0.91482883  0.08950313  0.30500269  1
  O2-  O517  1  0.92643649  0.08380029  0.63872158  1
  O2-  O518  1  0.81651741  0.06237732  0.95598271  1
  O2-  O519  1  0.90559440  0.31284345  0.30962969  1
  O2-  O520  1  0.90727295  0.31661719  0.63287727  1
  O2-  O521  1  0.91787179  0.34586888  0.97740375  1
  O2-  O522  1  0.92235124  0.56217919  0.29472375  1
  O2-  O523  1  0.92653267  0.60791678  0.63493554  1
  O2-  O524  1  0.92646494  0.59674712  1.00293124  1
  O2-  O525  1  0.92635237  0.83218754  0.32272178  1
  O2-  O526  1  0.93704222  0.84771781  0.64799398  1
  O2-  O527  1  0.91018030  0.81618056  0.98232629  1
  O2-  O528  1  0.14702333  0.20744047  0.03475305  1
  O2-  O529  1  0.21375931  0.23907470  0.30218165  1
  O2-  O530  1  0.08736310  0.17409131  0.68781373  1
  O2-  O531  1  0.07814148  0.42576788  0.02145174  1
  O2-  O532  1  0.07152939  0.40479738  0.35914360  1
  O2-  O533  1  0.07281620  0.42516133  0.68789285  1
  O2-  O534  1  0.11185947  0.65125632  0.01891435  1
  O2-  O535  1  0.06527104  0.64946833  0.33720607  1
  O2-  O536  1  0.08565597  0.67750063  0.68182595  1
  O2-  O537  1  0.07997376  0.88720206  0.01249374  1
  O2-  O538  1  0.07636863  0.92112053  0.36400956  1
  O2-  O539  1  0.09403732  0.92208458  0.68704675  1
  O2-  O540  1  0.35027912  0.14375329  0.02397742  1
  O2-  O541  1  0.34822316  0.17452317  0.34864478  1
  O2-  O542  1  0.33609683  0.17671145  0.67900630  1
  O2-  O543  1  0.32517127  0.43670529  0.01634481  1
  O2-  O544  1  0.35237176  0.41425350  0.35324821  1
  O2-  O545  1  0.32228890  0.40819067  0.68059518  1
  O2-  O546  1  0.32476008  0.66176476  0.01743969  1
  O2-  O547  1  0.31042617  0.60770025  0.35305859  1
  O2-  O548  1  0.30587368  0.64727763  0.69954163  1
  O2-  O549  1  0.32144246  0.88262795  0.01919075  1
  O2-  O550  1  0.29575091  0.91675455  0.35432969  1
  O2-  O551  1  0.32460646  0.91682656  0.67701797  1
  O2-  O552  1  0.66408856  0.20541386  0.03622886  1
  O2-  O553  1  0.58650685  0.16146909  0.35987343  1
  O2-  O554  1  0.52186020  0.14034833  0.71774729  1
  O2-  O555  1  0.60480764  0.43020291  0.02616266  1
  O2-  O556  1  0.60101465  0.41472720  0.36143635  1
  O2-  O557  1  0.56772033  0.40221889  0.68640563  1
  O2-  O558  1  0.57403082  0.66045890  0.00371839  1
  O2-  O559  1  0.58480299  0.65039011  0.35541844  1
  O2-  O560  1  0.57435316  0.66827990  0.69224747  1
  O2-  O561  1  0.56460153  0.91587132  0.02643358  1
  O2-  O562  1  0.63828006  0.91786183  0.36582012  1
  O2-  O563  1  0.57558030  0.91884382  0.69133878  1
  O2-  O564  1  0.80537310  0.18984364  0.02637518  1
  O2-  O565  1  0.82894927  0.15187073  0.33790091  1
  O2-  O566  1  0.84752933  0.16430081  0.68442427  1
  O2-  O567  1  0.83885036  0.42485907  0.02541236  1
  O2-  O568  1  0.84009956  0.41383605  0.34676891  1
  O2-  O569  1  0.84130505  0.45538575  0.70030112  1
  O2-  O570  1  0.82721978  0.65694412  0.03055806  1
  O2-  O571  1  0.85613318  0.67084740  0.37929754  1
  O2-  O572  1  0.85831847  0.69484543  0.69093896  1
  O2-  O573  1  0.83717653  0.89843527  0.03379162  1
  O2-  O574  1  0.86129151  0.93983763  0.36653330  1
  O2-  O575  1  0.84181441  0.92093246  0.68094582  1
