# generated using pymatgen
data_H2O
_symmetry_space_group_name_H-M   'P 1'
_cell_length_a   17.97545852
_cell_length_b   17.97530638
_cell_length_c   21.99344572
_cell_angle_alpha   90.01463725
_cell_angle_beta   90.00510825
_cell_angle_gamma   119.99757913
_symmetry_Int_Tables_number   1
_chemical_formula_structural   H2O
_chemical_formula_sum   'H384 O192'
_cell_volume   6154.47131584
_cell_formula_units_Z   192
loop_
 _symmetry_equiv_pos_site_id
 _symmetry_equiv_pos_as_xyz
  1  'x, y, z'
loop_
 _atom_type_symbol
 _atom_type_oxidation_number
  H+  1.0
  O2-  -2.0
loop_
 _atom_site_type_symbol
 _atom_site_label
 _atom_site_symmetry_multiplicity
 _atom_site_fract_x
 _atom_site_fract_y
 _atom_site_fract_z
 _atom_site_occupancy
  H+  H0  1  0.15622849  0.78177673  0.32704205  1
  H+  H1  1  0.27823473  0.63773287  0.33669794  1
  H+  H2  1  0.09238947  0.64208089  0.01227311  1
  H+  H3  1  0.10039675  0.88909883  1.00239821  1
  H+  H4  1  0.36079322  0.38836100  0.83886247  1
  H+  H5  1  0.38606807  0.76545172  0.68004019  1
  H+  H6  1  0.68799218  0.13759241  0.54034348  1
  H+  H7  1  0.13812976  0.11586595  0.83770434  1
  H+  H8  1  0.39703212  0.78878777  0.46139377  1
  H+  H9  1  0.60690397  0.63268979  0.81166513  1
  H+  H10  1  0.74057595  0.85859766  0.99415579  1
  H+  H11  1  0.60984103  0.13736457  0.15129713  1
  H+  H12  1  0.36539763  0.47576072  0.49815697  1
  H+  H13  1  0.47027974  0.11422799  -0.00263326  1
  H+  H14  1  0.64365023  0.61668368  0.18178315  1
  H+  H15  1  0.46817499  0.36089779  0.50288826  1
  H+  H16  1  0.63826508  0.21763959  0.52212185  1
  H+  H17  1  0.83742540  0.51476545  0.46794321  1
  H+  H18  1  0.61160321  0.22411280  0.84951129  1
  H+  H19  1  0.26675883  0.13648648  0.67482789  1
  H+  H20  1  0.65015739  0.34951632  0.66936397  1
  H+  H21  1  0.62894877  0.98548546  0.49621009  1
  H+  H22  1  0.14549148  0.11969296  0.32068075  1
  H+  H23  1  0.01744330  0.89122483  0.83556432  1
  H+  H24  1  0.59898689  0.39039971  0.48092397  1
  H+  H25  1  0.23057988  0.62542642  0.17353643  1
  H+  H26  1  0.62203444  0.26785987  0.16674681  1
  H+  H27  1  0.86949380  0.35048233  0.32413625  1
  H+  H28  1  0.13770388  0.61030021  0.84335068  1
  H+  H29  1  0.65930285  0.36927840  0.54479161  1
  H+  H30  1  0.84472862  0.42565245  -0.05094854  1
  H+  H31  1  0.83401207  0.91085556  0.39341511  1
  H+  H32  1  0.27103681  0.63271019  0.49214516  1
  H+  H33  1  0.13106357  0.87109488  0.32711710  1
  H+  H34  1  0.51594841  0.14591724  0.32846222  1
  H+  H35  1  0.13295354  0.89042635  0.48111974  1
  H+  H36  1  0.89424873  0.01660352  0.50822639  1
  H+  H37  1  0.63747736  0.52941790  0.03008619  1
  H+  H38  1  0.85000300  0.19047470  0.77392117  1
  H+  H39  1  0.11481508  0.39123260  0.82518854  1
  H+  H40  1  0.15103123  0.52679676  0.65637305  1
  H+  H41  1  0.08562680  0.41113823  0.27631155  1
  H+  H42  1  1.04285812  0.38866110  0.67226037  1
  H+  H43  1  0.27230100  0.13679529  0.82763336  1
  H+  H44  1  0.88762628  0.18243877  0.83561149  1
  H+  H45  1  0.47092901  0.10825486  0.85372129  1
  H+  H46  1  0.98814727  0.87281582  0.17861555  1
  H+  H47  1  0.37462387  0.89616257  0.33855526  1
  H+  H48  1  0.11336415  0.64729460  0.15961352  1
  H+  H49  1  0.36026877  0.13525225  0.82877277  1
  H+  H50  1  0.88649702  0.01634491  0.31846159  1
  H+  H51  1  0.84563598  0.68207290  0.76912147  1
  H+  H52  1  0.62637995  0.89346608  -0.00024130  1
  H+  H53  1  0.78060544  0.88550238  0.67865182  1
  H+  H54  1  0.22571436  0.11919415  0.98899479  1
  H+  H55  1  0.68421595  0.41393680  0.55813364  1
  H+  H56  1  0.13817095  0.52835968  0.50423494  1
  H+  H57  1  0.60285588  0.38542082  0.15985504  1
  H+  H58  1  0.62820147  0.10810244  0.88155493  1
  H+  H59  1  0.62220877  0.28586116  0.32016210  1
  H+  H60  1  -0.01245481  0.13166603  0.84045275  1
  H+  H61  1  0.35952759  -0.01747341  1.01799512  1
  H+  H62  1  0.10878620  0.63808236  0.49090528  1
  H+  H63  1  0.64262842  0.76272096  0.32939679  1
  H+  H64  1  0.10241199  0.88415407  0.67956311  1
  H+  H65  1  0.12226018  0.90013007  0.15431803  1
  H+  H66  1  0.60544521  0.13383991  -0.00206151  1
  H+  H67  1  0.07517565  0.91465629  0.77515362  1
  H+  H68  1  0.75464953  0.11391606  0.51338765  1
  H+  H69  1  1.01046787  0.88234715  0.68126447  1
  H+  H70  1  0.37316928  0.03123178  0.65510069  1
  H+  H71  1  0.63030093  0.85457497  0.33592929  1
  H+  H72  1  0.38635543  0.61060685  0.50438683  1
  H+  H73  1  0.26100777  0.14017795  0.31866273  1
  H+  H74  1  0.14181542  1.02024809  0.50086231  1
  H+  H75  1  0.40853052  0.98201078  0.72113411  1
  H+  H76  1  0.89419172  0.78789701  0.18167414  1
  H+  H77  1  0.22732428  0.11683881  0.16822176  1
  H+  H78  1  -0.01389122  0.10454901  0.50806690  1
  H+  H79  1  0.88354280  0.52145429  0.65170844  1
  H+  H80  1  0.88163596  0.01581881  0.16385807  1
  H+  H81  1  0.46837913  0.36718058  0.32203325  1
  H+  H82  1  0.14063474  0.53379996  0.17278310  1
  H+  H83  1  0.46686680  0.86333369  0.84290133  1
  H+  H84  1  0.61840141  0.39174029  0.82689181  1
  H+  H85  1  0.37135723  0.47507112  0.66375531  1
  H+  H86  1  0.63685148  0.51211717  0.66287182  1
  H+  H87  1  0.64506382  0.86703001  0.51010330  1
  H+  H88  1  0.60841264  0.63213055  0.67521045  1
  H+  H89  1  0.60972185  0.40720992  0.33018832  1
  H+  H90  1  0.57001199  0.10318463  0.46986503  1
  H+  H91  1  0.88683017  0.10681765  0.16913841  1
  H+  H92  1  0.88856105  0.42675306  0.50113439  1
  H+  H93  1  0.90030965  0.55152128  0.14245916  1
  H+  H94  1  0.61036509  0.84363785  0.85866499  1
  H+  H95  1  0.52132628  0.38659062  0.00469998  1
  H+  H96  1  0.11864128  0.85243869  0.84578187  1
  H+  H97  1  0.36095778  0.47724014  0.84442203  1
  H+  H98  1  -0.02327475  0.63013067  -0.00138419  1
  H+  H99  1  0.63137113  0.27068212  0.99542359  1
  H+  H100  1  0.00282838  0.66914215  0.19521426  1
  H+  H101  1  0.36100101  0.74141454  0.17300211  1
  H+  H102  1  0.88559305  0.77787803  0.32418714  1
  H+  H103  1  0.53236812  0.37627698  0.66778406  1
  H+  H104  1  0.87911662  0.26455172  0.32903942  1
  H+  H105  1  1.00757599  0.38143019  0.31982838  1
  H+  H106  1  0.16673866  0.58724168  0.56416770  1
  H+  H107  1  0.78786854  0.87996069  0.16177160  1
  H+  H108  1  0.36665558  0.89788584  0.48802384  1
  H+  H109  1  0.71413182  0.36981160  0.31548967  1
  H+  H110  1  0.36150078  -0.01502482  0.49445261  1
  H+  H111  1  0.64061551  0.77205716  0.66283889  1
  H+  H112  1  0.38873762  0.03242656  0.32058157  1
  H+  H113  1  0.47799191  0.61686215  0.65959236  1
  H+  H114  1  0.62749494  0.97111953  0.69354669  1
  H+  H115  1  0.12977654  1.01665100  0.66677802  1
  H+  H116  1  0.37314775  0.52784136  0.18139799  1
  H+  H117  1  0.46285420  0.85620815  0.18345734  1
  H+  H118  1  0.79287577  0.37540309  0.68884124  1
  H+  H119  1  0.85776590  0.74412670  0.01536949  1
  H+  H120  1  0.73885679  0.09880568  0.67466004  1
  H+  H121  1  0.16856028  0.83580937  0.60330833  1
  H+  H122  1  -0.02935097  0.62431314  0.50024752  1
  H+  H123  1  0.11460364  0.14680457  0.16679660  1
  H+  H124  1  0.91674581  0.60102772  0.34727459  1
  H+  H125  1  0.61378204  0.63693301  0.49787255  1
  H+  H126  1  0.27289109  0.63810466  0.82594493  1
  H+  H127  1  0.13074863  0.35143648  0.33412329  1
  H+  H128  1  0.35748367  0.22683498  1.00181928  1
  H+  H129  1  0.50147186  0.12969220  0.48919926  1
  H+  H130  1  0.53760022  0.89893857  0.48986446  1
  H+  H131  1  0.87274243  0.73647527  0.67827229  1
  H+  H132  1  0.37360739  0.76225681  0.83346431  1
  H+  H133  1  0.77374581  0.12386973  -0.00548682  1
  H+  H134  1  0.90355755  0.58673467  0.55740466  1
  H+  H135  1  0.38924161  0.61834564  0.84815772  1
  H+  H136  1  0.95957354  0.89000785  1.00331553  1
  H+  H137  1  0.73511854  0.38307569  0.85679062  1
  H+  H138  1  0.48741509  0.62225165  0.00201524  1
  H+  H139  1  0.99131268  0.91491273  0.55673303  1
  H+  H140  1  0.48009430  0.36377927  0.83514914  1
  H+  H141  1  0.50817922  0.13864361  0.69609966  1
  H+  H142  1  0.91503725  0.26064541  0.50786370  1
  H+  H143  1  0.23288728  0.35660458  0.50433705  1
  H+  H144  1  0.27793585  0.63651213  0.67182153  1
  H+  H145  1  0.37712665  0.12125218  0.66020329  1
  H+  H146  1  0.87638486  0.22117251  0.67736104  1
  H+  H147  1  0.10829888  0.21592658  0.34043627  1
  H+  H148  1  0.12550806  0.64389831  0.33122550  1
  H+  H149  1  0.31434863  0.90529693  0.78559808  1
  H+  H150  1  0.13233359  0.39018498  0.66883711  1
  H+  H151  1  0.68836432  0.76946928  0.18251000  1
  H+  H152  1  0.36516891  0.23994406  0.32368881  1
  H+  H153  1  0.80685054  0.66723836  0.39274048  1
  H+  H154  1  0.66861089  0.82579378  0.94127095  1
  H+  H155  1  0.38143543  0.42313528  0.05897420  1
  H+  H156  1  0.13067275  0.10339170  0.50653392  1
  H+  H157  1  0.02123434  0.12514302  0.33418992  1
  H+  H158  1  0.86616749  0.88322936  0.33399098  1
  H+  H159  1  0.04854127  0.66003187  0.31630299  1
  H+  H160  1  0.11778189  0.13003343  0.99369757  1
  H+  H161  1  0.81720720  0.63079305  0.32972875  1
  H+  H162  1  0.84506292  0.72780729  0.48673268  1
  H+  H163  1  0.14981601  0.61584946  0.66196440  1
  H+  H164  1  0.61432119  0.64092454  0.02983676  1
  H+  H165  1  0.59429382  0.96726146  0.85405430  1
  H+  H166  1  0.37265540  0.35890354  0.15984259  1
  H+  H167  1  0.84625131  0.46840627  0.31914650  1
  H+  H168  1  0.22775040  0.35606539  1.00156980  1
  H+  H169  1  0.11689173  0.22013188  0.48919771  1
  H+  H170  1  0.37665580  0.11748311  0.50584994  1
  H+  H171  1  0.47870930  0.60695271  0.33101874  1
  H+  H172  1  0.88783263  0.42852517  0.84782803  1
  H+  H173  1  0.82753064  0.15062329  1.05748246  1
  H+  H174  1  0.02186572  0.13884792  0.16719052  1
  H+  H175  1  0.73082121  0.18139728  0.29277864  1
  H+  H176  1  0.39054266  0.77930134  0.32980359  1
  H+  H177  1  0.69316231  0.64169737  0.33588813  1
  H+  H178  1  0.27039555  0.38583676  0.34649302  1
  H+  H179  1  0.86987006  0.88320423  0.68670300  1
  H+  H180  1  0.39859203  0.62283222  1.00617438  1
  H+  H181  1  0.36475612  0.85392944  0.84423924  1
  H+  H182  1  0.12250233  0.26644406  0.18438433  1
  H+  H183  1  0.02711705  0.37698624  0.00764607  1
  H+  H184  1  0.61730469  0.72779021  0.49379777  1
  H+  H185  1  0.01729175  0.12453766  -0.00289921  1
  H+  H186  1  0.04220035  0.38335101  0.48864822  1
  H+  H187  1  0.38482264  0.10797092  0.16737666  1
  H+  H188  1  0.64411034  0.86139368  0.67159011  1
  H+  H189  1  0.37446130  0.88928377  0.69636820  1
  H+  H190  1  0.01505413  0.61525149  0.83405063  1
  H+  H191  1  0.72595862  0.62053946  1.03463469  1
  H+  H192  1  0.12400996  0.35893080  0.18372986  1
  H+  H193  1  0.24263983  0.87733364  0.32886257  1
  H+  H194  1  0.12401289  0.72411254  0.68078166  1
  H+  H195  1  0.62680736  0.52300479  0.50709456  1
  H+  H196  1  0.52235035  0.64088916  0.17027588  1
  H+  H197  1  0.77382821  0.13608066  0.15038611  1
  H+  H198  1  0.39740470  0.87145923  1.00834827  1
  H+  H199  1  0.86827621  0.66017978  1.01011181  1
  H+  H200  1  0.51762526  0.13247442  0.15305727  1
  H+  H201  1  0.36895071  0.88172928  0.17788902  1
  H+  H202  1  0.23048700  0.86459698  0.50595700  1
  H+  H203  1  0.37848566  0.49086174  1.01249874  1
  H+  H204  1  0.63264390  0.90418717  0.14672991  1
  H+  H205  1  0.88691017  0.54169441  1.00137245  1
  H+  H206  1  0.24998285  0.87041459  0.84327838  1
  H+  H207  1  0.87147283  0.12647307  0.33639975  1
  H+  H208  1  0.11264759  0.22280672  1.00126787  1
  H+  H209  1  0.87465654  0.34113916  0.16208847  1
  H+  H210  1  0.61682056  0.47800738  0.80848717  1
  H+  H211  1  0.87256040  0.40659749  0.73439515  1
  H+  H212  1  0.13713307  0.53176473  0.31924273  1
  H+  H213  1  0.75026966  0.34794408  0.14635365  1
  H+  H214  1  0.14204105  0.78938684  0.16373952  1
  H+  H215  1  0.77603582  0.64522996  0.17240000  1
  H+  H216  1  1.02073258  0.38986953  0.16128325  1
  H+  H217  1  0.47750688  0.61424933  0.50478732  1
  H+  H218  1  0.12185269  0.23408994  0.82766295  1
  H+  H219  1  0.85755677  0.64586005  0.48861997  1
  H+  H220  1  0.13338738  1.02311772  0.84039949  1
  H+  H221  1  0.90096810  0.00635176  0.98872484  1
  H+  H222  1  0.12108320  0.46222781  1.00272323  1
  H+  H223  1  0.22451092  0.86974157  0.66322252  1
  H+  H224  1  0.08190401  0.92737441  0.09917387  1
  H+  H225  1  0.04750077  0.89422161  0.47751579  1
  H+  H226  1  0.34310299  0.92945722  0.39618398  1
  H+  H227  1  0.86473961  0.37298646  0.99532517  1
  H+  H228  1  0.14648475  0.35913679  0.49998858  1
  H+  H229  1  0.91620751  0.34982452  0.51338232  1
  H+  H230  1  0.13787026  0.35509616  0.00413747  1
  H+  H231  1  0.38904739  0.01926061  0.17474241  1
  H+  H232  1  0.13638870  0.02933305  0.16947911  1
  H+  H233  1  0.28606458  0.38384662  0.66205447  1
  H+  H234  1  0.87412233  0.13172230  0.68205961  1
  H+  H235  1  0.14313249  0.52427151  0.83202972  1
  H+  H236  1  0.08607749  0.41873205  0.10579936  1
  H+  H237  1  0.61051157  0.38715697  0.00875536  1
  H+  H238  1  0.23337809  0.87537372  0.17071404  1
  H+  H239  1  0.89233230  1.01609220  0.66736170  1
  H+  H240  1  0.36859577  0.63722623  0.67354575  1
  H+  H241  1  0.02710583  0.13565588  0.67692052  1
  H+  H242  1  0.38747580  0.36368487  0.98391505  1
  H+  H243  1  0.85625426  0.40689534  0.52679903  1
  H+  H244  1  0.73199128  0.62479606  0.80676366  1
  H+  H245  1  1.02439830  0.87069552  0.32919454  1
  H+  H246  1  0.39878597  0.36690007  0.65516152  1
  H+  H247  1  0.96865978  0.82041881  0.55781859  1
  H+  H248  1  0.14266796  0.27111456  0.65831110  1
  H+  H249  1  0.88423629  0.12996287  0.49767916  1
  H+  H250  1  0.86223516  0.88137252  0.49328571  1
  H+  H251  1  0.75030805  0.42808479  0.47248458  1
  H+  H252  1  0.85698726  0.73920879  0.82799308  1
  H+  H253  1  0.53532137  0.88450731  0.69864185  1
  H+  H254  1  0.87662031  -0.00229455  0.82729191  1
  H+  H255  1  0.51704597  0.62979935  0.82801409  1
  H+  H256  1  0.26775434  0.13265981  0.50294760  1
  H+  H257  1  0.78374265  0.64425978  0.67539115  1
  H+  H258  1  0.35835642  0.22279326  0.14857243  1
  H+  H259  1  0.86579486  0.50753532  0.13258904  1
  H+  H260  1  0.09572658  0.71122166  0.83719646  1
  H+  H261  1  0.90782314  0.84857356  0.90307385  1
  H+  H262  1  0.37938891  0.01917683  0.85109003  1
  H+  H263  1  0.72341995  0.35749609  0.99312676  1
  H+  H264  1  0.33557803  0.66636555  0.76726204  1
  H+  H265  1  0.29840482  0.42269648  0.11444525  1
  H+  H266  1  0.39032735  0.27436804  0.83624918  1
  H+  H267  1  0.73241926  0.85861704  0.32781037  1
  H+  H268  1  0.64014111  0.02961170  0.16224282  1
  H+  H269  1  0.39130997  0.27422927  0.65868224  1
  H+  H270  1  0.63286063  0.01726373  0.97636986  1
  H+  H271  1  0.60406434  0.21354402  0.70312757  1
  H+  H272  1  0.88812042  0.25267474  0.99210405  1
  H+  H273  1  0.66998008  0.58845222  0.75012773  1
  H+  H274  1  0.35949386  0.64871271  0.16977877  1
  H+  H275  1  0.89021011  0.88377235  0.84142571  1
  H+  H276  1  0.91511723  0.07560268  0.25819366  1
  H+  H277  1  0.61893587  0.76062848  0.84788161  1
  H+  H278  1  0.77386446  0.88181971  0.49639467  1
  H+  H279  1  0.35569728  0.22237474  0.49926141  1
  H+  H280  1  0.28829917  0.63898211  1.01426138  1
  H+  H281  1  0.35596838  0.13664644  0.00343941  1
  H+  H282  1  -0.01636039  0.40172500  0.80758293  1
  H+  H283  1  0.36344462  0.14483548  0.32200027  1
  H+  H284  1  0.86598451  0.22057994  0.14940721  1
  H+  H285  1  0.73671379  0.28511639  0.53269074  1
  H+  H286  1  0.63886889  0.13483709  0.31873940  1
  H+  H287  1  0.64273044  0.52951094  0.17691402  1
  H+  H288  1  0.70103926  0.57938434  0.90938145  1
  H+  H289  1  0.41673266  0.08775385  0.25842865  1
  H+  H290  1  0.85521871  0.16111681  0.43722473  1
  H+  H291  1  0.10979846  0.98178128  0.00033541  1
  H+  H292  1  0.65485542  0.33169913  0.22488901  1
  H+  H293  1  0.91448141  0.61312336  0.27401018  1
  H+  H294  1  0.24260346  0.52664862  0.95168284  1
  H+  H295  1  0.83861695  0.68036467  0.11404403  1
  H+  H296  1  0.09436795  0.91176277  0.38577520  1
  H+  H297  1  0.89905273  0.83399970  0.62328953  1
  H+  H298  1  0.81213987  0.42391217  0.38093083  1
  H+  H299  1  0.15924548  0.07285275  0.60511424  1
  H+  H300  1  0.39740770  0.78353638  1.00721995  1
  H+  H301  1  0.81214967  0.38169470  0.08877166  1
  H+  H302  1  0.37861267  0.36285108  0.32726016  1
  H+  H303  1  0.17328497  0.59410440  0.26170776  1
  H+  H304  1  0.92295519  0.07547298  0.60730425  1
  H+  H305  1  0.58026540  0.91876381  0.78873982  1
  H+  H306  1  0.16601553  0.08767806  0.92760631  1
  H+  H307  1  0.90586134  0.35845570  0.66103468  1
  H+  H308  1  0.67088738  0.83458915  0.57044583  1
  H+  H309  1  0.41623507  0.83516926  0.26705153  1
  H+  H310  1  0.40264190  0.79908902  0.52892099  1
  H+  H311  1  0.67844737  0.59593335  0.92918705  1
  H+  H312  1  0.87773470  0.60796182  0.65330095  1
  H+  H313  1  0.61794801  0.73162493  0.01497791  1
  H+  H314  1  0.16061803  0.33225678  0.90145505  1
  H+  H315  1  0.89458638  0.31533799  0.81233708  1
  H+  H316  1  0.09726773  0.42235789  0.42817715  1
  H+  H317  1  0.33748898  0.67530275  0.07833162  1
  H+  H318  1  0.59580837  0.65844799  0.40224579  1
  H+  H319  1  0.94037449  0.32500299  0.60525174  1
  H+  H320  1  0.57866961  0.42106919  0.10227823  1
  H+  H321  1  0.13971731  0.77555394  0.50486472  1
  H+  H322  1  0.66277905  0.57803626  0.60791086  1
  H+  H323  1  0.16148962  0.32529428  0.27540359  1
  H+  H324  1  0.17486046  0.09423482  0.25689765  1
  H+  H325  1  0.14274681  0.81827702  0.90669149  1
  H+  H326  1  0.32895309  0.16783421  0.73358161  1
  H+  H327  1  0.41861087  0.58867900  0.59991837  1
  H+  H328  1  0.57501877  0.15808193  0.79517469  1
  H+  H329  1  0.41376982  0.09129556  0.56441305  1
  H+  H330  1  0.09136255  0.17347436  0.76811157  1
  H+  H331  1  0.42221837  0.59360421  0.90913656  1
  H+  H332  1  0.90665471  0.56720981  0.90837745  1
  H+  H333  1  0.08337631  0.66998853  0.43059397  1
  H+  H334  1  0.57954106  0.67044484  0.11075911  1
  H+  H335  1  0.92695651  0.09481964  0.89853819  1
  H+  H336  1  0.58988070  0.90759065  0.39726718  1
  H+  H337  1  0.53346750  0.89085965  0.00143950  1
  H+  H338  1  0.88799333  0.09055998  0.99426737  1
  H+  H339  1  0.10192882  0.42506635  0.76040187  1
  H+  H340  1  0.52557298  0.87277714  0.33874475  1
  H+  H341  1  0.58799579  0.40447083  0.72872543  1
  H+  H342  1  0.32478310  0.15588447  0.09620932  1
  H+  H343  1  0.68269959  0.05913502  0.61573565  1
  H+  H344  1  0.26942767  0.89881907  0.02856153  1
  H+  H345  1  0.25051414  0.38385994  0.17652384  1
  H+  H346  1  0.90717591  0.32310585  0.22583943  1
  H+  H347  1  0.59819439  0.92889435  0.08897256  1
  H+  H348  1  0.57137166  0.17522390  0.38944061  1
  H+  H349  1  0.91640804  0.67500434  0.19701156  1
  H+  H350  1  0.42776692  0.84062593  0.63076834  1
  H+  H351  1  0.36454024  0.38521018  0.49852564  1
  H+  H352  1  0.09431623  0.66190685  0.73831163  1
  H+  H353  1  0.84161333  0.91610126  0.09548097  1
  H+  H354  1  0.59755223  0.49102306  0.33730859  1
  H+  H355  1  0.32755530  0.65347371  0.43122686  1
  H+  H356  1  0.40646270  0.07981463  0.94066836  1
  H+  H357  1  0.07527701  0.67475333  0.10238096  1
  H+  H358  1  0.36714559  0.63684545  0.34095467  1
  H+  H359  1  0.18929998  0.56464958  0.92277255  1
  H+  H360  1  0.84399617  0.93212418  0.77146990  1
  H+  H361  1  0.92776774  0.84107140  0.26521763  1
  H+  H362  1  0.66414558  0.34182716  0.90703221  1
  H+  H363  1  0.57227390  0.42541130  0.42358294  1
  H+  H364  1  0.34402556  0.91689068  0.11593820  1
  H+  H365  1  0.11555509  0.13535365  0.67610421  1
  H+  H366  1  0.41838011  0.33127591  0.56699184  1
  H+  H367  1  0.21120254  0.81583539  0.97478963  1
  H+  H368  1  0.17043296  0.32622134  0.59657150  1
  H+  H369  1  0.78201180  0.12303319  0.34797482  1
  H+  H370  1  0.41127472  0.58708989  0.23936504  1
  H+  H371  1  0.38682448  0.52117127  0.33391264  1
  H+  H372  1  0.08213189  0.15675641  0.43082330  1
  H+  H373  1  0.92373243  0.31212350  0.93431304  1
  H+  H374  1  0.11241380  0.74921874  0.00382057  1
  H+  H375  1  0.57582571  0.66564194  0.73174291  1
  H+  H376  1  0.71749286  0.60971018  0.50896518  1
  H+  H377  1  0.46370226  0.36375027  0.15056186  1
  H+  H378  1  0.66675149  0.09130267  0.22135692  1
  H+  H379  1  0.22766689  0.36826129  0.84670504  1
  H+  H380  1  0.67810898  0.29502082  0.62640438  1
  H+  H381  1  0.33274671  0.41644812  0.40469100  1
  H+  H382  1  0.41943612  0.33142725  0.92742059  1
  H+  H383  1  0.57946027  0.16268826  0.06049339  1
  O2-  O384  1  0.08384735  0.17860685  0.15731085  1
  O2-  O385  1  0.08422092  0.15825970  0.47647677  1
  O2-  O386  1  0.09254745  0.17281396  0.81374400  1
  O2-  O387  1  0.08365263  0.42153654  0.15094967  1
  O2-  O388  1  0.10169906  0.42238543  0.47240145  1
  O2-  O389  1  0.09305377  0.42692999  0.80548964  1
  O2-  O390  1  0.08314053  0.67854943  0.14787578  1
  O2-  O391  1  0.08076483  0.67075971  0.47553697  1
  O2-  O392  1  0.07568452  0.65183566  0.82162451  1
  O2-  O393  1  0.08846488  0.93039491  0.14395822  1
  O2-  O394  1  0.10648307  0.92225440  0.46099244  1
  O2-  O395  1  0.07869730  0.91687199  0.82060954  1
  O2-  O396  1  0.32966855  0.15894324  0.14138587  1
  O2-  O397  1  0.32745560  0.16078409  0.48720606  1
  O2-  O398  1  0.33258124  0.16683596  0.81166142  1
  O2-  O399  1  0.30937320  0.42006828  0.15771675  1
  O2-  O400  1  0.33454604  0.41567679  0.48205969  1
  O2-  O401  1  0.32574622  0.41611521  0.83241909  1
  O2-  O402  1  0.32974678  0.67881740  0.15347985  1
  O2-  O403  1  0.33112422  0.65809424  0.47679258  1
  O2-  O404  1  0.33519049  0.67139611  0.81287283  1
  O2-  O405  1  0.34347149  0.91965538  0.16089940  1
  O2-  O406  1  0.33223809  0.92495781  0.47698522  1
  O2-  O407  1  0.31291293  0.90111160  0.83064664  1
  O2-  O408  1  0.57753366  0.16556148  0.13585742  1
  O2-  O409  1  0.56176243  0.15288924  0.47055342  1
  O2-  O410  1  0.57964171  0.16157985  0.84100433  1
  O2-  O411  1  0.57478624  0.41887031  0.14756830  1
  O2-  O412  1  0.57094288  0.42290774  0.46978747  1
  O2-  O413  1  0.58387907  0.41372057  0.80583243  1
  O2-  O414  1  0.58223688  0.66663085  0.15576181  1
  O2-  O415  1  0.58713594  0.66794690  0.47736597  1
  O2-  O416  1  0.57388154  0.66366322  0.80735510  1
  O2-  O417  1  0.59852400  0.93006503  0.13457332  1
  O2-  O418  1  0.59925815  0.92607418  0.47931304  1
  O2-  O419  1  0.56146885  0.91136665  0.83271523  1
  O2-  O420  1  0.83323682  0.16064414  0.13362062  1
  O2-  O421  1  0.85744296  0.16461449  0.48265414  1
  O2-  O422  1  0.86039097  0.21274141  0.81633455  1
  O2-  O423  1  0.79949125  0.34737893  0.12560075  1
  O2-  O424  1  0.79059538  0.46835175  0.44301213  1
  O2-  O425  1  0.85563918  0.45186990  0.87372433  1
  O2-  O426  1  0.83824311  0.68057814  0.15904312  1
  O2-  O427  1  0.81872359  0.66822724  0.47358488  1
  O2-  O428  1  0.82977849  0.67919308  0.81280639  1
  O2-  O429  1  0.82248770  0.93441283  0.13148215  1
  O2-  O430  1  0.83346732  0.91165534  0.47820460  1
  O2-  O431  1  0.84962815  0.93617062  0.81650846  1
  O2-  O432  1  0.16765108  0.09052993  0.18512342  1
  O2-  O433  1  0.15828265  0.07254799  0.52561731  1
  O2-  O434  1  0.16748411  0.08476527  0.85409404  1
  O2-  O435  1  0.15229604  0.32881979  0.20232289  1
  O2-  O436  1  0.17031974  0.32391606  0.51627901  1
  O2-  O437  1  0.16323214  0.33666155  0.85670213  1
  O2-  O438  1  0.16856749  0.59349692  0.18879557  1
  O2-  O439  1  0.16364390  0.58864109  0.51848770  1
  O2-  O440  1  0.17388909  0.58320853  0.85181631  1
  O2-  O441  1  0.17023257  0.85151287  0.17328903  1
  O2-  O442  1  0.16963916  0.83571700  0.52098892  1
  O2-  O443  1  0.14602774  0.81884254  0.86069853  1
  O2-  O444  1  0.41961835  0.08357706  0.18457866  1
  O2-  O445  1  0.41075920  0.08715591  0.51910974  1
  O2-  O446  1  0.40783397  0.08031294  0.86331501  1
  O2-  O447  1  0.40086303  0.32962775  0.14131752  1
  O2-  O448  1  0.41007510  0.32988165  0.52142335  1
  O2-  O449  1  0.42090417  0.33398754  0.85288099  1
  O2-  O450  1  0.40761562  0.58897082  0.19428700  1
  O2-  O451  1  0.41815042  0.58263248  0.52150916  1
  O2-  O452  1  0.41867770  0.58804494  0.86371980  1
  O2-  O453  1  0.40483426  0.82859321  0.20051804  1
  O2-  O454  1  0.42028779  0.83467091  0.49239500  1
  O2-  O455  1  0.40075677  0.82472310  0.85073815  1
  O2-  O456  1  0.66819776  0.09126550  0.17631887  1
  O2-  O457  1  0.69484944  0.08782562  0.52985203  1
  O2-  O458  1  0.65189578  0.07052423  0.89468114  1
  O2-  O459  1  0.65595986  0.32939282  0.17957110  1
  O2-  O460  1  0.68566422  0.24058143  0.55313840  1
  O2-  O461  1  0.67231693  0.34554312  0.86160734  1
  O2-  O462  1  0.67533589  0.58746725  0.19517316  1
  O2-  O463  1  0.65855063  0.58076911  0.52666023  1
  O2-  O464  1  0.66783632  0.58644859  0.79450924  1
  O2-  O465  1  0.74059414  0.81386688  0.20309671  1
  O2-  O466  1  0.67251269  0.83386865  0.52471885  1
  O2-  O467  1  0.64197186  0.81484573  0.87136960  1
  O2-  O468  1  0.91539220  0.07608063  0.18547932  1
  O2-  O469  1  0.92626382  0.07572931  0.52546124  1
  O2-  O470  1  0.92716595  0.10801069  0.85476444  1
  O2-  O471  1  0.91649637  0.32592708  0.18133478  1
  O2-  O472  1  0.94926743  0.32188539  0.52426908  1
  O2-  O473  1  0.92066234  0.37999099  0.80744687  1
  O2-  O474  1  0.96063988  0.67197813  0.22325922  1
  O2-  O475  1  0.90913733  0.59897550  0.51157262  1
  O2-  O476  1  0.90329304  0.54576202  0.86497186  1
  O2-  O477  1  0.93177385  0.84568925  0.19978727  1
  O2-  O478  1  0.96226745  0.86194863  0.53281991  1
  O2-  O479  1  0.91562012  0.84803407  0.85867890  1
  O2-  O480  1  0.18275896  0.09857528  0.30295762  1
  O2-  O481  1  0.16226396  0.07717384  0.65034085  1
  O2-  O482  1  0.16409227  0.08907564  0.97380100  1
  O2-  O483  1  0.16361278  0.32364959  0.32153149  1
  O2-  O484  1  0.17399641  0.33101366  0.64175909  1
  O2-  O485  1  0.16772079  0.32477951  0.98705342  1
  O2-  O486  1  0.17299714  0.59308281  0.30818810  1
  O2-  O487  1  0.17998093  0.58757489  0.64137682  1
  O2-  O488  1  0.20450827  0.54837483  0.96313419  1
  O2-  O489  1  0.18093672  0.84314689  0.31490643  1
  O2-  O490  1  0.16550645  0.83550679  0.64858450  1
  O2-  O491  1  0.15877967  0.81810895  0.98205680  1
  O2-  O492  1  0.41587631  0.09237154  0.30443467  1
  O2-  O493  1  0.40913343  0.09187610  0.64419710  1
  O2-  O494  1  0.40778413  0.08286221  0.98619692  1
  O2-  O495  1  0.40769373  0.33356197  0.30865397  1
  O2-  O496  1  0.42809079  0.33306342  0.64202249  1
  O2-  O497  1  0.41576449  0.33041984  0.97337270  1
  O2-  O498  1  0.41791525  0.58219223  0.31892244  1
  O2-  O499  1  0.41680044  0.58839768  0.64538903  1
  O2-  O500  1  0.42465473  0.59027712  0.98754547  1
  O2-  O501  1  0.42314464  0.83965565  0.31546452  1
  O2-  O502  1  0.41919545  0.83126448  0.67438897  1
  O2-  O503  1  0.42839659  0.84355814  0.99199277  1
  O2-  O504  1  0.68443472  0.12362136  0.30227270  1
  O2-  O505  1  0.67876470  0.05996951  0.66026208  1
  O2-  O506  1  0.65991764  0.08003681  0.96150820  1
  O2-  O507  1  0.65259541  0.34560469  0.30343695  1
  O2-  O508  1  0.68053321  0.31564228  0.66834213  1
  O2-  O509  1  0.66143458  0.33257587  0.98288686  1
  O2-  O510  1  0.62851040  0.60645296  0.33323500  1
  O2-  O511  1  0.66250644  0.57497315  0.65319732  1
  O2-  O512  1  0.66313441  0.59046042  1.04165445  1
  O2-  O513  1  0.66754500  0.82533256  0.32001072  1
  O2-  O514  1  0.67168386  0.83333337  0.64904367  1
  O2-  O515  1  0.67802228  0.83503588  0.98679545  1
  O2-  O516  1  0.91750324  0.07737785  0.30479501  1
  O2-  O517  1  0.92382638  0.07780157  0.65239496  1
  O2-  O518  1  0.92640315  0.07029817  0.97789491  1
  O2-  O519  1  0.90223110  0.32209343  0.30976107  1
  O2-  O520  1  0.93766929  0.32747551  0.65015587  1
  O2-  O521  1  0.92143792  0.31497650  0.97855935  1
  O2-  O522  1  0.87969442  0.57707610  0.31186839  1
  O2-  O523  1  0.89250335  0.57127894  0.62758763  1
  O2-  O524  1  0.91449657  0.59772322  0.98102314  1
  O2-  O525  1  0.92642835  0.83858556  0.31359115  1
  O2-  O526  1  0.91507457  0.83251260  0.66523848  1
  O2-  O527  1  0.89940848  0.85829401  0.98774344  1
  O2-  O528  1  0.08221564  0.15870349  0.01005157  1
  O2-  O529  1  0.08014052  0.15420760  0.35279059  1
  O2-  O530  1  0.08870328  0.16938892  0.69038230  1
  O2-  O531  1  0.08629602  0.40709342  0.02515914  1
  O2-  O532  1  0.07266528  0.41418906  0.31913791  1
  O2-  O533  1  0.10470834  0.42325318  0.68455207  1
  O2-  O534  1  0.06643041  0.67556786  0.02579888  1
  O2-  O535  1  0.09509460  0.67571166  0.34541256  1
  O2-  O536  1  0.10544460  0.66503886  0.69412584  1
  O2-  O537  1  0.07384086  0.92247809  0.01644036  1
  O2-  O538  1  0.08830291  0.90034248  0.34081886  1
  O2-  O539  1  0.07476187  0.91620161  0.69486232  1
  O2-  O540  1  0.32304559  0.16578779  0.01591062  1
  O2-  O541  1  0.33151316  0.17486777  0.33501979  1
  O2-  O542  1  0.32844413  0.16850885  0.68800385  1
  O2-  O543  1  0.34723495  0.42814554  0.02619218  1
  O2-  O544  1  0.33183826  0.41864645  0.35910261  1
  O2-  O545  1  0.34772776  0.41353248  0.67335880  1
  O2-  O546  1  0.34537551  0.67445355  0.03272423  1
  O2-  O547  1  0.33621842  0.66680572  0.35582706  1
  O2-  O548  1  0.33733357  0.66656261  0.69078758  1
  O2-  O549  1  0.33141048  0.92267088  0.03481286  1
  O2-  O550  1  0.34438297  0.92852289  0.35093522  1
  O2-  O551  1  0.35497811  0.93063000  0.70940331  1
  O2-  O552  1  0.57716786  0.16460160  0.01465087  1
  O2-  O553  1  0.57689914  0.17915735  0.34450671  1
  O2-  O554  1  0.56049689  0.15758454  0.72060469  1
  O2-  O555  1  0.57947583  0.41662103  0.02339382  1
  O2-  O556  1  0.57563523  0.43092086  0.34995644  1
  O2-  O557  1  0.59312782  0.40545596  0.68318677  1
  O2-  O558  1  0.57980066  0.67190849  0.03030542  1
  O2-  O559  1  0.59468664  0.66071870  0.35592265  1
  O2-  O560  1  0.58045959  0.66621173  0.68594667  1
  O2-  O561  1  0.59725205  0.92720507  0.01005041  1
  O2-  O562  1  0.58659786  0.89537807  0.35314419  1
  O2-  O563  1  0.59483649  0.91178236  0.71388192  1
  O2-  O564  1  0.83237958  0.14990136  0.01177085  1
  O2-  O565  1  0.84354345  0.15638324  0.35821159  1
  O2-  O566  1  0.84383039  0.16275260  0.69558345  1
  O2-  O567  1  0.83637609  0.40819319  -0.00703310  1
  O2-  O568  1  0.81992968  0.41008366  0.33813652  1
  O2-  O569  1  0.85674997  0.40974878  0.69182394  1
  O2-  O570  1  0.83816812  0.68604291  0.03174425  1
  O2-  O571  1  0.79925746  0.66984814  0.34818250  1
  O2-  O572  1  0.84401460  0.67125658  0.68881253  1
  O2-  O573  1  0.85781364  0.90613484  0.01007042  1
  O2-  O574  1  0.83138645  0.91004367  0.34841791  1
  O2-  O575  1  0.84026424  0.91905833  0.69427156  1
