# generated using pymatgen
data_H2O
_symmetry_space_group_name_H-M   'P 1'
_cell_length_a   18.00114737
_cell_length_b   17.98729327
_cell_length_c   22.00003890
_cell_angle_alpha   90.01080679
_cell_angle_beta   89.96668110
_cell_angle_gamma   119.98036593
_symmetry_Int_Tables_number   1
_chemical_formula_structural   H2O
_chemical_formula_sum   'H384 O192'
_cell_volume   6170.29454871
_cell_formula_units_Z   192
loop_
 _symmetry_equiv_pos_site_id
 _symmetry_equiv_pos_as_xyz
  1  'x, y, z'
loop_
 _atom_type_symbol
 _atom_type_oxidation_number
  H+  1.0
  O2-  -2.0
loop_
 _atom_site_type_symbol
 _atom_site_label
 _atom_site_symmetry_multiplicity
 _atom_site_fract_x
 _atom_site_fract_y
 _atom_site_fract_z
 _atom_site_occupancy
  H+  H0  1  0.48254870  0.38540269  0.84029536  1
  H+  H1  1  0.53748768  0.14299284  0.67882495  1
  H+  H2  1  0.15733066  0.80700176  0.15827088  1
  H+  H3  1  0.36748545  1.05585310  0.49116253  1
  H+  H4  1  0.47260348  0.85403353  1.01132983  1
  H+  H5  1  0.15564878  0.11868813  0.69053955  1
  H+  H6  1  0.63879796  0.26169550  0.16926282  1
  H+  H7  1  0.15450905  0.11905217  0.17558728  1
  H+  H8  1  0.12962289  0.22951823  0.15389271  1
  H+  H9  1  0.28539412  0.39544370  0.66457756  1
  H+  H10  1  0.87795433  0.64996191  0.17113488  1
  H+  H11  1  0.58905397  0.82385710  0.21657714  1
  H+  H12  1  0.58194307  0.06495400  0.17186843  1
  H+  H13  1  0.01116646  0.60314333  0.35010237  1
  H+  H14  1  0.92097863  0.13041063  0.16392037  1
  H+  H15  1  0.12906725  0.26627884  0.85384627  1
  H+  H16  1  0.09935552  0.09517217  1.00986363  1
  H+  H17  1  0.88660514  0.09214039  0.90899685  1
  H+  H18  1  0.37464185  0.14017068  0.33514930  1
  H+  H19  1  0.60667665  0.47233693  0.48943491  1
  H+  H20  1  0.91014114  0.49887901  0.63371080  1
  H+  H21  1  0.87171537  0.20364949  -0.04151929  1
  H+  H22  1  0.90416675  1.02661944  0.33318084  1
  H+  H23  1  0.52468589  0.13585175  0.15786811  1
  H+  H24  1  0.47022964  0.84471932  0.51119458  1
  H+  H25  1  0.61975349  0.97468151  0.01978703  1
  H+  H26  1  0.00143022  0.85347042  0.13365348  1
  H+  H27  1  0.84991610  0.45962518  0.33602603  1
  H+  H28  1  0.83954824  0.75690776  0.85447743  1
  H+  H29  1  0.57466991  0.18175768  0.85582386  1
  H+  H30  1  0.97523777  0.04549102  1.03591125  1
  H+  H31  1  0.73993728  0.40741849  0.83149088  1
  H+  H32  1  0.40366221  0.93717577  0.47733927  1
  H+  H33  1  0.84369274  0.20385135  0.33170524  1
  H+  H34  1  0.04299433  0.13980840  0.16118340  1
  H+  H35  1  0.33764263  0.40824488  0.06750187  1
  H+  H36  1  0.05826599  0.80687530  0.45725283  1
  H+  H37  1  0.73080712  0.09126250  -0.02984440  1
  H+  H38  1  0.85117459  0.62217830  0.68794426  1
  H+  H39  1  0.24670952  0.87925297  0.30670962  1
  H+  H40  1  0.84287860  0.44393707  0.77124704  1
  H+  H41  1  0.87477103  0.60215306  0.34066148  1
  H+  H42  1  0.95594593  0.35452554  0.83691909  1
  H+  H43  1  0.73573824  0.88090893  0.51050140  1
  H+  H44  1  0.68147584  0.44778036  0.54402275  1
  H+  H45  1  0.65497136  0.12177490  0.67015169  1
  H+  H46  1  0.23096528  0.63656086  0.84947307  1
  H+  H47  1  0.29159424  0.89310253  0.00960583  1
  H+  H48  1  0.40003735  0.27575805  0.31784636  1
  H+  H49  1  0.37381526  0.38728297  0.15831336  1
  H+  H50  1  0.33047927  0.87942275  0.33127363  1
  H+  H51  1  0.62017518  0.63823723  0.51820891  1
  H+  H52  1  0.09565878  0.87486504  0.13117533  1
  H+  H53  1  0.38065858  0.90250629  0.45393174  1
  H+  H54  1  0.45595386  0.59120194  1.00728574  1
  H+  H55  1  0.76916793  0.38129644  0.68144850  1
  H+  H56  1  0.38097009  0.49970018  0.47983140  1
  H+  H57  1  0.39118777  0.86453495  1.00346846  1
  H+  H58  1  0.33630619  0.61670091  0.32197444  1
  H+  H59  1  0.37466753  0.22986943  0.15347999  1
  H+  H60  1  0.43483490  0.60243669  0.62111302  1
  H+  H61  1  0.92719850  0.59275331  0.55091695  1
  H+  H62  1  0.87873035  0.47906379  0.48273490  1
  H+  H63  1  0.52645772  0.62997603  0.32583735  1
  H+  H64  1  0.61860939  0.38196481  0.16039549  1
  H+  H65  1  0.13279897  0.80714028  0.84445941  1
  H+  H66  1  0.90650164  0.25036708  0.15058281  1
  H+  H67  1  0.61378053  0.63458692  0.16176333  1
  H+  H68  1  0.15100021  0.62457224  0.66060055  1
  H+  H69  1  0.61569269  0.48251134  1.01283106  1
  H+  H70  1  0.38712769  0.37102014  0.84131428  1
  H+  H71  1  0.15335540  0.36989984  0.31780525  1
  H+  H72  1  0.65337739  0.38257564  0.99048257  1
  H+  H73  1  0.89718837  0.36669131  0.17442088  1
  H+  H74  1  0.85607476  0.71607841  0.68108135  1
  H+  H75  1  0.60715662  -0.03060130  0.12965631  1
  H+  H76  1  0.64379766  0.52321681  0.16971794  1
  H+  H77  1  0.65606314  0.61430044  0.32806862  1
  H+  H78  1  0.88543591  0.61341496  0.49552805  1
  H+  H79  1  0.89479289  0.62933554  0.85013835  1
  H+  H80  1  0.35509393  0.47241432  0.82942779  1
  H+  H81  1  0.36939753  0.47534336  0.15624851  1
  H+  H82  1  0.49123647  0.36390234  0.31832789  1
  H+  H83  1  0.65170208  0.32110014  0.82222428  1
  H+  H84  1  0.36790906  0.34823164  0.51112577  1
  H+  H85  1  0.15528818  0.76813293  -0.00819724  1
  H+  H86  1  0.98669804  0.89416459  0.83281106  1
  H+  H87  1  0.25579469  0.92039699  0.47846250  1
  H+  H88  1  0.58351635  0.66716942  0.78217539  1
  H+  H89  1  0.10198256  0.46718736  0.00414792  1
  H+  H90  1  0.28043562  0.13628213  0.00182889  1
  H+  H91  1  0.24172489  0.89236120  0.17329679  1
  H+  H92  1  0.85867265  0.72081346  0.34636172  1
  H+  H93  1  0.47277216  0.60897268  0.17219859  1
  H+  H94  1  0.28473409  0.13646614  0.33065918  1
  H+  H95  1  0.64554842  0.29991948  0.50293458  1
  H+  H96  1  0.44469072  0.07895636  0.86753541  1
  H+  H97  1  0.52390301  0.86387789  0.68162483  1
  H+  H98  1  0.50868991  0.41233293  0.47967514  1
  H+  H99  1  0.89722085  0.51988807  0.99552631  1
  H+  H100  1  0.70890338  0.09251238  0.31917671  1
  H+  H101  1  0.77242888  0.63647829  0.83700535  1
  H+  H102  1  0.83574787  0.69913344  0.50116055  1
  H+  H103  1  0.36597162  0.37983317  0.00573390  1
  H+  H104  1  0.34874376  0.86795825  0.67622222  1
  H+  H105  1  0.37960757  0.11321914  0.87241728  1
  H+  H106  1  0.85025153  0.36971284  0.33468381  1
  H+  H107  1  0.37043752  0.50343369  1.00111597  1
  H+  H108  1  0.32921356  0.67136023  0.10992150  1
  H+  H109  1  0.49100971  0.67354305  0.52246779  1
  H+  H110  1  0.87560314  0.23567366  0.67270652  1
  H+  H111  1  0.76820704  0.37475937  0.15897216  1
  H+  H112  1  -0.02136355  0.85420393  0.81629926  1
  H+  H113  1  0.40287016  0.79548999  0.17965803  1
  H+  H114  1  0.65638928  0.62832068  0.00498218  1
  H+  H115  1  0.60610212  0.72980645  0.84031610  1
  H+  H116  1  0.60463482  0.21715163  0.33806279  1
  H+  H117  1  0.60569791  0.12817839  0.33976891  1
  H+  H118  1  0.35085629  0.62906389  0.01758610  1
  H+  H119  1  0.36159598  0.73189949  0.33018351  1
  H+  H120  1  0.87462101  0.50358687  0.83219541  1
  H+  H121  1  0.74220518  0.37560250  0.49867583  1
  H+  H122  1  0.68639556  0.81368994  0.00377845  1
  H+  H123  1  0.28641144  0.90127222  0.83160052  1
  H+  H124  1  0.51669572  0.15655769  0.48867055  1
  H+  H125  1  1.04735921  0.16459290  0.68390458  1
  H+  H126  1  1.15327549  0.48116243  0.47218351  1
  H+  H127  1  0.21839027  0.35402134  0.84454416  1
  H+  H128  1  0.07232550  0.18336522  0.42144560  1
  H+  H129  1  0.65797618  0.26602720  0.68163767  1
  H+  H130  1  0.83394990  0.23692936  0.82416399  1
  H+  H131  1  0.72849067  0.84120575  0.66316456  1
  H+  H132  1  0.90911764  0.02101967  0.92845974  1
  H+  H133  1  0.67720246  0.59329905  0.94496061  1
  H+  H134  1  0.23522501  0.61850853  0.66028446  1
  H+  H135  1  0.63702199  0.54349018  0.84763743  1
  H+  H136  1  0.12247876  0.14262899  0.51147383  1
  H+  H137  1  0.41265877  0.13597760  0.66028937  1
  H+  H138  1  0.89949463  0.77894839  -0.00053244  1
  H+  H139  1  0.34066987  0.49983193  0.31740680  1
  H+  H140  1  0.83438560  0.84331674  0.85309380  1
  H+  H141  1  0.87583114  -0.02349199  0.17064967  1
  H+  H142  1  0.85623973  0.93704538  0.65482299  1
  H+  H143  1  0.52848725  0.39056443  0.00820449  1
  H+  H144  1  0.37617098  0.01947880  0.31664873  1
  H+  H145  1  0.11436324  0.95621226  0.32340381  1
  H+  H146  1  0.63158686  0.35357581  0.32432169  1
  H+  H147  1  0.15591627  0.93210457  0.79785511  1
  H+  H148  1  0.11802133  0.63102978  1.00467006  1
  H+  H149  1  0.61416922  0.61936271  0.69244114  1
  H+  H150  1  0.77211141  0.63055829  0.34019894  1
  H+  H151  1  0.77964690  0.10721453  0.10774779  1
  H+  H152  1  0.71917701  0.86314015  0.84161330  1
  H+  H153  1  0.47253301  0.10248921  0.32614689  1
  H+  H154  1  0.54472981  0.74187006  0.43309697  1
  H+  H155  1  0.14539124  1.01329093  -0.02763312  1
  H+  H156  1  0.58369403  0.44871471  0.76665017  1
  H+  H157  1  0.73473927  0.07148693  0.10100290  1
  H+  H158  1  0.58500977  0.96362647  0.34519279  1
  H+  H159  1  0.39379764  0.11961733  0.16802504  1
  H+  H160  1  0.90494667  0.22366708  0.08279787  1
  H+  H161  1  0.47703504  0.85933622  0.84798419  1
  H+  H162  1  0.17067795  0.28104958  0.63984220  1
  H+  H163  1  0.22459193  0.60683479  0.50235045  1
  H+  H164  1  0.15083829  0.65223945  0.85387957  1
  H+  H165  1  0.42365826  0.33782607  0.93453735  1
  H+  H166  1  0.60707437  0.87802048  0.83590510  1
  H+  H167  1  0.24216225  0.11734620  0.17342738  1
  H+  H168  1  0.16752707  0.67665728  0.18089291  1
  H+  H169  1  0.03484450  0.64134663  0.68722215  1
  H+  H170  1  0.28133430  0.37217630  0.33720373  1
  H+  H171  1  0.87148138  0.84575616  0.51245778  1
  H+  H172  1  0.23673163  0.12057385  0.52779755  1
  H+  H173  1  0.16941325  0.58084554  0.56344546  1
  H+  H174  1  0.12106771  0.87869495  0.98052281  1
  H+  H175  1  0.36284728  0.88163767  0.83061503  1
  H+  H176  1  0.38558785  0.75974253  0.67186518  1
  H+  H177  1  0.64471172  0.34616684  0.67493892  1
  H+  H178  1  0.48570080  0.36364086  0.16729450  1
  H+  H179  1  0.19161849  0.82489349  0.56163320  1
  H+  H180  1  0.95931505  0.34135639  0.32940103  1
  H+  H181  1  0.36940428  0.63178807  0.68865383  1
  H+  H182  1  0.28400072  0.65711138  0.17502757  1
  H+  H183  1  0.67410115  0.84008636  0.56954524  1
  H+  H184  1  0.29919456  0.23009179  0.46001729  1
  H+  H185  1  0.86313436  0.85182128  0.67339123  1
  H+  H186  1  0.87108426  -0.02354435  0.50765773  1
  H+  H187  1  0.68020770  0.75103893  0.36044258  1
  H+  H188  1  1.00388319  0.11681452  0.86265992  1
  H+  H189  1  0.98635205  0.11036000  0.51893303  1
  H+  H190  1  0.39364537  0.27219132  0.99126902  1
  H+  H191  1  0.99198524  0.37657357  0.17579998  1
  H+  H192  1  0.35933774  0.63556914  0.83803415  1
  H+  H193  1  0.62131869  0.85367547  0.15013660  1
  H+  H194  1  0.10796333  0.22690314  0.50748951  1
  H+  H195  1  0.38884428  0.14983674  0.50095350  1
  H+  H196  1  -0.02800413  0.85017098  0.31678877  1
  H+  H197  1  0.78814835  0.64089699  0.01454546  1
  H+  H198  1  0.13595950  0.12251150  0.84147414  1
  H+  H199  1  0.33392786  0.66331575  0.74407689  1
  H+  H200  1  0.06317252  0.68556051  0.15454749  1
  H+  H201  1  0.47993261  0.61505080  0.31918001  1
  H+  H202  1  0.35454746  0.62265987  0.48353442  1
  H+  H203  1  0.61181874  0.77313030  0.48715790  1
  H+  H204  1  0.89591605  0.35899966  0.50538930  1
  H+  H205  1  -0.02673069  0.33340373  0.01145274  1
  H+  H206  1  0.64329133  0.63308089  0.85606288  1
  H+  H207  1  0.45371867  0.85255311  0.33620470  1
  H+  H208  1  0.23305005  0.32228576  0.47366478  1
  H+  H209  1  0.09037374  0.37572771  0.83824183  1
  H+  H210  1  0.52497264  0.11943600  0.00280296  1
  H+  H211  1  0.36797215  0.72921021  0.83753901  1
  H+  H212  1  0.59179492  0.10574396  0.51435558  1
  H+  H213  1  0.81377877  0.64680275  0.43915441  1
  H+  H214  1  0.88138570  0.85975073  0.17223332  1
  H+  H215  1  0.63642062  0.61870156  0.54106048  1
  H+  H216  1  0.46997812  0.60876441  0.84995234  1
  H+  H217  1  0.11813654  0.61856920  0.28917088  1
  H+  H218  1  0.38181786  0.24278612  0.83809653  1
  H+  H219  1  0.11927707  0.63019243  0.48958440  1
  H+  H220  1  0.17490730  0.09145577  0.92916916  1
  H+  H221  1  0.98906020  0.84840268  0.66584112  1
  H+  H222  1  0.37619650  0.38433736  0.33578028  1
  H+  H223  1  0.07289711  0.30665184  0.52923743  1
  H+  H224  1  0.37787350  0.98612089  0.00411223  1
  H+  H225  1  0.17174036  0.33601813  0.58221589  1
  H+  H226  1  0.51367942  0.35383074  0.67772360  1
  H+  H227  1  0.43679654  0.69979641  0.56357379  1
  H+  H228  1  0.67136335  0.58149872  0.26281196  1
  H+  H229  1  0.35577637  0.72062765  0.01580850  1
  H+  H230  1  0.60971129  0.89699406  0.50430010  1
  H+  H231  1  0.11238295  0.35609271  0.67143200  1
  H+  H232  1  0.11603309  0.39025991  0.15766646  1
  H+  H233  1  0.61915361  0.42226688  0.82256411  1
  H+  H234  1  0.34043371  0.48656483  0.49749198  1
  H+  H235  1  0.71548408  0.58946515  0.68584720  1
  H+  H236  1  0.15248184  0.10209276  0.32404263  1
  H+  H237  1  0.11633192  -0.02584118  0.47922717  1
  H+  H238  1  0.85228653  0.92744218  0.44417091  1
  H+  H239  1  0.09111672  0.45865249  0.32450715  1
  H+  H240  1  0.22251983  0.85197632  0.66113036  1
  H+  H241  1  0.85286849  0.46601271  0.15719175  1
  H+  H242  1  0.87332596  0.13366282  0.49042589  1
  H+  H243  1  0.37049816  0.13658185  -0.00075013  1
  H+  H244  1  0.58229545  0.10049132  0.84003490  1
  H+  H245  1  0.71708290  0.34762134  0.32492724  1
  H+  H246  1  0.87688122  0.37097872  0.84170133  1
  H+  H247  1  0.57526657  0.70219986  0.00927230  1
  H+  H248  1  0.61230110  0.11627132  0.00809377  1
  H+  H249  1  0.37095073  0.39180073  0.67574291  1
  H+  H250  1  0.82926992  0.16464233  0.89421958  1
  H+  H251  1  0.35778443  0.71037591  0.48395307  1
  H+  H252  1  0.29359975  0.14460043  0.69242973  1
  H+  H253  1  0.10142516  0.95312873  0.50959474  1
  H+  H254  1  0.06241097  0.37934796  0.77171842  1
  H+  H255  1  0.07666601  0.93718967  0.64810419  1
  H+  H256  1  0.40073897  0.28544376  0.50963003  1
  H+  H257  1  0.39615719  0.52484982  0.67096028  1
  H+  H258  1  0.12956067  0.84725966  0.65033538  1
  H+  H259  1  0.89285685  0.26927523  0.50698850  1
  H+  H260  1  1.04205461  0.63342200  0.23575495  1
  H+  H261  1  0.11300729  0.38360718  1.00891400  1
  H+  H262  1  0.62058783  0.47235162  0.33074694  1
  H+  H263  1  0.83165727  0.66470586  0.77687247  1
  H+  H264  1  0.72682608  0.54795341  0.53150697  1
  H+  H265  1  0.88056074  0.32097814  0.01128352  1
  H+  H266  1  0.58089496  0.96910840  0.50679076  1
  H+  H267  1  0.16782125  0.77011777  0.50077428  1
  H+  H268  1  0.61201614  0.86221826  0.68204724  1
  H+  H269  1  0.03681390  0.64149117  0.48409712  1
  H+  H270  1  0.63952745  0.75448674  0.66362217  1
  H+  H271  1  0.17258453  0.04371882  0.71231982  1
  H+  H272  1  1.05965328  0.72638328  0.24900118  1
  H+  H273  1  0.91795268  0.05958509  0.68590628  1
  H+  H274  1  0.03268478  0.66774241  0.83723620  1
  H+  H275  1  0.22454560  0.36162782  0.00245566  1
  H+  H276  1  0.89476078  0.86577700  0.33239846  1
  H+  H277  1  1.02122758  0.35095523  0.67446384  1
  H+  H278  1  0.38753238  0.27590149  0.66627625  1
  H+  H279  1  0.03177507  0.63823008  0.00481068  1
  H+  H280  1  0.71768419  0.87776755  0.31345717  1
  H+  H281  1  0.15711640  1.04982151  0.82263132  1
  H+  H282  1  -0.02799013  0.12594337  0.33111127  1
  H+  H283  1  0.21745222  0.60475868  -0.00012900  1
  H+  H284  1  0.73229466  0.61327948  0.17097991  1
  H+  H285  1  0.69906868  0.10124999  0.83628447  1
  H+  H286  1  0.15059651  0.39179764  0.47208932  1
  H+  H287  1  0.85731421  0.97420667  0.82774607  1
  H+  H288  1  1.03300280  0.87696302  0.96575589  1
  H+  H289  1  0.43648652  0.11644721  0.59505394  1
  H+  H290  1  0.89032387  0.81849629  0.93622088  1
  H+  H291  1  0.29030013  0.15799998  0.83444537  1
  H+  H292  1  0.08187332  0.41664384  0.10002268  1
  H+  H293  1  0.60221416  0.68570705  0.07553966  1
  H+  H294  1  0.32084699  0.90002300  0.73411350  1
  H+  H295  1  0.81725250  0.16959311  0.77088978  1
  H+  H296  1  0.52477151  -0.03393639  0.19443698  1
  H+  H297  1  0.76887312  0.89897271  0.98487490  1
  H+  H298  1  0.29158335  0.95634051  0.41325163  1
  H+  H299  1  0.36361121  0.55099013  0.25413364  1
  H+  H300  1  0.16573402  0.33365546  0.94400262  1
  H+  H301  1  0.34823273  0.92839937  0.10178654  1
  H+  H302  1  0.34390997  0.16871085  0.09438951  1
  H+  H303  1  0.10516349  0.68936154  0.08782313  1
  H+  H304  1  0.35849097  0.18041470  0.74793593  1
  H+  H305  1  0.12309638  0.23262095  0.72626959  1
  H+  H306  1  0.57671562  0.89699867  0.77120370  1
  H+  H307  1  0.84986211  0.67051035  0.07219295  1
  H+  H308  1  0.40205283  0.82824545  0.27203098  1
  H+  H309  1  0.89539016  0.60929138  1.00088771  1
  H+  H310  1  0.65272075  0.53226709  0.63470770  1
  H+  H311  1  0.63490050  0.05344506  0.26698738  1
  H+  H312  1  0.86548170  0.73154591  0.16580252  1
  H+  H313  1  0.40606132  0.57222671  0.90686065  1
  H+  H314  1  0.13750575  0.27989331  0.33497836  1
  H+  H315  1  0.52510053  0.29420064  0.72290994  1
  H+  H316  1  0.09913894  0.92782555  0.74051882  1
  H+  H317  1  0.89359005  0.79764027  0.61102076  1
  H+  H318  1  0.58005891  0.42207673  0.39194249  1
  H+  H319  1  0.90556953  0.13916383  0.67070087  1
  H+  H320  1  0.09430343  0.69685927  0.77902011  1
  H+  H321  1  0.38719434  0.87528160  0.17997528  1
  H+  H322  1  0.84001870  0.41133968  0.42820207  1
  H+  H323  1  0.78745808  0.39045178  -0.00219099  1
  H+  H324  1  0.58341945  0.15145339  0.09879037  1
  H+  H325  1  0.58032878  0.17038298  0.43426350  1
  H+  H326  1  0.41555979  0.81536690  0.61104199  1
  H+  H327  1  0.83786031  0.40943396  0.06016082  1
  H+  H328  1  0.33035239  0.65824253  0.39061277  1
  H+  H329  1  0.42044326  0.83215652  0.90941745  1
  H+  H330  1  0.30787366  0.35862299  0.42297049  1
  H+  H331  1  0.08140548  0.13689695  0.06967085  1
  H+  H332  1  0.42101932  0.08941987  0.22977175  1
  H+  H333  1  0.93236510  0.09580046  0.22927670  1
  H+  H334  1  0.19587063  0.83428335  0.93633493  1
  H+  H335  1  0.92853896  0.59614500  0.90676224  1
  H+  H336  1  0.23584798  0.36380247  0.16998628  1
  H+  H337  1  0.57523985  0.15095199  0.74625400  1
  H+  H338  1  0.78879095  0.14508977  0.66933116  1
  H+  H339  1  0.16607865  0.59001139  0.93660579  1
  H+  H340  1  0.33346097  0.18027933  0.42050397  1
  H+  H341  1  0.10709483  0.86610954  0.30397785  1
  H+  H342  1  0.41505411  0.33416103  0.60472250  1
  H+  H343  1  0.68329782  0.36927869  0.92589443  1
  H+  H344  1  0.32866397  0.41557361  0.76862665  1
  H+  H345  1  0.90074821  0.90341982  -0.00858517  1
  H+  H346  1  0.93083228  0.59961066  0.28611184  1
  H+  H347  1  0.60103197  0.71831536  0.16573926  1
  H+  H348  1  0.17550620  0.32778778  0.22821874  1
  H+  H349  1  0.03771741  0.84772505  0.40187778  1
  H+  H350  1  0.53126948  0.63061470  0.69066358  1
  H+  H351  1  0.55594790  0.91040656  0.40697598  1
  H+  H352  1  0.78542602  0.88973657  0.36217200  1
  H+  H353  1  0.42602918  0.33290115  0.22627773  1
  H+  H354  1  0.86507820  0.93923074  0.10680529  1
  H+  H355  1  0.38566065  0.61374789  0.16946468  1
  H+  H356  1  0.54183728  0.03985940  0.56678719  1
  H+  H357  1  0.64949910  0.05447346  0.93020407  1
  H+  H358  1  0.83696157  0.15572756  0.43091385  1
  H+  H359  1  0.61847257  1.00213042  0.83680630  1
  H+  H360  1  0.11944032  0.73201579  0.67577345  1
  H+  H361  1  0.92683495  0.08984696  0.57718411  1
  H+  H362  1  0.67078778  0.09513124  0.60559737  1
  H+  H363  1  0.90567839  0.82539017  0.23294899  1
  H+  H364  1  0.59078663  0.41573977  0.10162483  1
  H+  H365  1  0.83368848  0.91876284  0.76427541  1
  H+  H366  1  0.67806762  0.84495773  0.90818450  1
  H+  H367  1  0.94870999  0.96732799  0.38743245  1
  H+  H368  1  0.03604650  0.14441318  0.79515828  1
  H+  H369  1  0.13327474  0.88126246  0.88796067  1
  H+  H370  1  0.37381184  0.82678091  0.51865990  1
  H+  H371  1  0.03151598  0.23728059  0.39922556  1
  H+  H372  1  0.09011100  0.64481062  0.39517752  1
  H+  H373  1  0.19229133  0.09864725  0.59304423  1
  H+  H374  1  0.37658758  -0.01025946  0.16047430  1
  H+  H375  1  0.91155895  0.32428082  0.26655321  1
  H+  H376  1  0.66399120  0.31970652  0.22973778  1
  H+  H377  1  0.10613135  0.41833750  0.38449460  1
  H+  H378  1  0.18290597  0.08160933  0.26021626  1
  H+  H379  1  0.84832104  0.11756468  0.33102524  1
  H+  H380  1  0.62383809  0.68042709  0.40839678  1
  H+  H381  1  0.91626028  0.33329854  0.59817545  1
  H+  H382  1  0.94133331  0.81902111  0.49707364  1
  H+  H383  1  0.88997832  0.36436333  0.66067006  1
  O2-  O384  1  0.10218847  0.16723078  0.14319334  1
  O2-  O385  1  0.08537819  0.16316273  0.49323255  1
  O2-  O386  1  0.05731726  0.15170990  0.83672288  1
  O2-  O387  1  0.08432664  0.41951081  0.14550744  1
  O2-  O388  1  0.15906371  0.44085635  0.44482276  1
  O2-  O389  1  0.05694052  0.39489386  0.81422226  1
  O2-  O390  1  0.11787035  0.70710879  0.13225888  1
  O2-  O391  1  0.09767208  0.66722730  0.47143827  1
  O2-  O392  1  0.09361905  0.70533989  0.82373464  1
  O2-  O393  1  0.04654885  0.86134089  0.10479822  1
  O2-  O394  1  0.01360540  0.81636599  0.44073412  1
  O2-  O395  1  0.14015329  0.96758594  0.77193726  1
  O2-  O396  1  0.34520314  0.16857706  0.13995911  1
  O2-  O397  1  0.32472844  0.19240793  0.46410401  1
  O2-  O398  1  0.35238502  0.18069049  0.82600530  1
  O2-  O399  1  0.34047512  0.41421009  0.14238326  1
  O2-  O400  1  0.28489129  0.32180416  0.46050939  1
  O2-  O401  1  0.32647744  0.41206329  0.81401480  1
  O2-  O402  1  0.33995082  0.67718019  0.15494621  1
  O2-  O403  1  0.32685892  0.65223090  0.46451469  1
  O2-  O404  1  0.33390364  0.66912355  0.82103258  1
  O2-  O405  1  0.34407944  0.92770668  0.14738530  1
  O2-  O406  1  0.28588826  0.97463419  0.45431898  1
  O2-  O407  1  0.33813929  0.91282997  0.80924859  1
  O2-  O408  1  0.58518229  0.15529619  0.14500290  1
  O2-  O409  1  0.57828987  0.17674259  0.47929445  1
  O2-  O410  1  0.54874276  0.13121238  0.82984328  1
  O2-  O411  1  0.59122340  0.41591321  0.14741043  1
  O2-  O412  1  0.56150956  0.45214701  0.45755025  1
  O2-  O413  1  0.58418344  0.44978511  0.81139306  1
  O2-  O414  1  0.57895278  0.66023632  0.14672476  1
  O2-  O415  1  0.56378918  0.72004093  0.46656075  1
  O2-  O416  1  0.57680749  0.66795148  0.82745527  1
  O2-  O417  1  0.62433232  0.93488131  0.10253076  1
  O2-  O418  1  0.56565009  0.91125712  0.48982855  1
  O2-  O419  1  0.57481322  0.90438090  0.81721722  1
  O2-  O420  1  0.89886100  0.20172342  0.12473882  1
  O2-  O421  1  0.84808850  0.16765587  0.47477756  1
  O2-  O422  1  0.79951635  0.17338684  0.81285988  1
  O2-  O423  1  0.82923348  0.40716367  0.14319722  1
  O2-  O424  1  0.84856576  0.41691737  0.47322667  1
  O2-  O425  1  0.83608880  0.44384308  0.81633126  1
  O2-  O426  1  0.84109174  0.66816223  0.15146360  1
  O2-  O427  1  0.81463106  0.64011763  0.48438201  1
  O2-  O428  1  0.83337761  0.66732413  0.82266959  1
  O2-  O429  1  0.84757265  0.92040089  0.14957230  1
  O2-  O430  1  0.83749286  0.91786147  0.48923029  1
  O2-  O431  1  0.82219436  0.91749241  0.80865549  1
  O2-  O432  1  0.18455521  0.08974809  0.19275247  1
  O2-  O433  1  0.18402403  0.10653973  0.54983929  1
  O2-  O434  1  0.17831702  0.10288520  0.84743582  1
  O2-  O435  1  0.17464759  0.33201941  0.18327959  1
  O2-  O436  1  0.13031814  0.31599001  0.52076813  1
  O2-  O437  1  0.16116969  0.32789405  0.86433773  1
  O2-  O438  1  0.19198745  0.65768498  0.21517605  1
  O2-  O439  1  0.16500226  0.57541724  0.51778843  1
  O2-  O440  1  0.17361136  0.61540609  0.86814840  1
  O2-  O441  1  0.17789722  0.86369521  0.17916790  1
  O2-  O442  1  0.21076354  0.82570974  0.51913374  1
  O2-  O443  1  0.16609089  0.86945307  0.85648449  1
  O2-  O444  1  0.42442356  0.08968290  0.18433142  1
  O2-  O445  1  0.41096836  0.11135022  0.51142075  1
  O2-  O446  1  0.39042379  0.06736392  0.88774016  1
  O2-  O447  1  0.42410604  0.33333745  0.18056372  1
  O2-  O448  1  0.41551997  0.34123902  0.52828276  1
  O2-  O449  1  0.42368039  0.34737831  0.85683110  1
  O2-  O450  1  0.41038575  0.57735152  0.18265261  1
  O2-  O451  1  0.44098376  0.64987304  0.55135666  1
  O2-  O452  1  0.40790590  0.57510004  0.86176029  1
  O2-  O453  1  0.42158590  0.85143031  0.19974441  1
  O2-  O454  1  0.40985938  0.80126034  0.52611996  1
  O2-  O455  1  0.41675110  0.82984135  0.86432378  1
  O2-  O456  1  0.58399283  0.01361517  0.18851773  1
  O2-  O457  1  0.59134885  0.05824495  0.54015604  1
  O2-  O458  1  0.64109512  0.06198400  0.85429563  1
  O2-  O459  1  0.66789861  0.32268650  0.18421436  1
  O2-  O460  1  0.68364227  0.36123449  0.51151898  1
  O2-  O461  1  0.67563629  0.37671375  0.84206934  1
  O2-  O462  1  0.67071317  0.58428834  0.18361572  1
  O2-  O463  1  0.67760930  0.50040428  0.55264566  1
  O2-  O464  1  0.67228612  0.60010779  0.86836296  1
  O2-  O465  1  0.62217667  0.81763964  0.18407627  1
  O2-  O466  1  0.67480942  0.85534131  0.52567264  1
  O2-  O467  1  0.66321809  0.83378647  0.86335437  1
  O2-  O468  1  0.94029565  0.09359494  0.18480552  1
  O2-  O469  1  0.92453757  0.08084267  0.53277773  1
  O2-  O470  1  0.91203525  0.05722394  0.89325202  1
  O2-  O471  1  0.93083119  0.34278757  0.19288020  1
  O2-  O472  1  0.92143054  0.32768568  0.52557814  1
  O2-  O473  1  0.89484097  0.32889745  0.85144839  1
  O2-  O474  1  1.01383176  0.66900326  0.23176761  1
  O2-  O475  1  0.92617017  0.59113801  0.50673894  1
  O2-  O476  1  0.93031908  0.60242867  0.86131482  1
  O2-  O477  1  0.90523827  0.82238319  0.18757364  1
  O2-  O478  1  0.89188530  0.80524972  0.52414288  1
  O2-  O479  1  0.83213290  0.79824247  0.88019944  1
  O2-  O480  1  0.18278535  0.07445406  0.30754279  1
  O2-  O481  1  0.18514209  0.08646481  0.67944214  1
  O2-  O482  1  0.17193959  0.07738503  0.97313775  1
  O2-  O483  1  0.17793504  0.33162683  0.31119758  1
  O2-  O484  1  0.19251692  0.34080151  0.62728624  1
  O2-  O485  1  0.16431573  0.33653837  0.98901663  1
  O2-  O486  1  0.11292410  0.59553752  0.24629731  1
  O2-  O487  1  0.17946080  0.59734048  0.63925242  1
  O2-  O488  1  0.15885883  0.57645842  0.98218771  1
  O2-  O489  1  0.15324260  0.82069495  0.26843161  1
  O2-  O490  1  0.16345615  0.81903482  0.64041774  1
  O2-  O491  1  0.19150710  0.83059323  0.98086195  1
  O2-  O492  1  0.41503350  0.08174773  0.30691424  1
  O2-  O493  1  0.44933406  0.11794694  0.63881686  1
  O2-  O494  1  0.42044355  0.08588326  0.97574628  1
  O2-  O495  1  0.43023064  0.33617476  0.30249518  1
  O2-  O496  1  0.41782278  0.33616338  0.65028938  1
  O2-  O497  1  0.42374760  0.33482761  0.97993526  1
  O2-  O498  1  0.33129752  0.54073589  0.29296803  1
  O2-  O499  1  0.43021982  0.58903072  0.66532307  1
  O2-  O500  1  0.39926498  0.56726584  0.98911907  1
  O2-  O501  1  0.39403753  0.81681097  0.31739456  1
  O2-  O502  1  0.41719302  0.82043420  0.65559349  1
  O2-  O503  1  0.41559938  0.82653281  0.99181032  1
  O2-  O504  1  0.64566358  0.06524886  0.31104089  1
  O2-  O505  1  0.69087826  0.10327130  0.64791199  1
  O2-  O506  1  0.66724175  0.05987995  0.97398589  1
  O2-  O507  1  0.65702029  0.31865918  0.30848391  1
  O2-  O508  1  0.68684158  0.32678916  0.66621831  1
  O2-  O509  1  0.69098931  0.36493092  0.96977351  1
  O2-  O510  1  0.67351372  0.57520762  0.30771565  1
  O2-  O511  1  0.65328214  0.55320797  0.67630803  1
  O2-  O512  1  0.67874724  0.59087511  0.99057320  1
  O2-  O513  1  0.72253215  0.85836928  0.35369786  1
  O2-  O514  1  0.66903222  0.81404716  0.64630539  1
  O2-  O515  1  0.70560674  0.86596150  0.97952175  1
  O2-  O516  1  0.91838534  0.08303202  0.31119325  1
  O2-  O517  1  0.94310531  0.11129849  0.66098927  1
  O2-  O518  1  0.90625004  -0.00097687  1.04258309  1
  O2-  O519  1  0.90094238  0.31501421  0.31178212  1
  O2-  O520  1  0.91959982  0.33499095  0.64443824  1
  O2-  O521  1  0.91088388  0.28794696  1.01094945  1
  O2-  O522  1  0.90225230  0.56941484  0.32430798  1
  O2-  O523  1  0.87060686  0.50355358  0.66192707  1
  O2-  O524  1  0.92688157  0.58191696  0.98282420  1
  O2-  O525  1  0.90832864  0.82369602  0.31173827  1
  O2-  O526  1  0.89840372  0.80241801  0.65572723  1
  O2-  O527  1  0.92418807  0.83374745  0.97619209  1
  O2-  O528  1  0.05761208  0.10930380  0.02934943  1
  O2-  O529  1  0.05731057  0.20464555  0.38340622  1
  O2-  O530  1  0.10733052  0.18462022  0.69869237  1
  O2-  O531  1  0.07612482  0.40886720  0.02231107  1
  O2-  O532  1  0.07945552  0.40393884  0.34170138  1
  O2-  O533  1  0.06390361  0.34424452  0.69852217  1
  O2-  O534  1  0.09341072  0.66897444  0.01762533  1
  O2-  O535  1  0.07219739  0.61936144  0.35378700  1
  O2-  O536  1  0.09417055  0.67591301  0.70024659  1
  O2-  O537  1  0.09560853  0.90605707  -0.04450494  1
  O2-  O538  1  0.07873696  0.89338620  0.32893184  1
  O2-  O539  1  0.05761734  0.88507724  0.67196644  1
  O2-  O540  1  0.34124766  0.16869021  0.01570340  1
  O2-  O541  1  0.34453727  0.17239017  0.34714456  1
  O2-  O542  1  0.35591808  0.18013516  0.70226390  1
  O2-  O543  1  0.33484947  0.40909372  0.02180979  1
  O2-  O544  1  0.34008829  0.40591682  0.35515475  1
  O2-  O545  1  0.33982241  0.42225923  0.68915670  1
  O2-  O546  1  0.32262260  0.66086272  0.03257968  1
  O2-  O547  1  0.33034664  0.66472039  0.34505934  1
  O2-  O548  1  0.33627269  0.66130764  0.69854059  1
  O2-  O549  1  0.35232234  0.92713049  0.02394383  1
  O2-  O550  1  0.30178720  0.91381827  0.33114368  1
  O2-  O551  1  0.31397422  0.89379341  0.68884096  1
  O2-  O552  1  0.58064107  0.14324049  0.02492405  1
  O2-  O553  1  0.57500508  0.15760675  0.35566740  1
  O2-  O554  1  0.59184011  0.16308766  0.70290944  1
  O2-  O555  1  0.58761367  0.42121941  0.02584958  1
  O2-  O556  1  0.58818073  0.41246708  0.34755761  1
  O2-  O557  1  0.55789632  0.34984497  0.70306829  1
  O2-  O558  1  0.62030076  0.69865900  0.03123359  1
  O2-  O559  1  0.65309218  0.68828733  0.36941727  1
  O2-  O560  1  0.59251692  0.65927425  0.70442587  1
  O2-  O561  1  0.57863658  0.92350056  0.04553741  1
  O2-  O562  1  0.54826768  0.90509671  0.36240291  1
  O2-  O563  1  0.58173764  0.89003528  0.70030755  1
  O2-  O564  1  0.83985410  0.14878488  -0.06507192  1
  O2-  O565  1  0.81287606  0.14293371  0.34561823  1
  O2-  O566  1  0.84829035  0.17487155  0.68802371  1
  O2-  O567  1  0.84621697  0.41152934  0.01559857  1
  O2-  O568  1  0.81927382  0.39892297  0.35076186  1
  O2-  O569  1  0.83781033  0.42143883  0.69540076  1
  O2-  O570  1  0.84973316  0.66976166  0.02679614  1
  O2-  O571  1  0.82862515  0.66034261  0.36188242  1
  O2-  O572  1  0.82448672  0.65463008  0.70220069  1
  O2-  O573  1  0.87988683  0.94732465  -0.01235158  1
  O2-  O574  1  0.89059709  0.94618247  0.37267263  1
  O2-  O575  1  0.83553259  0.89289077  0.68611559  1
