# generated using pymatgen
data_H2O
_symmetry_space_group_name_H-M   'P 1'
_cell_length_a   18.00326460
_cell_length_b   18.00441451
_cell_length_c   22.02503122
_cell_angle_alpha   90.01584363
_cell_angle_beta   89.98704235
_cell_angle_gamma   119.99032277
_symmetry_Int_Tables_number   1
_chemical_formula_structural   H2O
_chemical_formula_sum   'H384 O192'
_cell_volume   6183.29197630
_cell_formula_units_Z   192
loop_
 _symmetry_equiv_pos_site_id
 _symmetry_equiv_pos_as_xyz
  1  'x, y, z'
loop_
 _atom_type_symbol
 _atom_type_oxidation_number
  H+  1.0
  O2-  -2.0
loop_
 _atom_site_type_symbol
 _atom_site_label
 _atom_site_symmetry_multiplicity
 _atom_site_fract_x
 _atom_site_fract_y
 _atom_site_fract_z
 _atom_site_occupancy
  H+  H0  1  0.52426898  0.88377963  0.33554444  1
  H+  H1  1  0.83280363  0.46199561  0.69074198  1
  H+  H2  1  0.52774761  0.12934291  0.15156651  1
  H+  H3  1  0.27065649  0.89371623  0.16928804  1
  H+  H4  1  0.23573217  0.61915774  0.45500559  1
  H+  H5  1  0.38095247  0.72151365  0.82159041  1
  H+  H6  1  0.71645149  0.36888940  0.99811735  1
  H+  H7  1  0.63212951  0.60178079  -0.00472345  1
  H+  H8  1  0.83886927  0.69567719  0.81359080  1
  H+  H9  1  0.54615635  0.89566686  0.49626415  1
  H+  H10  1  0.72312707  0.64387073  0.48219336  1
  H+  H11  1  0.88299397  0.51732092  0.17819001  1
  H+  H12  1  0.61385909  0.25931165  0.16344033  1
  H+  H13  1  0.66205039  0.54870549  0.95515524  1
  H+  H14  1  0.38545806  0.51988768  0.17764930  1
  H+  H15  1  0.64078693  0.85766897  0.66006682  1
  H+  H16  1  0.85244323  0.46122447  0.83147328  1
  H+  H17  1  0.55580689  0.93967725  0.09279792  1
  H+  H18  1  0.25702399  0.38085131  0.16545694  1
  H+  H19  1  0.88285173  0.26318162  0.51527426  1
  H+  H20  1  0.28307125  0.88976619  0.67637841  1
  H+  H21  1  0.86327093  0.37794415  0.83436053  1
  H+  H22  1  0.09822498  0.72344157  0.16093100  1
  H+  H23  1  0.27041989  0.37795745  0.00617366  1
  H+  H24  1  0.50627529  0.40069044  0.49826541  1
  H+  H25  1  0.51576669  0.40711597  0.82359681  1
  H+  H26  1  0.61385350  0.64443259  0.33866168  1
  H+  H27  1  0.23259594  0.10230048  0.65465580  1
  H+  H28  1  0.61406631  0.72404795  0.94738322  1
  H+  H29  1  0.63916544  0.52973686  0.16660741  1
  H+  H30  1  0.87463384  0.21383935  0.16381468  1
  H+  H31  1  0.41217687  0.32423558  0.89124131  1
  H+  H32  1  0.92783317  0.09474934  0.34576357  1
  H+  H33  1  0.28014048  0.14108223  0.16208520  1
  H+  H34  1  0.36990953  0.63440914  0.66964305  1
  H+  H35  1  0.27005713  0.64313459  0.33887112  1
  H+  H36  1  0.76837198  0.65052145  0.33297352  1
  H+  H37  1  0.39983775  0.15204765  0.61530096  1
  H+  H38  1  0.71326590  0.86247292  0.17604369  1
  H+  H39  1  0.47928017  0.85913162  0.83193756  1
  H+  H40  1  0.28182356  0.63868233  0.67212425  1
  H+  H41  1  0.38780551  0.27125261  0.82896179  1
  H+  H42  1  0.35819128  0.89224603  0.16781743  1
  H+  H43  1  0.07237688  0.67103910  0.40072892  1
  H+  H44  1  0.41630829  0.62060526  0.83214344  1
  H+  H45  1  0.89544309  0.04494040  0.83575762  1
  H+  H46  1  0.85987976  0.65581130  0.33357350  1
  H+  H47  1  0.34891939  0.65787765  0.76437225  1
  H+  H48  1  0.33197974  0.13761124  0.72901678  1
  H+  H49  1  0.02483002  0.89464494  0.16858879  1
  H+  H50  1  0.36805498  0.88454603  0.68474823  1
  H+  H51  1  0.64018145  0.61113873  0.65192811  1
  H+  H52  1  0.72485302  0.60111390  0.65205148  1
  H+  H53  1  0.63003550  0.67406297  0.51551652  1
  H+  H54  1  0.27694422  0.13623060  0.82005371  1
  H+  H55  1  0.38358850  0.61639712  0.32220852  1
  H+  H56  1  0.63478574  0.52895223  0.32708252  1
  H+  H57  1  1.02537600  0.14826948  1.01217878  1
  H+  H58  1  0.38255019  0.48642844  0.82494119  1
  H+  H59  1  0.12510435  0.61011536  0.33768093  1
  H+  H60  1  0.13185467  0.52313461  0.33861137  1
  H+  H61  1  0.99463009  0.35276567  0.33600979  1
  H+  H62  1  0.74364465  0.88173440  0.83499161  1
  H+  H63  1  0.47041313  0.10404899  0.83961769  1
  H+  H64  1  0.39646394  0.60376157  -0.01422074  1
  H+  H65  1  0.38838901  0.63909932  0.16258520  1
  H+  H66  1  0.23651577  0.57765664  0.45557979  1
  H+  H67  1  0.66200983  0.10944933  0.67036791  1
  H+  H68  1  0.38888454  0.26820670  0.99012971  1
  H+  H69  1  0.27532825  0.39248628  0.68195493  1
  H+  H70  1  0.63919738  0.10746547  0.51641401  1
  H+  H71  1  0.84408753  0.17675713  0.76865466  1
  H+  H72  1  0.45084643  0.23356046  0.30188642  1
  H+  H73  1  0.59800469  0.28043764  0.31893757  1
  H+  H74  1  0.00602885  0.33953786  0.49437046  1
  H+  H75  1  0.39817303  0.77396591  0.67160772  1
  H+  H76  1  0.86788039  0.72764303  0.00866028  1
  H+  H77  1  0.61523437  -0.02507215  0.82641113  1
  H+  H78  1  0.86488609  0.14517261  0.99874933  1
  H+  H79  1  0.53425853  0.88537445  0.67843655  1
  H+  H80  1  -0.01717159  0.36829491  0.84642895  1
  H+  H81  1  0.13926242  0.53722681  0.67269185  1
  H+  H82  1  0.60286554  0.38221913  1.00078651  1
  H+  H83  1  0.19759953  0.96665207  0.04073054  1
  H+  H84  1  0.14146463  0.03179952  0.84005268  1
  H+  H85  1  0.54043391  0.13834507  0.66734106  1
  H+  H86  1  0.85791171  0.62670320  0.66639364  1
  H+  H87  1  0.11931474  0.88566931  0.82873528  1
  H+  H88  1  0.77911925  0.12904147  0.49753301  1
  H+  H89  1  0.86257233  0.11987700  0.50006222  1
  H+  H90  1  0.75204273  0.10995992  0.32364067  1
  H+  H91  1  1.02224532  0.12806369  0.17146041  1
  H+  H92  1  0.90435214  0.94172626  0.80282549  1
  H+  H93  1  0.22332756  0.85301165  0.84170546  1
  H+  H94  1  0.17079199  0.33387138  0.27835883  1
  H+  H95  1  0.63473980  0.12590279  0.34648950  1
  H+  H96  1  0.95161015  0.61061770  0.83698226  1
  H+  H97  1  0.86225814  0.39534940  0.00044592  1
  H+  H98  1  0.76883794  0.88611666  0.66100781  1
  H+  H99  1  0.85408769  0.78967765  0.50077484  1
  H+  H100  1  0.87223745  0.06796976  0.22089798  1
  H+  H101  1  0.56897994  0.16640552  0.77166380  1
  H+  H102  1  0.51015369  0.58480326  0.01242954  1
  H+  H103  1  0.62649242  0.85934645  0.32520287  1
  H+  H104  1  0.89233320  0.02892232  0.65184187  1
  H+  H105  1  0.49273019  0.18642231  0.68606703  1
  H+  H106  1  0.60587003  0.21701317  0.83390086  1
  H+  H107  1  0.37026943  0.35493951  0.50998287  1
  H+  H108  1  0.12289302  0.14922986  0.47169377  1
  H+  H109  1  0.12162625  0.14302306  0.66967052  1
  H+  H110  1  0.86839747  0.90994618  0.35638152  1
  H+  H111  1  0.18968885  0.88391200  0.50169133  1
  H+  H112  1  -0.00090354  0.91364853  0.48096296  1
  H+  H113  1  0.63511445  0.11113724  0.83425479  1
  H+  H114  1  0.63974514  0.21052085  0.36671958  1
  H+  H115  1  0.37852389  0.40067130  0.35078208  1
  H+  H116  1  0.62068914  0.50331303  0.66658759  1
  H+  H117  1  0.72311487  0.35336986  0.64979814  1
  H+  H118  1  1.03061497  0.38367415  0.17417881  1
  H+  H119  1  0.62818282  0.56037454  0.48903785  1
  H+  H120  1  0.01102846  0.65407826  0.49087951  1
  H+  H121  1  0.13028053  0.86600486  0.16979860  1
  H+  H122  1  0.86833676  0.54152417  0.33933733  1
  H+  H123  1  0.88983548  0.36634776  0.66420496  1
  H+  H124  1  0.71975935  0.34425857  0.84618658  1
  H+  H125  1  0.50256180  0.37593136  -0.00619764  1
  H+  H126  1  0.08786907  0.16838152  0.76264951  1
  H+  H127  1  0.13714840  0.78396633  0.65911921  1
  H+  H128  1  0.14280622  0.36895970  0.00921139  1
  H+  H129  1  0.39542201  0.88201931  0.32478787  1
  H+  H130  1  0.52491892  0.64322902  0.33800166  1
  H+  H131  1  0.65148525  0.63815056  0.88410051  1
  H+  H132  1  0.88399840  0.28060663  0.99734301  1
  H+  H133  1  0.63746972  0.73671787  -0.02288951  1
  H+  H134  1  0.12624800  0.39165529  0.34268505  1
  H+  H135  1  0.23322149  0.37640000  0.82479525  1
  H+  H136  1  0.31997553  0.95507875  0.36150257  1
  H+  H137  1  0.61854478  0.64031933  0.16257041  1
  H+  H138  1  0.39237441  0.03125055  0.17850512  1
  H+  H139  1  0.36287578  0.13057746  0.82295951  1
  H+  H140  1  0.90219665  0.40394402  0.49565929  1
  H+  H141  1  0.65629233  0.82696817  0.25931416  1
  H+  H142  1  0.37003061  0.14112752  0.15987623  1
  H+  H143  1  0.86074208  0.63321250  0.16110829  1
  H+  H144  1  0.98308542  0.86521374  1.02530778  1
  H+  H145  1  0.93964467  0.81730538  0.57193281  1
  H+  H146  1  -0.01637515  0.37606358  0.66557253  1
  H+  H147  1  0.13950068  0.28318827  0.67293956  1
  H+  H148  1  0.11467349  0.14894828  0.01170041  1
  H+  H149  1  0.32133091  0.90715658  0.49968760  1
  H+  H150  1  0.53437042  0.63675049  0.67466363  1
  H+  H151  1  0.51607028  0.39465782  0.15053330  1
  H+  H152  1  0.03126714  0.13998647  0.66620045  1
  H+  H153  1  0.62809697  0.97082916  0.67584651  1
  H+  H154  1  0.35791489  0.87651353  0.82983161  1
  H+  H155  1  0.66784783  0.32200497  0.55375711  1
  H+  H156  1  0.72138139  0.33332133  0.49399764  1
  H+  H157  1  0.92956602  0.53811248  0.63199523  1
  H+  H158  1  0.59133705  0.91379920  0.76836038  1
  H+  H159  1  0.64405145  0.11078356  0.16526024  1
  H+  H160  1  0.42033970  0.79833863  0.51083418  1
  H+  H161  1  0.72890433  0.10224652  0.16453766  1
  H+  H162  1  0.15371251  0.27473564  0.53357894  1
  H+  H163  1  0.62504490  0.28626494  0.64959634  1
  H+  H164  1  0.12020194  0.47755005  0.83497969  1
  H+  H165  1  0.85694799  0.66172085  0.48554036  1
  H+  H166  1  0.66281193  0.87764044  0.99077405  1
  H+  H167  1  0.09687061  0.86360069  0.51109506  1
  H+  H168  1  0.12938486  0.82134478  1.00194482  1
  H+  H169  1  0.27296980  0.39515838  0.50220785  1
  H+  H170  1  0.33665417  0.16892734  0.06422755  1
  H+  H171  1  0.13421854  0.88776832  0.66932608  1
  H+  H172  1  0.07330850  0.06094012  0.53817460  1
  H+  H173  1  0.59940475  0.38789121  0.14534231  1
  H+  H174  1  0.11574590  0.47368810  0.01762837  1
  H+  H175  1  0.88433141  0.14799000  0.67023419  1
  H+  H176  1  0.87422313  0.90375205  1.00840349  1
  H+  H177  1  0.09801852  0.61047561  0.51986401  1
  H+  H178  1  0.89132372  0.19999117  0.34659137  1
  H+  H179  1  0.34577082  0.22488628  0.50158071  1
  H+  H180  1  0.53201775  0.37757880  0.34048483  1
  H+  H181  1  0.38767716  0.52936468  0.33155081  1
  H+  H182  1  0.60719160  0.20882570  0.49965619  1
  H+  H183  1  0.75179388  0.11487204  0.66552006  1
  H+  H184  1  0.14171657  0.12096718  0.83450564  1
  H+  H185  1  0.89614234  0.32897507  0.33745078  1
  H+  H186  1  0.38125931  0.12254464  0.51512668  1
  H+  H187  1  0.52160056  0.40328435  0.67502779  1
  H+  H188  1  0.90165168  0.77977265  0.17508755  1
  H+  H189  1  0.42128510  1.09056976  0.32770828  1
  H+  H190  1  0.62696476  0.40434812  0.35652713  1
  H+  H191  1  0.49767540  0.98509726  0.03177072  1
  H+  H192  1  0.11758449  0.11669862  0.31812190  1
  H+  H193  1  -0.02796985  0.09757971  0.49109458  1
  H+  H194  1  0.72444448  0.11795775  -0.01324546  1
  H+  H195  1  0.22446213  0.83930494  -0.01070462  1
  H+  H196  1  0.90078183  0.04253894  0.99320653  1
  H+  H197  1  0.64610643  0.77119649  0.65792770  1
  H+  H198  1  0.61409790  0.14720949  -0.00544361  1
  H+  H199  1  0.25825549  0.13478376  0.50280461  1
  H+  H200  1  0.13040246  0.34440183  0.51692384  1
  H+  H201  1  0.15077154  0.05156225  0.99016006  1
  H+  H202  1  0.16387788  0.23887423  0.43784745  1
  H+  H203  1  0.52677294  0.63289255  0.16334964  1
  H+  H204  1  0.82642001  0.92421975  0.10082881  1
  H+  H205  1  -0.02514962  0.87573927  0.32468691  1
  H+  H206  1  0.12433306  0.65414104  0.67682857  1
  H+  H207  1  0.39340304  0.52426617  0.67100134  1
  H+  H208  1  0.62981941  0.77063294  0.17568615  1
  H+  H209  1  0.11435982  0.89110278  0.33381549  1
  H+  H210  1  0.38439056  0.10636074  0.99113520  1
  H+  H211  1  0.11703833  0.98141662  0.33365000  1
  H+  H212  1  0.39035917  1.00393269  0.51285509  1
  H+  H213  1  0.58685171  0.91438367  0.39392298  1
  H+  H214  1  0.39231535  0.76514959  0.98597858  1
  H+  H215  1  0.79631176  0.92419032  0.00002825  1
  H+  H216  1  0.74109409  0.62471411  0.81835755  1
  H+  H217  1  0.34503410  0.22482381  0.34674503  1
  H+  H218  1  0.01078723  0.63667924  0.34160997  1
  H+  H219  1  0.88280457  0.79231471  0.32369683  1
  H+  H220  1  0.52010287  0.13845128  -0.00202020  1
  H+  H221  1  0.50829487  0.88981633  0.15906018  1
  H+  H222  1  0.43022265  0.83833432  0.61555282  1
  H+  H223  1  0.41298726  0.67139180  0.47529138  1
  H+  H224  1  0.89111268  0.54766640  0.50456982  1
  H+  H225  1  0.46562592  0.86492320  -0.01425991  1
  H+  H226  1  0.91350756  -0.00069492  0.50761690  1
  H+  H227  1  0.62803998  0.76483008  0.32537501  1
  H+  H228  1  0.54715709  0.63992441  0.82600406  1
  H+  H229  1  0.03247639  0.14761020  0.82400533  1
  H+  H230  1  0.16919848  0.94672657  -0.02581916  1
  H+  H231  1  0.38052132  1.01446781  0.84035976  1
  H+  H232  1  0.18837782  0.57398866  0.95116272  1
  H+  H233  1  0.39570823  0.77503099  0.17231295  1
  H+  H234  1  0.12012187  0.76147539  0.32525679  1
  H+  H235  1  0.35179015  0.96043015  -0.00743195  1
  H+  H236  1  0.29034952  0.63212863  0.01140913  1
  H+  H237  1  0.97408860  0.36964786  1.00355490  1
  H+  H238  1  0.26469943  0.59541025  0.85125309  1
  H+  H239  1  0.87968232  0.23527752  0.67306968  1
  H+  H240  1  0.73048666  0.61593937  0.17214700  1
  H+  H241  1  0.96892958  0.60806669  0.17605144  1
  H+  H242  1  -0.00522719  0.63172470  0.65366323  1
  H+  H243  1  0.88750364  0.81595671  0.77173063  1
  H+  H244  1  0.78239380  0.34846918  0.14657540  1
  H+  H245  1  0.11625033  0.40121191  0.68417349  1
  H+  H246  1  0.70529666  0.89287536  0.92550786  1
  H+  H247  1  0.63018179  -0.01718219  0.48700580  1
  H+  H248  1  0.16046334  0.81871497  0.90026623  1
  H+  H249  1  0.75760882  0.40684485  0.36835097  1
  H+  H250  1  0.10252066  0.73784621  0.49278225  1
  H+  H251  1  0.67977446  0.07995518  0.57045964  1
  H+  H252  1  0.15038885  0.60296416  1.00788823  1
  H+  H253  1  0.58627747  0.50713542  0.82187054  1
  H+  H254  1  0.41996298  0.58001941  0.23764317  1
  H+  H255  1  0.09738218  0.72848005  0.82875382  1
  H+  H256  1  0.11463266  0.47703733  0.17321576  1
  H+  H257  1  0.86911306  0.61590413  0.98900951  1
  H+  H258  1  0.21311108  0.83964752  0.31453307  1
  H+  H259  1  0.47252756  0.12716380  0.52441956  1
  H+  H260  1  0.36783469  0.39028013  0.82590635  1
  H+  H261  1  0.14316137  0.03371558  0.18072472  1
  H+  H262  1  0.62805244  0.27661170  -0.00062515  1
  H+  H263  1  0.58940681  0.01000916  1.00530245  1
  H+  H264  1  0.13338881  0.35670391  0.18508156  1
  H+  H265  1  0.89615984  0.34176600  0.19201294  1
  H+  H266  1  0.85321236  0.59030788  0.83749914  1
  H+  H267  1  0.37149088  0.47356328  0.50007127  1
  H+  H268  1  0.38344056  0.35599762  0.98698269  1
  H+  H269  1  0.10783713  0.01291258  0.49747491  1
  H+  H270  1  0.50302566  0.61299045  0.53030460  1
  H+  H271  1  0.87274430  0.52200277  -0.01241806  1
  H+  H272  1  -0.01415939  0.83384443  0.63363492  1
  H+  H273  1  0.19915111  0.62449542  0.85630828  1
  H+  H274  1  1.03008967  0.88285647  0.81721048  1
  H+  H275  1  0.35246969  0.87152386  0.98978865  1
  H+  H276  1  0.21233207  0.63544471  0.19602126  1
  H+  H277  1  0.11340013  0.69600395  0.00889614  1
  H+  H278  1  0.38204768  0.35644484  0.18586651  1
  H+  H279  1  0.48306548  0.74971319  0.44041643  1
  H+  H280  1  0.11506682  0.38821613  0.82324385  1
  H+  H281  1  0.51985546  0.14239606  0.32658230  1
  H+  H282  1  0.38560434  0.27179409  0.16972357  1
  H+  H283  1  0.09790363  0.63507594  0.17187235  1
  H+  H284  1  0.38416314  0.50900033  0.98204355  1
  H+  H285  1  0.07977425  0.63298847  0.82391254  1
  H+  H286  1  0.02984388  0.28243433  0.45372051  1
  H+  H287  1  0.08430612  0.40396822  0.40255493  1
  H+  H288  1  0.83413400  0.66535897  0.10174226  1
  H+  H289  1  0.42992870  0.29868676  0.26473671  1
  H+  H290  1  0.79670902  0.89056526  0.40276588  1
  H+  H291  1  0.12827479  0.98497382  0.67225131  1
  H+  H292  1  0.23542171  0.37195365  0.33411627  1
  H+  H293  1  0.17368351  0.10660596  0.92963064  1
  H+  H294  1  0.40137558  0.28536110  0.65797543  1
  H+  H295  1  0.92209070  0.33840948  0.90581463  1
  H+  H296  1  0.69096651  0.09190507  0.26619773  1
  H+  H297  1  0.85910557  0.95658075  0.16759130  1
  H+  H298  1  0.81159383  0.63230591  0.72624965  1
  H+  H299  1  0.89535002  0.58028832  0.92269801  1
  H+  H300  1  0.36614273  0.67169891  0.06037479  1
  H+  H301  1  0.22392374  0.14156255  0.33644753  1
  H+  H302  1  0.96066673  0.85547804  0.95695185  1
  H+  H303  1  0.49168981  0.52240793  0.53839985  1
  H+  H304  1  0.13042110  0.26561907  0.18403320  1
  H+  H305  1  0.44053038  0.58665211  0.89254630  1
  H+  H306  1  0.38777852  0.96555206  0.40928589  1
  H+  H307  1  0.92523948  0.84294669  0.23297700  1
  H+  H308  1  0.91806334  0.61199143  0.55972687  1
  H+  H309  1  0.34084004  0.42103255  0.73786131  1
  H+  H310  1  0.84323713  0.93657132  0.74978889  1
  H+  H311  1  0.35269910  0.68563213  0.38401037  1
  H+  H312  1  0.92879777  0.10157735  0.93323211  1
  H+  H313  1  0.82126648  0.39772597  0.74243219  1
  H+  H314  1  0.42410408  0.88778988  0.52034733  1
  H+  H315  1  0.58508079  0.16041367  0.09078062  1
  H+  H316  1  0.41868693  0.83795225  0.23077234  1
  H+  H317  1  0.94316080  0.06287407  0.25667135  1
  H+  H318  1  0.92053793  0.32983940  0.57202645  1
  H+  H319  1  0.27838236  0.14816870  1.00405538  1
  H+  H320  1  0.07115621  0.92177089  0.42894899  1
  H+  H321  1  0.15546733  0.84362621  0.59871229  1
  H+  H322  1  0.85059497  0.14166403  0.40410366  1
  H+  H323  1  0.15058041  0.82644535  0.22765080  1
  H+  H324  1  0.13750600  0.55028526  0.51518107  1
  H+  H325  1  0.77249939  0.64554712  0.00026530  1
  H+  H326  1  0.57778303  0.44345791  0.73816116  1
  H+  H327  1  0.41233728  0.07753627  0.93043957  1
  H+  H328  1  0.29922833  0.17554326  0.41056950  1
  H+  H329  1  0.14273561  0.12254639  0.17679677  1
  H+  H330  1  0.08248688  0.42965672  0.74145934  1
  H+  H331  1  0.60179340  0.66508645  0.72936375  1
  H+  H332  1  0.72746907  0.11636752  0.83514107  1
  H+  H333  1  0.15189173  0.58832646  0.61176694  1
  H+  H334  1  0.56815585  0.41996130  0.05673909  1
  H+  H335  1  0.87051263  0.12751935  0.14292899  1
  H+  H336  1  0.83048795  0.16721724  0.05848351  1
  H+  H337  1  0.43205953  0.57254444  0.60965572  1
  H+  H338  1  0.17283659  0.34826630  0.61821713  1
  H+  H339  1  0.85996555  0.89233714  0.65519192  1
  H+  H340  1  0.10443913  0.92585485  0.73638898  1
  H+  H341  1  0.92876934  0.08365449  0.59239275  1
  H+  H342  1  0.07963657  0.41461590  0.07639261  1
  H+  H343  1  0.08628590  0.93981632  0.11006271  1
  H+  H344  1  0.60885267  -0.01660623  0.15732947  1
  H+  H345  1  0.08235727  0.68281532  0.73045168  1
  H+  H346  1  0.37857411  0.78452410  0.32093788  1
  H+  H347  1  0.41766529  0.82267490  0.88966311  1
  H+  H348  1  0.83187014  0.69054893  0.42318307  1
  H+  H349  1  0.34302452  0.40810879  0.05753132  1
  H+  H350  1  0.14677715  0.28511329  0.82369217  1
  H+  H351  1  0.56789333  0.61904477  0.07269636  1
  H+  H352  1  0.55909633  0.28255730  0.20436772  1
  H+  H353  1  0.90642506  0.58310973  0.27308726  1
  H+  H354  1  0.16633612  0.07746303  0.59832946  1
  H+  H355  1  0.96250517  0.48849644  0.46081240  1
  H+  H356  1  0.83612687  0.43078444  0.05764944  1
  H+  H357  1  0.85483621  0.34742116  0.10853879  1
  H+  H358  1  0.56538757  0.43754963  0.44025869  1
  H+  H359  1  0.65168269  0.87308404  0.83932711  1
  H+  H360  1  0.28477361  0.45036057  0.11625811  1
  H+  H361  1  0.89685109  0.13277767  0.84048584  1
  H+  H362  1  0.33872979  0.42338578  0.40722821  1
  H+  H363  1  0.44100668  0.10543694  0.22912075  1
  H+  H364  1  0.14042090  0.27955896  1.01114732  1
  H+  H365  1  0.66618751  0.08802244  0.92586497  1
  H+  H366  1  0.67386139  0.32775574  0.27520226  1
  H+  H367  1  0.87196098  0.82223199  0.84088157  1
  H+  H368  1  0.86675837  0.23408104  0.82943743  1
  H+  H369  1  0.15181189  0.58241649  0.24929864  1
  H+  H370  1  0.64641451  0.81038537  0.56363695  1
  H+  H371  1  0.57007460  0.13562834  0.44959149  1
  H+  H372  1  0.08169803  0.64550756  0.07093779  1
  H+  H373  1  0.30036965  0.63058219  0.14339991  1
  H+  H374  1  0.92963468  0.30800796  0.24654698  1
  H+  H375  1  0.32626133  0.90735097  0.77278754  1
  H+  H376  1  0.06299986  0.15924831  0.37863250  1
  H+  H377  1  0.07768370  0.16373459  0.10949609  1
  H+  H378  1  0.17117760  0.09953178  0.26247494  1
  H+  H379  1  0.40652139  0.33226934  0.56974245  1
  H+  H380  1  0.65741936  0.32312257  0.90264955  1
  H+  H381  1  0.83186029  0.45003865  0.41725125  1
  H+  H382  1  0.66300729  0.58334193  0.26520484  1
  H+  H383  1  0.38418262  0.36623270  0.66503410  1
  O2-  O384  1  0.08128922  0.16295703  0.15514251  1
  O2-  O385  1  0.10942686  0.19159139  0.45245898  1
  O2-  O386  1  0.09186933  0.17048961  0.80791238  1
  O2-  O387  1  0.08989165  0.41774075  0.15747327  1
  O2-  O388  1  0.05491067  0.34022592  0.47070403  1
  O2-  O389  1  0.08204245  0.42070960  0.81668913  1
  O2-  O390  1  0.06716732  0.66059818  0.15069625  1
  O2-  O391  1  0.07292568  0.67742635  0.47840668  1
  O2-  O392  1  0.05757180  0.66975071  0.81033847  1
  O2-  O393  1  0.08927595  0.93349816  0.15376967  1
  O2-  O394  1  0.06326048  0.92361383  0.47352961  1
  O2-  O395  1  0.09245167  0.91799107  0.81024437  1
  O2-  O396  1  0.33935294  0.17125277  0.14460319  1
  O2-  O397  1  0.31526080  0.16426663  0.48404330  1
  O2-  O398  1  0.33591633  0.16141824  0.80275873  1
  O2-  O399  1  0.30940041  0.42299637  0.14104983  1
  O2-  O400  1  0.32931721  0.41710756  0.48145534  1
  O2-  O401  1  0.34367921  0.42618983  0.81086246  1
  O2-  O402  1  0.36170402  0.67161648  0.14274179  1
  O2-  O403  1  0.42161653  0.71920943  0.44953713  1
  O2-  O404  1  0.35638092  0.65958191  0.80961144  1
  O2-  O405  1  0.33332972  0.92974032  0.16284819  1
  O2-  O406  1  0.38049582  0.95044012  0.49072283  1
  O2-  O407  1  0.32428154  0.90515907  0.81895438  1
  O2-  O408  1  0.58853663  0.15939913  0.13627842  1
  O2-  O409  1  0.56933618  0.14416537  0.49393957  1
  O2-  O410  1  0.57397062  0.15699624  0.81542559  1
  O2-  O411  1  0.57349782  0.42201988  0.13036616  1
  O2-  O412  1  0.55925876  0.45052845  0.48283130  1
  O2-  O413  1  0.57334586  0.44990843  0.80793311  1
  O2-  O414  1  0.58476991  0.66540355  0.14489646  1
  O2-  O415  1  0.59253148  0.69417472  0.53999614  1
  O2-  O416  1  0.60939859  0.67000793  0.81101605  1
  O2-  O417  1  0.56658090  0.92625066  0.13606315  1
  O2-  O418  1  0.59599534  0.92500123  0.46898465  1
  O2-  O419  1  0.58627615  0.91354891  0.81367244  1
  O2-  O420  1  0.83929962  0.15891953  0.14083083  1
  O2-  O421  1  0.84114104  0.15752052  0.48497405  1
  O2-  O422  1  0.83702384  0.17381202  0.81366940  1
  O2-  O423  1  0.84303323  0.38338126  0.13579142  1
  O2-  O424  1  0.90364211  0.45448096  0.47533447  1
  O2-  O425  1  0.82661827  0.40100329  0.81764072  1
  O2-  O426  1  0.83445983  0.66734669  0.14664344  1
  O2-  O427  1  0.82855059  0.69208150  0.46863488  1
  O2-  O428  1  0.79906058  0.63368413  0.80832592  1
  O2-  O429  1  0.81067093  0.91278689  0.14426212  1
  O2-  O430  1  0.92295956  0.91495746  0.49331153  1
  O2-  O431  1  0.85192056  0.94339861  0.79514154  1
  O2-  O432  1  0.17633463  0.09585719  0.19367942  1
  O2-  O433  1  0.12706662  0.07266233  0.51869564  1
  O2-  O434  1  0.17293691  0.09257239  0.85287801  1
  O2-  O435  1  0.16379785  0.32615272  0.19917080  1
  O2-  O436  1  0.17410322  0.33586261  0.53970368  1
  O2-  O437  1  0.17072934  0.34655064  0.83321190  1
  O2-  O438  1  0.15475941  0.58746889  0.20317842  1
  O2-  O439  1  0.10236042  0.56392820  0.54149260  1
  O2-  O440  1  0.20695358  0.57729059  0.86969131  1
  O2-  O441  1  0.15467855  0.82928098  0.18254861  1
  O2-  O442  1  0.13786934  0.84287533  0.52307385  1
  O2-  O443  1  0.16085811  0.82551802  0.85504764  1
  O2-  O444  1  0.42964221  0.09553355  0.18487964  1
  O2-  O445  1  0.41252073  0.10155557  0.54069723  1
  O2-  O446  1  0.40922977  0.07560858  0.85426059  1
  O2-  O447  1  0.41795359  0.33012727  0.18997222  1
  O2-  O448  1  0.39886794  0.32300769  0.52469974  1
  O2-  O449  1  0.41277854  0.32997889  0.84647106  1
  O2-  O450  1  0.42193453  0.58002461  0.19175959  1
  O2-  O451  1  0.45696714  0.55044535  0.53678642  1
  O2-  O452  1  0.44742181  0.59056310  0.84729805  1
  O2-  O453  1  0.42054346  0.83606938  0.18500245  1
  O2-  O454  1  0.44419505  0.84965452  0.53693153  1
  O2-  O455  1  0.41739109  0.82433047  0.84429956  1
  O2-  O456  1  0.66907821  0.07528726  0.18009064  1
  O2-  O457  1  0.67813124  0.08423144  0.52563787  1
  O2-  O458  1  0.66718164  0.08293385  0.85024273  1
  O2-  O459  1  0.61624040  0.30906210  0.18618397  1
  O2-  O460  1  0.66293742  0.30967836  0.50860413  1
  O2-  O461  1  0.65876596  0.31290817  0.85893174  1
  O2-  O462  1  0.66949655  0.58637007  0.18674269  1
  O2-  O463  1  0.66047815  0.62354249  0.48447433  1
  O2-  O464  1  0.64416674  0.62062564  0.84064066  1
  O2-  O465  1  0.65440895  0.82869091  0.19409938  1
  O2-  O466  1  0.62107088  0.78296697  0.52356629  1
  O2-  O467  1  0.69042369  0.85531116  0.85865585  1
  O2-  O468  1  0.92389560  0.06445831  0.21383595  1
  O2-  O469  1  0.92320039  0.05975577  0.51643245  1
  O2-  O470  1  0.92844480  0.10268560  0.85409601  1
  O2-  O471  1  0.92784589  0.31153504  0.20081371  1
  O2-  O472  1  0.91862785  0.32512963  0.52642824  1
  O2-  O473  1  0.92136957  0.33608250  0.86063886  1
  O2-  O474  1  0.90784401  0.57652590  0.19203612  1
  O2-  O475  1  0.91187039  0.60828107  0.51476190  1
  O2-  O476  1  0.89364412  0.57237119  0.85491724  1
  O2-  O477  1  0.93675931  0.83995498  0.18857836  1
  O2-  O478  1  0.86842082  0.83803661  0.52987895  1
  O2-  O479  1  0.90765199  0.81217662  0.81231224  1
  O2-  O480  1  0.16268512  0.09853259  0.30931817  1
  O2-  O481  1  0.17065281  0.07916159  0.64323271  1
  O2-  O482  1  0.17616631  0.11090976  0.97532348  1
  O2-  O483  1  0.17393544  0.34261857  0.32309664  1
  O2-  O484  1  0.16910131  0.34576780  0.66328094  1
  O2-  O485  1  0.17595611  0.34043784  0.99832080  1
  O2-  O486  1  0.15873108  0.58319626  0.32247679  1
  O2-  O487  1  0.16927361  0.59697085  0.65557304  1
  O2-  O488  1  0.18594377  0.57517216  0.99609642  1
  O2-  O489  1  0.15306154  0.82140349  0.30702667  1
  O2-  O490  1  0.16601292  0.84541164  0.64386895  1
  O2-  O491  1  0.16099779  0.80167135  0.97689940  1
  O2-  O492  1  0.46783307  0.14103608  0.30733473  1
  O2-  O493  1  0.40094984  0.18128807  0.65431576  1
  O2-  O494  1  0.41435506  0.07606863  0.97626935  1
  O2-  O495  1  0.43907274  0.28174493  0.30609238  1
  O2-  O496  1  0.42131732  0.34515141  0.64575267  1
  O2-  O497  1  0.41809256  0.32832640  0.97294008  1
  O2-  O498  1  0.41616163  0.58678476  0.31167578  1
  O2-  O499  1  0.42639014  0.58350068  0.65325260  1
  O2-  O500  1  0.42141995  0.56964354  0.96873515  1
  O2-  O501  1  0.41454744  0.84464551  0.30579336  1
  O2-  O502  1  0.42875606  0.83636281  0.66076321  1
  O2-  O503  1  0.41078972  0.82250624  0.96693821  1
  O2-  O504  1  0.70573045  0.11796622  0.30680934  1
  O2-  O505  1  0.68968008  0.08013791  0.65223321  1
  O2-  O506  1  0.66433834  0.09302779  0.97150505  1
  O2-  O507  1  0.65999140  0.32007715  0.31873900  1
  O2-  O508  1  0.66987129  0.33528922  0.62688333  1
  O2-  O509  1  0.65473648  0.33878309  0.98696524  1
  O2-  O510  1  0.66390195  0.58807147  0.31039561  1
  O2-  O511  1  0.66228408  0.57221093  0.63901471  1
  O2-  O512  1  0.68032268  0.60791894  0.96602143  1
  O2-  O513  1  0.65657439  0.82703203  0.30776166  1
  O2-  O514  1  0.67303663  0.83103500  0.64160348  1
  O2-  O515  1  0.71385735  0.91767922  0.96835959  1
  O2-  O516  1  0.96715120  0.07338559  0.33071650  1
  O2-  O517  1  0.92809055  0.08931707  0.63765130  1
  O2-  O518  1  0.92709366  0.10349982  0.97859237  1
  O2-  O519  1  0.93409157  0.30951759  0.32153249  1
  O2-  O520  1  0.92409547  0.34104599  0.64835527  1
  O2-  O521  1  0.91402251  0.34324923  0.98682583  1
  O2-  O522  1  0.91049138  0.59531063  0.31736256  1
  O2-  O523  1  0.93557945  0.59472720  0.63629598  1
  O2-  O524  1  0.89722192  0.58243282  0.97000011  1
  O2-  O525  1  0.91618401  0.85245856  0.30831771  1
  O2-  O526  1  0.97894628  0.80428904  0.59536645  1
  O2-  O527  1  0.93469999  0.84013995  0.99716710  1
  O2-  O528  1  0.08243010  0.17268296  0.03311568  1
  O2-  O529  1  0.05361260  0.14933611  0.33395154  1
  O2-  O530  1  0.09029940  0.17182515  0.68420981  1
  O2-  O531  1  0.07614645  0.41310179  0.03132085  1
  O2-  O532  1  0.09022715  0.41753504  0.35848856  1
  O2-  O533  1  0.08477519  0.43180830  0.69561022  1
  O2-  O534  1  0.08792443  0.63801845  0.02694606  1
  O2-  O535  1  0.07272853  0.66597482  0.35528471  1
  O2-  O536  1  0.09233086  0.68608798  0.68587266  1
  O2-  O537  1  0.14756432  0.94908326  0.01454264  1
  O2-  O538  1  0.08644737  0.92262703  0.34985768  1
  O2-  O539  1  0.10430225  0.92498356  0.69028530  1
  O2-  O540  1  0.33827462  0.16942074  0.01886928  1
  O2-  O541  1  0.28927166  0.19240537  0.36884829  1
  O2-  O542  1  0.32334600  0.11533351  0.68546032  1
  O2-  O543  1  0.33635349  0.40487082  0.01312843  1
  O2-  O544  1  0.34336808  0.42591863  0.36145187  1
  O2-  O545  1  0.33782484  0.41906258  0.69185155  1
  O2-  O546  1  0.35481769  0.66577635  0.01608260  1
  O2-  O547  1  0.33404208  0.67736525  0.34090694  1
  O2-  O548  1  0.34180722  0.66552325  0.68742410  1
  O2-  O549  1  0.32032715  0.89941611  0.00525074  1
  O2-  O550  1  0.37936193  0.96832910  0.36472058  1
  O2-  O551  1  0.33676849  0.91370345  0.69940839  1
  O2-  O552  1  0.58056840  0.17188449  0.01388518  1
  O2-  O553  1  0.59930305  0.14860539  0.36697091  1
  O2-  O554  1  0.54725114  0.18568784  0.69272070  1
  O2-  O555  1  0.56793710  0.41243212  0.01068856  1
  O2-  O556  1  0.58497857  0.42380747  0.35930847  1
  O2-  O557  1  0.58116528  0.43693641  0.69190145  1
  O2-  O558  1  0.55573561  0.58198678  0.03612188  1
  O2-  O559  1  0.58521785  0.67687884  0.35175271  1
  O2-  O560  1  0.59704217  0.66647493  0.68447462  1
  O2-  O561  1  0.53748151  0.96328780  0.02799825  1
  O2-  O562  1  0.58421316  0.90686403  0.34860781  1
  O2-  O563  1  0.59602892  0.91096640  0.69115495  1
  O2-  O564  1  0.83031796  0.17176393  0.01369158  1
  O2-  O565  1  0.86247139  0.13944472  0.36019615  1
  O2-  O566  1  0.85230137  0.17479190  0.68825497  1
  O2-  O567  1  0.83122717  0.42738653  0.01303064  1
  O2-  O568  1  0.80021780  0.46196555  0.38559546  1
  O2-  O569  1  0.82362644  0.40435154  0.69666670  1
  O2-  O570  1  0.83209051  0.66542308  0.01770078  1
  O2-  O571  1  0.82931100  0.68624251  0.34690493  1
  O2-  O572  1  0.81886560  0.64537598  0.68239132  1
  O2-  O573  1  0.85307173  0.94201580  0.02140363  1
  O2-  O574  1  0.84087380  0.93700755  0.37879101  1
  O2-  O575  1  0.83221990  0.92102987  0.67443677  1
