# generated using pymatgen
data_H2O
_symmetry_space_group_name_H-M   'P 1'
_cell_length_a   17.98424678
_cell_length_b   17.98231104
_cell_length_c   21.98803153
_cell_angle_alpha   89.93696430
_cell_angle_beta   89.99289966
_cell_angle_gamma   120.01411700
_symmetry_Int_Tables_number   1
_chemical_formula_structural   H2O
_chemical_formula_sum   'H384 O192'
_cell_volume   6157.33169998
_cell_formula_units_Z   192
loop_
 _symmetry_equiv_pos_site_id
 _symmetry_equiv_pos_as_xyz
  1  'x, y, z'
loop_
 _atom_type_symbol
 _atom_type_oxidation_number
  H+  1.0
  O2-  -2.0
loop_
 _atom_site_type_symbol
 _atom_site_label
 _atom_site_symmetry_multiplicity
 _atom_site_fract_x
 _atom_site_fract_y
 _atom_site_fract_z
 _atom_site_occupancy
  H+  H0  1  0.36799654  0.98652369  0.67488073  1
  H+  H1  1  0.71935998  0.86014359  -0.00266629  1
  H+  H2  1  0.86403280  0.21385815  0.66204928  1
  H+  H3  1  0.62045110  0.26608541  0.65416944  1
  H+  H4  1  0.37509058  0.83661422  0.15778776  1
  H+  H5  1  0.39017920  0.76187648  0.09381898  1
  H+  H6  1  0.15357230  0.78163637  0.50872031  1
  H+  H7  1  0.72956445  0.29006537  0.98317286  1
  H+  H8  1  0.88755278  0.10310312  0.66540646  1
  H+  H9  1  0.26232345  0.14196469  0.01888030  1
  H+  H10  1  0.60308481  0.12556554  0.17501765  1
  H+  H11  1  0.41011354  0.56969796  0.28122976  1
  H+  H12  1  0.80789501  0.66926418  0.76914985  1
  H+  H13  1  0.62664622  0.10577765  0.83104452  1
  H+  H14  1  0.85575275  -0.02783185  1.00968368  1
  H+  H15  1  0.22731608  0.62299800  0.52275185  1
  H+  H16  1  0.14299882  0.19812363  0.46758621  1
  H+  H17  1  0.37873024  0.09446760  0.17858630  1
  H+  H18  1  0.51437558  0.62217642  0.34746669  1
  H+  H19  1  0.52647726  0.39327376  0.17450841  1
  H+  H20  1  0.05759319  0.89114193  0.33787507  1
  H+  H21  1  0.13440868  0.10966010  0.84610693  1
  H+  H22  1  0.78796379  0.14705326  0.34207332  1
  H+  H23  1  0.41382403  0.52807670  0.83297115  1
  H+  H24  1  0.60096416  0.37546590  0.34340215  1
  H+  H25  1  0.63982050  0.52212329  0.32982988  1
  H+  H26  1  0.61387804  0.50824527  0.83688103  1
  H+  H27  1  0.47671717  0.36693220  0.33847850  1
  H+  H28  1  0.36617986  0.23993859  0.35329038  1
  H+  H29  1  0.60317873  0.24560818  0.33408859  1
  H+  H30  1  0.77097367  0.13709027  0.15633106  1
  H+  H31  1  0.11761149  0.48246914  0.72538584  1
  H+  H32  1  0.40127754  0.32877137  0.60752741  1
  H+  H33  1  0.50216966  0.65845229  0.51371927  1
  H+  H34  1  -0.02067452  0.10845242  0.67249502  1
  H+  H35  1  0.61730100  0.90442389  0.66687151  1
  H+  H36  1  0.14374931  0.37411010  0.31600957  1
  H+  H37  1  0.84619383  0.87274461  0.83124404  1
  H+  H38  1  0.67811584  0.08568648  0.24005061  1
  H+  H39  1  0.22818783  0.61825750  0.32576230  1
  H+  H40  1  0.09977741  0.72157304  0.82261648  1
  H+  H41  1  1.01450292  0.63442259  0.17684977  1
  H+  H42  1  0.79532620  0.40421242  0.27018172  1
  H+  H43  1  0.13441093  0.27514967  0.67124375  1
  H+  H44  1  0.14061673  0.89145959  0.17122093  1
  H+  H45  1  0.61090824  0.88189724  0.82762140  1
  H+  H46  1  0.71221507  0.34410100  0.66267645  1
  H+  H47  1  0.74573398  0.62758624  0.82613406  1
  H+  H48  1  0.73009697  0.87624696  0.49604354  1
  H+  H49  1  0.37632445  0.62674681  0.82230045  1
  H+  H50  1  0.16356498  0.02406650  0.32616582  1
  H+  H51  1  0.65825433  0.36368734  0.50235939  1
  H+  H52  1  0.40710012  0.83550854  0.60592159  1
  H+  H53  1  0.36319188  0.38665730  0.99612136  1
  H+  H54  1  0.88888455  0.03239165  0.16223598  1
  H+  H55  1  0.14229372  0.28930892  0.16157667  1
  H+  H56  1  0.11773307  0.64056623  0.50475751  1
  H+  H57  1  0.77043759  0.28271280  0.71488188  1
  H+  H58  1  0.86260924  0.28945639  0.48327202  1
  H+  H59  1  0.24153911  0.85380095  0.33794189  1
  H+  H60  1  0.67471425  0.32664851  0.56326393  1
  H+  H61  1  0.11217366  0.63564883  0.34231535  1
  H+  H62  1  0.43041962  0.49049078  0.47864081  1
  H+  H63  1  0.89541135  0.27268546  0.31896260  1
  H+  H64  1  0.23180567  0.37796893  0.15797176  1
  H+  H65  1  0.89534842  0.27128963  0.16389577  1
  H+  H66  1  0.02523018  0.38933445  0.33359754  1
  H+  H67  1  0.64170894  1.02484231  0.34046553  1
  H+  H68  1  0.12431424  0.39682874  0.50082815  1
  H+  H69  1  0.63432732  0.76808674  0.99986079  1
  H+  H70  1  0.49834390  0.10895727  0.34287364  1
  H+  H71  1  0.15208150  0.53777571  0.83779773  1
  H+  H72  1  0.51872701  0.63745880  0.01469092  1
  H+  H73  1  0.86649545  0.21647646  -0.00725524  1
  H+  H74  1  0.88979373  0.35915886  0.30811358  1
  H+  H75  1  0.14512528  0.53237122  0.51944635  1
  H+  H76  1  0.24420359  0.62861375  -0.00433094  1
  H+  H77  1  0.47930421  0.61216395  0.19168766  1
  H+  H78  1  0.12321560  0.40065368  0.82059500  1
  H+  H79  1  0.26978039  0.12869757  0.50015976  1
  H+  H80  1  0.30055677  0.81801664  0.38440841  1
  H+  H81  1  0.12548294  0.86648834  0.65250687  1
  H+  H82  1  0.38375367  0.87155965  0.51302976  1
  H+  H83  1  0.50103965  0.44078430  0.02657651  1
  H+  H84  1  0.72052512  0.34959569  0.84283454  1
  H+  H85  1  0.88309373  0.64699140  0.66466213  1
  H+  H86  1  0.76869830  0.64768715  0.49460266  1
  H+  H87  1  0.66377819  0.39828245  0.18782661  1
  H+  H88  1  0.62471556  0.48194305  0.49906122  1
  H+  H89  1  0.92449917  0.58913049  0.24192720  1
  H+  H90  1  0.31633401  0.31474441  0.51391811  1
  H+  H91  1  0.60548801  0.87861376  0.49763852  1
  H+  H92  1  0.75551909  0.64538597  0.67095892  1
  H+  H93  1  0.19271408  0.47019548  0.45899427  1
  H+  H94  1  0.33119016  0.17133437  0.41661343  1
  H+  H95  1  0.88022659  0.55834596  0.65816507  1
  H+  H96  1  0.96552229  0.86786829  0.99504702  1
  H+  H97  1  0.14539728  0.09121066  0.50439040  1
  H+  H98  1  0.37111384  0.98584309  0.33477322  1
  H+  H99  1  0.35902949  0.12986303  0.83177405  1
  H+  H100  1  0.61255035  0.88688178  0.16988201  1
  H+  H101  1  0.63846969  0.02274320  0.18304725  1
  H+  H102  1  0.36082377  0.63363887  0.34433144  1
  H+  H103  1  0.36962898  0.89098915  0.67884367  1
  H+  H104  1  0.16055417  0.77522149  0.89245377  1
  H+  H105  1  0.69936398  0.50371694  0.96126439  1
  H+  H106  1  0.35618270  0.95849949  0.16362571  1
  H+  H107  1  0.35726137  0.22399768  0.49816609  1
  H+  H108  1  0.61503273  0.72960908  0.17233697  1
  H+  H109  1  0.26835441  0.12731844  0.83035973  1
  H+  H110  1  0.86994986  0.96029892  0.67972069  1
  H+  H111  1  0.47646743  0.86295416  0.83485412  1
  H+  H112  1  0.75748878  0.87268889  0.83003144  1
  H+  H113  1  0.10278071  0.99312819  0.01999848  1
  H+  H114  1  0.86380022  0.72676879  0.00974281  1
  H+  H115  1  0.38162683  0.03482372  0.99956305  1
  H+  H116  1  0.82507349  0.72525971  0.18926493  1
  H+  H117  1  0.47246987  0.36127186  0.66131358  1
  H+  H118  1  0.02594793  0.13594366  0.83546563  1
  H+  H119  1  1.03933557  0.65979151  0.50048498  1
  H+  H120  1  0.92572572  0.87271468  0.56940051  1
  H+  H121  1  0.38827225  0.86175635  0.83101308  1
  H+  H122  1  0.37973208  0.26445718  -0.00572649  1
  H+  H123  1  0.46531707  0.84248854  0.16374731  1
  H+  H124  1  0.39231745  0.52553932  -0.01099394  1
  H+  H125  1  0.76731154  0.14685449  0.81621314  1
  H+  H126  1  0.60622236  0.88323592  0.35016806  1
  H+  H127  1  0.69480080  0.33337446  0.33216215  1
  H+  H128  1  0.11079312  0.64014071  0.82565637  1
  H+  H129  1  0.52016142  0.88818068  0.67353273  1
  H+  H130  1  0.88261544  0.10607341  0.99296193  1
  H+  H131  1  0.37598816  0.64003900  0.01782136  1
  H+  H132  1  0.04874612  0.13745187  0.49369537  1
  H+  H133  1  0.36226130  0.25973302  0.18444575  1
  H+  H134  1  0.76894563  0.36890570  0.15364032  1
  H+  H135  1  0.15676515  0.10110944  1.06630603  1
  H+  H136  1  0.48447216  0.72253095  0.55051250  1
  H+  H137  1  1.02645689  0.64981505  0.67175712  1
  H+  H138  1  0.88983057  0.01908496  0.83767730  1
  H+  H139  1  0.27775153  0.89430697  0.49979741  1
  H+  H140  1  0.22229092  0.36429171  0.66619549  1
  H+  H141  1  0.27973551  0.62716996  0.82762293  1
  H+  H142  1  0.22937881  0.85397774  0.17845605  1
  H+  H143  1  1.01279285  0.90262085  0.53519237  1
  H+  H144  1  0.88594986  0.58824340  0.17405261  1
  H+  H145  1  0.63594661  0.52336888  -0.00222930  1
  H+  H146  1  0.92853876  0.82272982  0.19327416  1
  H+  H147  1  0.10158481  0.10741670  0.33199047  1
  H+  H148  1  0.37862699  0.10776866  0.66310427  1
  H+  H149  1  0.41501480  0.37645425  0.50917610  1
  H+  H150  1  0.54854579  0.38479667  0.50152039  1
  H+  H151  1  0.46937197  0.86323478  0.51457465  1
  H+  H152  1  0.14511759  0.03552695  0.17754616  1
  H+  H153  1  0.37836234  0.26493317  0.83505360  1
  H+  H154  1  0.97542734  0.36654064  0.82365292  1
  H+  H155  1  0.83547975  0.80293440  0.67538332  1
  H+  H156  1  0.88574273  0.61390394  0.33640478  1
  H+  H157  1  0.12010086  0.13906614  -0.00046977  1
  H+  H158  1  0.91730335  0.63419624  0.98697394  1
  H+  H159  1  0.77202185  0.13397922  -0.00636489  1
  H+  H160  1  0.14102097  0.77317605  0.32946333  1
  H+  H161  1  0.89698142  0.18112060  0.50396470  1
  H+  H162  1  0.62727814  0.73124363  0.49155595  1
  H+  H163  1  0.86415363  0.35051715  0.00144520  1
  H+  H164  1  0.03980788  0.40413476  -0.00591228  1
  H+  H165  1  0.87909766  0.46171960  0.49421570  1
  H+  H166  1  0.59656583  0.86635284  1.01324486  1
  H+  H167  1  0.19648920  0.31939599  0.50019951  1
  H+  H168  1  0.13578459  0.61338638  0.67424257  1
  H+  H169  1  0.09018791  0.17145801  -0.06090762  1
  H+  H170  1  0.60740572  0.75533637  0.85004512  1
  H+  H171  1  0.14122543  0.28815363  0.98623911  1
  H+  H172  1  0.11315832  0.72937321  0.17497007  1
  H+  H173  1  0.63410781  0.01956044  0.83165547  1
  H+  H174  1  1.02331612  0.14365375  0.15325140  1
  H+  H175  1  1.05521847  0.67215989  0.96090429  1
  H+  H176  1  0.01563279  0.90694045  0.18207826  1
  H+  H177  1  0.46556709  0.09160669  0.18456737  1
  H+  H178  1  0.15025907  0.81149440  0.98018474  1
  H+  H179  1  0.13731523  0.12145904  0.17385129  1
  H+  H180  1  0.86092730  0.38421984  0.83013181  1
  H+  H181  1  0.86821133  0.60456363  0.83092909  1
  H+  H182  1  0.26589543  0.63439972  0.68363235  1
  H+  H183  1  0.58086337  0.91320114  0.11049160  1
  H+  H184  1  0.35929495  0.97690377  0.83055158  1
  H+  H185  1  0.17506743  0.86393420  0.89777741  1
  H+  H186  1  0.84893772  0.71409220  0.21247257  1
  H+  H187  1  0.63154719  0.60970621  0.50932179  1
  H+  H188  1  0.87222036  0.14248056  0.33149651  1
  H+  H189  1  0.85456022  0.36240789  0.14913347  1
  H+  H190  1  0.47561121  0.32917608  0.97448161  1
  H+  H191  1  0.95964329  0.90918346  0.35268180  1
  H+  H192  1  0.09557164  0.96399523  0.82459663  1
  H+  H193  1  0.09325089  0.87585804  0.81751655  1
  H+  H194  1  0.39068487  0.52691099  0.18265552  1
  H+  H195  1  0.36538560  0.65820557  0.49850082  1
  H+  H196  1  0.35127999  0.13810706  1.00704556  1
  H+  H197  1  0.11758162  0.14148877  0.67904835  1
  H+  H198  1  0.75284119  0.31423645  0.47297711  1
  H+  H199  1  0.97371846  0.10875792  0.98818098  1
  H+  H200  1  0.60017143  0.71495506  0.69911181  1
  H+  H201  1  0.13209138  0.53301879  0.16896480  1
  H+  H202  1  0.36015052  0.38955268  0.15527819  1
  H+  H203  1  -0.03769328  0.32629741  0.49170901  1
  H+  H204  1  0.60585652  0.13631697  0.66914753  1
  H+  H205  1  0.60097225  0.22117380  0.01723003  1
  H+  H206  1  0.60686598  0.21683128  0.49392984  1
  H+  H207  1  0.74549244  0.89660683  0.65671704  1
  H+  H208  1  0.46574679  0.61255376  0.66905629  1
  H+  H209  1  0.84551631  1.00579674  0.47958933  1
  H+  H210  1  0.87744013  0.33718808  0.64880921  1
  H+  H211  1  0.95786383  0.84975335  0.84025648  1
  H+  H212  1  0.17962889  0.35387777  0.25605288  1
  H+  H213  1  0.23388303  0.37571204  0.83680877  1
  H+  H214  1  0.61949091  0.60207270  0.66904251  1
  H+  H215  1  0.66837519  0.58454868  0.23731088  1
  H+  H216  1  0.80898316  0.37400608  0.74338519  1
  H+  H217  1  0.38301279  0.11094522  0.51017059  1
  H+  H218  1  0.58424592  0.66409870  0.43591040  1
  H+  H219  1  -0.02593125  0.61101660  0.33735381  1
  H+  H220  1  0.54803459  0.24947106  1.06003590  1
  H+  H221  1  0.43175049  0.59209935  0.93386456  1
  H+  H222  1  0.63810371  0.61692132  0.17900119  1
  H+  H223  1  0.62263541  0.37783806  0.01455237  1
  H+  H224  1  0.27659033  0.14107461  0.34588598  1
  H+  H225  1  0.88885587  0.12156128  0.16185122  1
  H+  H226  1  0.51761099  0.37188980  0.82522620  1
  H+  H227  1  0.35204875  0.73712416  0.49690865  1
  H+  H228  1  0.83967762  0.88146425  0.33614218  1
  H+  H229  1  0.13350359  0.78195300  0.65921233  1
  H+  H230  1  0.35969433  0.47846091  0.67164055  1
  H+  H231  1  0.90410873  0.30655099  0.58862943  1
  H+  H232  1  0.59378130  0.62094968  1.03009911  1
  H+  H233  1  0.77118312  0.12938200  0.66662600  1
  H+  H234  1  0.37116811  0.91765564  -0.00083179  1
  H+  H235  1  0.47164055  0.10855532  0.84113076  1
  H+  H236  1  0.57278244  0.91013910  0.44111836  1
  H+  H237  1  0.35709525  0.63572633  0.67495439  1
  H+  H238  1  0.87376853  0.90622527  0.16355391  1
  H+  H239  1  0.36989408  0.39126079  0.82411390  1
  H+  H240  1  0.03265734  0.91563434  0.63588709  1
  H+  H241  1  0.23066230  0.11956166  0.66489889  1
  H+  H242  1  0.34685816  0.37783591  0.35822757  1
  H+  H243  1  0.62998904  1.03068433  0.66410529  1
  H+  H244  1  0.13866009  1.03330994  0.65887644  1
  H+  H245  1  0.76199046  0.59004890  0.15272405  1
  H+  H246  1  0.86405616  0.72916104  0.34374165  1
  H+  H247  1  0.13639701  0.89217669  -0.00476896  1
  H+  H248  1  0.86728732  0.76176071  0.84421154  1
  H+  H249  1  0.55175609  0.64494111  0.74980046  1
  H+  H250  1  0.40062409  0.78235776  0.32280342  1
  H+  H251  1  0.39442100  0.86571981  0.32950240  1
  H+  H252  1  0.62495183  0.10270961  0.51078735  1
  H+  H253  1  0.51484645  0.13089907  0.49959640  1
  H+  H254  1  0.40434330  0.49503371  0.50371000  1
  H+  H255  1  0.37473436  0.51381640  0.34348968  1
  H+  H256  1  0.87124983  0.47684244  0.46397970  1
  H+  H257  1  0.40462229  0.07508797  0.60150121  1
  H+  H258  1  0.11848787  0.40287755  0.14691782  1
  H+  H259  1  0.96361858  0.08846149  0.31655205  1
  H+  H260  1  0.62431728  0.01415674  0.51524525  1
  H+  H261  1  0.10161520  0.86515374  0.49468112  1
  H+  H262  1  0.27758040  0.91122952  0.00718031  1
  H+  H263  1  0.52215661  0.89071139  0.34690615  1
  H+  H264  1  0.06258201  0.12160709  0.39184580  1
  H+  H265  1  0.60777069  0.37420711  0.83013469  1
  H+  H266  1  0.38298534  0.02107677  0.50901887  1
  H+  H267  1  0.72586713  0.86547398  0.18381764  1
  H+  H268  1  0.36251547  0.39030106  0.67617000  1
  H+  H269  1  1.02577083  0.39391152  0.14875525  1
  H+  H270  1  0.37972441  0.77673142  0.66679178  1
  H+  H271  1  0.36425564  0.22583079  0.67873379  1
  H+  H272  1  0.62626141  0.04390892  0.98268756  1
  H+  H273  1  0.39278223  0.04454611  0.27632508  1
  H+  H274  1  0.60295938  0.36497154  0.98317929  1
  H+  H275  1  0.27648228  0.13893878  0.16127336  1
  H+  H276  1  0.48194484  0.90139569  -0.01725914  1
  H+  H277  1  0.60976199  0.38294201  0.66941488  1
  H+  H278  1  0.85106864  0.46863338  0.82473953  1
  H+  H279  1  0.60487547  0.21755405  0.82324497  1
  H+  H280  1  0.62039786  0.76072238  0.33196394  1
  H+  H281  1  0.14539202  0.89106688  0.33926587  1
  H+  H282  1  0.95204374  0.11818814  0.58287965  1
  H+  H283  1  0.88302888  0.27636490  0.82388383  1
  H+  H284  1  0.98650768  0.28280273  -0.05489408  1
  H+  H285  1  0.56130108  0.60332394  0.84284457  1
  H+  H286  1  0.95882814  0.60695056  0.82825997  1
  H+  H287  1  0.86786949  0.67764624  0.49552769  1
  H+  H288  1  0.68028030  0.84650243  0.55882033  1
  H+  H289  1  0.82421804  0.93924205  0.42582994  1
  H+  H290  1  0.34373728  0.42526521  0.09250034  1
  H+  H291  1  0.56894977  0.16407273  0.12361168  1
  H+  H292  1  0.08919217  0.43555748  0.05831004  1
  H+  H293  1  0.72753769  0.61386103  0.33133117  1
  H+  H294  1  0.66183493  0.29514997  0.89858550  1
  H+  H295  1  0.07980403  0.90507536  0.43942489  1
  H+  H296  1  0.65835821  0.58031569  0.57052783  1
  H+  H297  1  0.08513798  0.17207421  0.09593686  1
  H+  H298  1  0.04896426  0.91224385  0.70936571  1
  H+  H299  1  0.26067747  0.38005354  0.34242149  1
  H+  H300  1  0.33874327  0.17247674  0.10371604  1
  H+  H301  1  0.66183797  0.33900702  0.24125529  1
  H+  H302  1  0.11508947  0.22998742  0.83389474  1
  H+  H303  1  0.64852844  0.56425477  0.89646113  1
  H+  H304  1  0.81423777  0.36542828  0.05538084  1
  H+  H305  1  0.40789159  0.33161927  0.28287350  1
  H+  H306  1  0.40896898  0.32517819  0.89332041  1
  H+  H307  1  0.80754945  0.33926720  0.41221442  1
  H+  H308  1  0.65781296  0.08390148  0.60120583  1
  H+  H309  1  0.57872706  0.66960929  0.11381209  1
  H+  H310  1  0.62813055  0.51769260  0.66512973  1
  H+  H311  1  0.46293591  0.13033458  1.00340179  1
  H+  H312  1  0.25585156  0.34024305  0.43867387  1
  H+  H313  1  0.82490196  0.16374589  0.09304337  1
  H+  H314  1  0.41491540  0.08447689  0.90302041  1
  H+  H315  1  0.82262066  0.90334243  0.73847258  1
  H+  H316  1  0.15254988  0.54523528  0.98876619  1
  H+  H317  1  0.18998934  0.59979615  0.89662222  1
  H+  H318  1  0.27216525  0.88382250  0.82832124  1
  H+  H319  1  0.63526972  0.10872726  0.33266223  1
  H+  H320  1  0.18845591  0.09103339  0.26947525  1
  H+  H321  1  0.93588793  0.32050142  0.91085715  1
  H+  H322  1  0.82848051  0.67492509  0.40456329  1
  H+  H323  1  0.27771601  0.39331673  -0.00058767  1
  H+  H324  1  0.82813884  0.17114660  0.75695655  1
  H+  H325  1  0.51338384  0.13128496  0.66917017  1
  H+  H326  1  0.60699309  0.62755293  0.34291720  1
  H+  H327  1  0.56201499  0.46167016  0.08383505  1
  H+  H328  1  0.17585607  0.35242960  0.89621135  1
  H+  H329  1  0.90355592  0.82860257  0.93716764  1
  H+  H330  1  0.33620435  0.65553198  0.75835914  1
  H+  H331  1  0.15982159  0.06961402  0.90127930  1
  H+  H332  1  0.34270061  0.42750668  0.76639033  1
  H+  H333  1  0.08741542  0.66637148  0.40388561  1
  H+  H334  1  0.06398595  0.26692154  0.54188087  1
  H+  H335  1  0.08781577  0.16596526  0.74112742  1
  H+  H336  1  0.08827668  0.42109101  0.39236043  1
  H+  H337  1  0.18158210  0.08632221  0.56975694  1
  H+  H338  1  0.50197034  0.82506384  0.03824863  1
  H+  H339  1  0.91559517  0.07281060  0.89860449  1
  H+  H340  1  0.66661374  0.08304596  0.91686952  1
  H+  H341  1  0.16460520  0.57457244  0.62144933  1
  H+  H342  1  0.84490639  0.97243785  0.32560714  1
  H+  H343  1  0.42224777  0.60477686  0.60504249  1
  H+  H344  1  0.33364887  0.16331104  0.73716302  1
  H+  H345  1  0.82412099  0.62056877  0.09518618  1
  H+  H346  1  0.58633934  0.91463643  0.76618696  1
  H+  H347  1  0.90243967  0.57581322  0.51355430  1
  H+  H348  1  0.57070849  0.15993405  0.76272746  1
  H+  H349  1  0.70730461  0.85305396  0.33121222  1
  H+  H350  1  0.33736203  0.92484672  0.74219848  1
  H+  H351  1  0.14596439  0.67443853  -0.03227172  1
  H+  H352  1  0.82908382  0.91595830  0.10309733  1
  H+  H353  1  0.33316599  0.91357094  0.43824670  1
  H+  H354  1  0.91004795  0.07792222  0.25537678  1
  H+  H355  1  0.92845223  0.33038919  0.22366215  1
  H+  H356  1  0.13857130  0.33104200  0.58781587  1
  H+  H357  1  0.17556655  0.96337069  0.12104956  1
  H+  H358  1  0.17727400  0.83302484  0.24354506  1
  H+  H359  1  0.17162330  0.83983208  0.56892536  1
  H+  H360  1  0.85408139  0.47044679  0.31907100  1
  H+  H361  1  0.67085108  0.19145272  0.96119183  1
  H+  H362  1  0.14629117  0.38148239  0.99251659  1
  H+  H363  1  0.73517875  0.96121937  0.61462202  1
  H+  H364  1  0.78631931  0.63123007  0.00047054  1
  H+  H365  1  0.60997627  0.48709008  0.17069505  1
  H+  H366  1  0.94962927  0.87981638  0.28255544  1
  H+  H367  1  0.56054013  0.14800351  0.40127234  1
  H+  H368  1  0.06602152  0.91367549  0.06639038  1
  H+  H369  1  0.32618078  0.90836673  0.10078611  1
  H+  H370  1  0.58714131  0.41911948  0.40203601  1
  H+  H371  1  0.33103232  0.67117883  0.39890022  1
  H+  H372  1  0.65114061  0.82047966  0.90487420  1
  H+  H373  1  0.66015201  0.83039605  0.24131728  1
  H+  H374  1  0.30598534  0.28874711  0.22046191  1
  H+  H375  1  0.13884896  0.52890312  0.32463734  1
  H+  H376  1  0.93192740  0.63429491  0.57154266  1
  H+  H377  1  0.08080243  0.66904578  0.73199356  1
  H+  H378  1  0.58073802  0.40837168  0.73140710  1
  H+  H379  1  0.92599774  0.59481010  0.92511298  1
  H+  H380  1  0.42905784  0.87595046  0.92065870  1
  H+  H381  1  0.11403470  0.63482116  0.17150416  1
  H+  H382  1  0.16267519  0.58757329  0.23148045  1
  H+  H383  1  0.85168348  0.88142792  0.00934980  1
  O2-  O384  1  0.08604367  0.17241098  0.14035942  1
  O2-  O385  1  0.09381552  0.13821215  0.46726572  1
  O2-  O386  1  0.08990227  0.16783931  0.82520835  1
  O2-  O387  1  0.08587922  0.43111452  0.13270767  1
  O2-  O388  1  0.13312205  0.44516050  0.47217949  1
  O2-  O389  1  0.09415545  0.43423514  0.80842826  1
  O2-  O390  1  0.08063602  0.66854079  0.15926257  1
  O2-  O391  1  0.09646728  0.67523499  0.48321214  1
  O2-  O392  1  0.07360015  0.66143381  0.80897479  1
  O2-  O393  1  0.12676055  0.93417530  0.14883907  1
  O2-  O394  1  0.05510124  0.87352597  0.47735870  1
  O2-  O395  1  0.06103333  0.90500492  0.80782818  1
  O2-  O396  1  0.33820294  0.16911672  0.14929201  1
  O2-  O397  1  0.33293415  0.16549380  0.48073462  1
  O2-  O398  1  0.32866539  0.15983712  0.81534509  1
  O2-  O399  1  0.33822357  0.42537706  0.13760308  1
  O2-  O400  1  0.23380896  0.30334609  0.47607700  1
  O2-  O401  1  0.34789867  0.43053061  0.81227037  1
  O2-  O402  1  0.39165174  0.74885898  0.04736126  1
  O2-  O403  1  0.32456299  0.67572099  0.48303109  1
  O2-  O404  1  0.33893135  0.64942785  0.80672851  1
  O2-  O405  1  0.32357551  0.89909619  0.14586872  1
  O2-  O406  1  0.33908391  0.92396794  0.48425623  1
  O2-  O407  1  0.33038724  0.91932386  0.80978197  1
  O2-  O408  1  0.56486086  0.14969114  0.16719316  1
  O2-  O409  1  0.57275610  0.15614885  0.48017225  1
  O2-  O410  1  0.57124954  0.15678342  0.80823979  1
  O2-  O411  1  0.57950469  0.42684003  0.15169632  1
  O2-  O412  1  0.60295184  0.42228279  0.48132043  1
  O2-  O413  1  0.57911953  0.40438443  0.81207623  1
  O2-  O414  1  0.58475234  0.66809270  0.15869119  1
  O2-  O415  1  0.58875501  0.66873456  0.48169698  1
  O2-  O416  1  0.53254652  0.63586147  0.82677674  1
  O2-  O417  1  0.58300730  0.91821951  0.15566014  1
  O2-  O418  1  0.57024120  0.90549821  0.48714741  1
  O2-  O419  1  0.58585274  0.91646402  0.81156279  1
  O2-  O420  1  0.83019504  0.16605964  0.13819552  1
  O2-  O421  1  0.89701140  0.12521245  0.50722408  1
  O2-  O422  1  0.82552440  0.18664017  0.80017797  1
  O2-  O423  1  0.81412020  0.37362053  0.12578652  1
  O2-  O424  1  0.79030156  0.30118524  0.44734144  1
  O2-  O425  1  0.82232468  0.40583898  0.81517267  1
  O2-  O426  1  0.80841168  0.58536343  0.13268512  1
  O2-  O427  1  0.82445182  0.68708610  0.47505192  1
  O2-  O428  1  0.80715653  0.65858383  0.81336946  1
  O2-  O429  1  0.83359938  0.92423611  0.14858403  1
  O2-  O430  1  0.82390183  0.94490815  0.47071818  1
  O2-  O431  1  0.81719143  0.90330586  0.81409875  1
  O2-  O432  1  0.17248577  0.09667761  0.18997694  1
  O2-  O433  1  0.18676107  0.07824034  0.52529260  1
  O2-  O434  1  0.16021430  0.07271387  0.85693807  1
  O2-  O435  1  0.17159923  0.35041617  0.17379765  1
  O2-  O436  1  0.11887728  0.32190358  0.54251858  1
  O2-  O437  1  0.17319163  0.34765442  0.85085357  1
  O2-  O438  1  0.15859625  0.59185577  0.18649696  1
  O2-  O439  1  0.16801368  0.58879309  0.54010940  1
  O2-  O440  1  0.18836679  0.59896984  0.85058069  1
  O2-  O441  1  0.17009792  0.83093309  0.19705173  1
  O2-  O442  1  0.17881745  0.84206696  0.52284224  1
  O2-  O443  1  0.17214986  0.82450807  0.86452779  1
  O2-  O444  1  0.40134809  0.05809086  0.19384330  1
  O2-  O445  1  0.41150186  0.08064037  0.52804583  1
  O2-  O446  1  0.41144672  0.07911598  0.85759197  1
  O2-  O447  1  0.36518405  0.31016698  0.20729664  1
  O2-  O448  1  0.37361825  0.32307686  0.52907065  1
  O2-  O449  1  0.41086545  0.32683006  0.84820248  1
  O2-  O450  1  0.42010174  0.57868254  0.20815373  1
  O2-  O451  1  0.45593563  0.66247320  0.53783020  1
  O2-  O452  1  0.44316271  0.59043923  0.84964932  1
  O2-  O453  1  0.40353954  0.80140768  0.15668931  1
  O2-  O454  1  0.40879507  0.83633881  0.53048842  1
  O2-  O455  1  0.41671043  0.83334184  0.85072960  1
  O2-  O456  1  0.67293733  0.08478363  0.19480255  1
  O2-  O457  1  0.65371592  0.07406806  0.53065457  1
  O2-  O458  1  0.66240435  0.08102826  0.84567468  1
  O2-  O459  1  0.69810044  0.37656968  0.20786011  1
  O2-  O460  1  0.67633823  0.32355211  0.51788796  1
  O2-  O461  1  0.65923950  0.31619678  0.85685554  1
  O2-  O462  1  0.66454735  0.58163721  0.19191598  1
  O2-  O463  1  0.66099001  0.57867504  0.52530733  1
  O2-  O464  1  0.63427435  0.56758687  0.85301998  1
  O2-  O465  1  0.66445721  0.83308603  0.19559487  1
  O2-  O466  1  0.67165923  0.83473763  0.51455539  1
  O2-  O467  1  0.64762542  0.81625012  0.85923305  1
  O2-  O468  1  0.92260186  0.09374619  0.17565105  1
  O2-  O469  1  0.97536384  0.15076077  0.54276113  1
  O2-  O470  1  0.92702357  0.07724567  0.85423545  1
  O2-  O471  1  0.92796722  0.33209114  0.17805703  1
  O2-  O472  1  0.90684215  0.28212456  0.50717906  1
  O2-  O473  1  0.91873925  0.33625774  0.84380835  1
  O2-  O474  1  0.93315222  0.58619081  0.19748584  1
  O2-  O475  1  0.93707453  0.63568572  0.52632048  1
  O2-  O476  1  0.89913682  0.57441309  0.84387372  1
  O2-  O477  1  0.95898585  0.88472262  0.20133244  1
  O2-  O478  1  0.98663081  0.91463374  0.57166432  1
  O2-  O479  1  0.89947167  0.82229207  0.85900156  1
  O2-  O480  1  0.19020198  0.08698598  0.31443222  1
  O2-  O481  1  0.17186675  0.09586990  0.64752569  1
  O2-  O482  1  0.15849789  0.09353403  1.02254090  1
  O2-  O483  1  0.17859922  0.34917094  0.30094639  1
  O2-  O484  1  0.16119673  0.33413179  0.65386691  1
  O2-  O485  1  0.17559241  0.35056574  0.97580920  1
  O2-  O486  1  0.16737707  0.59011058  0.31092225  1
  O2-  O487  1  0.16664037  0.58072982  0.66661333  1
  O2-  O488  1  0.18949909  0.60455969  0.97238250  1
  O2-  O489  1  0.17955938  0.83282604  0.31475758  1
  O2-  O490  1  0.15975900  0.83947396  0.64041537  1
  O2-  O491  1  0.17719545  0.87549424  0.97776743  1
  O2-  O492  1  0.39591615  0.04572205  0.32137592  1
  O2-  O493  1  0.40596606  0.07418775  0.64779234  1
  O2-  O494  1  0.40763140  0.09462968  0.98126543  1
  O2-  O495  1  0.41345515  0.33396096  0.32789597  1
  O2-  O496  1  0.40947503  0.33093507  0.65233938  1
  O2-  O497  1  0.41885737  0.32409320  0.97512998  1
  O2-  O498  1  0.40937313  0.57311097  0.32743449  1
  O2-  O499  1  0.40870603  0.58677892  0.64859133  1
  O2-  O500  1  0.42425247  0.58814450  0.97851426  1
  O2-  O501  1  0.43256861  0.84444206  0.31359282  1
  O2-  O502  1  0.40976821  0.83716995  0.65207261  1
  O2-  O503  1  0.44235529  0.91198975  0.95836716  1
  O2-  O504  1  0.67229600  0.08403264  0.32258298  1
  O2-  O505  1  0.66182707  0.09025969  0.64781433  1
  O2-  O506  1  0.67239196  0.09440984  0.96271421  1
  O2-  O507  1  0.63388761  0.30872756  0.32121387  1
  O2-  O508  1  0.65713113  0.32771153  0.64109072  1
  O2-  O509  1  0.67053467  0.24641549  0.96542781  1
  O2-  O510  1  0.66724720  0.58276068  0.31536017  1
  O2-  O511  1  0.65427821  0.57900444  0.65090039  1
  O2-  O512  1  0.68406247  0.54822725  0.96684798  1
  O2-  O513  1  0.64646103  0.82104860  0.31665404  1
  O2-  O514  1  0.70233847  0.90263342  0.63039549  1
  O2-  O515  1  0.65894714  0.82661209  0.98186670  1
  O2-  O516  1  0.90396312  0.06871778  0.30016528  1
  O2-  O517  1  0.92206659  0.07610480  0.65169891  1
  O2-  O518  1  0.91103067  0.07295949  0.97976977  1
  O2-  O519  1  0.92702316  0.33380944  0.30135822  1
  O2-  O520  1  0.90984688  0.31046907  0.63341272  1
  O2-  O521  1  0.95078390  0.30830008  0.95350393  1
  O2-  O522  1  0.91403145  0.58208576  0.32086921  1
  O2-  O523  1  0.91630824  0.61947014  0.64953289  1
  O2-  O524  1  0.95174689  0.61294973  0.96593806  1
  O2-  O525  1  0.93547692  0.85960118  0.32543904  1
  O2-  O526  1  0.84612511  0.76305886  0.65028522  1
  O2-  O527  1  0.90417489  0.83166374  0.98267109  1
  O2-  O528  1  0.08836825  0.17427811  -0.01652431  1
  O2-  O529  1  0.05394044  0.11440141  0.34713726  1
  O2-  O530  1  0.08363994  0.16715194  0.69622604  1
  O2-  O531  1  0.09730581  0.43864088  0.01249684  1
  O2-  O532  1  0.08675255  0.42273490  0.34756416  1
  O2-  O533  1  0.08842794  0.42320811  0.74191479  1
  O2-  O534  1  0.11986215  0.70964269  -0.04412741  1
  O2-  O535  1  0.08054054  0.66408534  0.35874573  1
  O2-  O536  1  0.08561103  0.67124988  0.68664231  1
  O2-  O537  1  0.06925637  0.92657292  0.02277393  1
  O2-  O538  1  0.11697667  0.92612764  0.35196706  1
  O2-  O539  1  0.07625769  0.92712804  0.66930077  1
  O2-  O540  1  0.32753385  0.17380741  0.02500334  1
  O2-  O541  1  0.33450688  0.17753643  0.36807943  1
  O2-  O542  1  0.33534393  0.16425963  0.69163633  1
  O2-  O543  1  0.33951345  0.42120632  0.01292507  1
  O2-  O544  1  0.30984074  0.40020357  0.37301075  1
  O2-  O545  1  0.33271791  0.42095485  0.69145121  1
  O2-  O546  1  0.33789356  0.65527585  0.04105920  1
  O2-  O547  1  0.33207088  0.66768935  0.35394565  1
  O2-  O548  1  0.32974490  0.66647279  0.69532050  1
  O2-  O549  1  0.33625169  0.93621204  0.02499157  1
  O2-  O550  1  0.31536922  0.87497591  0.36964837  1
  O2-  O551  1  0.34277656  0.92577096  0.69483796  1
  O2-  O552  1  0.55108367  0.19917475  0.04742355  1
  O2-  O553  1  0.56001871  0.14789926  0.35585514  1
  O2-  O554  1  0.57367836  0.16557329  0.68422937  1
  O2-  O555  1  0.55396276  0.48614443  0.04482265  1
  O2-  O556  1  0.57974630  0.41533126  0.35707060  1
  O2-  O557  1  0.57960888  0.41291839  0.68613124  1
  O2-  O558  1  0.57753462  0.66520154  0.03355578  1
  O2-  O559  1  0.57636890  0.65625807  0.36023330  1
  O2-  O560  1  0.56465425  0.65309942  0.70508750  1
  O2-  O561  1  0.55542519  0.88113437  0.03271670  1
  O2-  O562  1  0.58159826  0.91783048  0.36670585  1
  O2-  O563  1  0.58009364  0.92203440  0.68887564  1
  O2-  O564  1  0.83025552  0.16005651  0.01281615  1
  O2-  O565  1  0.85103134  0.17985304  0.34792651  1
  O2-  O566  1  0.83171076  0.15423745  0.68082550  1
  O2-  O567  1  0.81622779  0.35976749  0.00924786  1
  O2-  O568  1  0.81945989  0.40721473  0.31092577  1
  O2-  O569  1  0.79394633  0.34274973  0.70310211  1
  O2-  O570  1  0.84290383  0.66540012  0.02022300  1
  O2-  O571  1  0.83179516  0.66966010  0.35827745  1
  O2-  O572  1  0.81583469  0.68444838  0.68725563  1
  O2-  O573  1  0.82257886  0.91223174  0.02626764  1
  O2-  O574  1  0.81194932  0.91471004  0.34733501  1
  O2-  O575  1  0.82737367  0.90093779  0.69285036  1
