# generated using pymatgen
data_H2O
_symmetry_space_group_name_H-M   'P 1'
_cell_length_a   17.98737341
_cell_length_b   17.99378294
_cell_length_c   21.98803787
_cell_angle_alpha   89.96434974
_cell_angle_beta   89.98322282
_cell_angle_gamma   119.98228164
_symmetry_Int_Tables_number   1
_chemical_formula_structural   H2O
_chemical_formula_sum   'H384 O192'
_cell_volume   6164.31265481
_cell_formula_units_Z   192
loop_
 _symmetry_equiv_pos_site_id
 _symmetry_equiv_pos_as_xyz
  1  'x, y, z'
loop_
 _atom_type_symbol
 _atom_type_oxidation_number
  H+  1.0
  O2-  -2.0
loop_
 _atom_site_type_symbol
 _atom_site_label
 _atom_site_symmetry_multiplicity
 _atom_site_fract_x
 _atom_site_fract_y
 _atom_site_fract_z
 _atom_site_occupancy
  H+  H0  1  0.23303156  0.58232187  0.18860790  1
  H+  H1  1  1.02310764  0.37111837  0.99680632  1
  H+  H2  1  0.13559921  0.82763234  0.71178709  1
  H+  H3  1  0.38829154  0.10183564  0.16535061  1
  H+  H4  1  0.80641375  0.92115035  0.17740697  1
  H+  H5  1  0.46598918  0.60409194  0.65159282  1
  H+  H6  1  0.26137406  0.11413843  0.48693005  1
  H+  H7  1  0.86292654  0.48367716  0.50655337  1
  H+  H8  1  0.36880862  0.21243077  -0.00674592  1
  H+  H9  1  0.39891335  0.89231386  0.48150895  1
  H+  H10  1  0.60677276  0.93231734  0.45834905  1
  H+  H11  1  0.85958055  0.20469862  1.00001468  1
  H+  H12  1  0.03892158  0.65914401  0.82821992  1
  H+  H13  1  0.38745927  0.61365247  0.50200744  1
  H+  H14  1  0.83706660  0.60851345  0.83720456  1
  H+  H15  1  0.65425540  0.51870393  0.65674794  1
  H+  H16  1  0.35253024  0.86796361  -0.00339792  1
  H+  H17  1  0.11524161  0.37915726  0.33833548  1
  H+  H18  1  0.67343130  0.81741020  0.98230904  1
  H+  H19  1  0.88690557  0.11391936  0.50693522  1
  H+  H20  1  0.61270207  0.77708136  0.83594933  1
  H+  H21  1  0.84830978  0.46684639  0.35055466  1
  H+  H22  1  0.10462826  0.15640689  0.69984467  1
  H+  H23  1  0.63443672  0.89856103  0.36900725  1
  H+  H24  1  0.02275775  0.49465658  0.61043129  1
  H+  H25  1  0.72002921  0.83862926  0.66060243  1
  H+  H26  1  0.64160245  1.02713564  0.52549489  1
  H+  H27  1  0.85572466  0.38332667  0.16791398  1
  H+  H28  1  0.35590724  0.72517369  -0.00161568  1
  H+  H29  1  0.61725934  0.96948932  0.14222926  1
  H+  H30  1  0.11331671  0.01156419  0.83579344  1
  H+  H31  1  0.40146727  1.00280669  0.82312657  1
  H+  H32  1  0.22145310  0.85109842  0.98796994  1
  H+  H33  1  0.37516852  0.51716333  0.65191908  1
  H+  H34  1  0.66006621  0.25900424  0.83945954  1
  H+  H35  1  0.11090749  0.17178462  0.06052249  1
  H+  H36  1  1.00297747  0.63210610  0.67688134  1
  H+  H37  1  0.12248688  0.10984691  0.49141684  1
  H+  H38  1  0.50049066  0.34734793  0.63963032  1
  H+  H39  1  0.86535725  0.77352340  0.51256773  1
  H+  H40  1  0.42717839  0.67625221  0.84077894  1
  H+  H41  1  0.13338475  0.85660283  0.98709498  1
  H+  H42  1  0.67243861  0.30123088  1.00530763  1
  H+  H43  1  0.38369835  0.85026537  0.66000170  1
  H+  H44  1  0.56724181  0.65674211  0.07139800  1
  H+  H45  1  0.83687395  0.15006666  0.73859691  1
  H+  H46  1  0.59267016  0.20917551  0.49915594  1
  H+  H47  1  0.87795639  0.90675432  0.72159232  1
  H+  H48  1  0.75518338  0.39289936  1.00838344  1
  H+  H49  1  0.33715643  0.42262430  0.72344462  1
  H+  H50  1  0.11325185  0.22645868  0.49233037  1
  H+  H51  1  0.22972363  0.96586760  0.41424625  1
  H+  H52  1  0.87514477  0.15011291  0.15481502  1
  H+  H53  1  0.89496314  0.52227394  0.18450330  1
  H+  H54  1  0.22007025  0.81663756  0.48665466  1
  H+  H55  1  0.01272825  0.14228861  0.68106101  1
  H+  H56  1  0.73318119  0.41760279  0.53356486  1
  H+  H57  1  0.86652246  0.00975623  0.95798925  1
  H+  H58  1  0.36811347  0.09408861  0.50723642  1
  H+  H59  1  0.89242017  0.53101786  0.00011753  1
  H+  H60  1  0.84697313  0.72140874  0.15355314  1
  H+  H61  1  0.52043384  0.93027147  0.35096068  1
  H+  H62  1  0.78357121  0.12770395  0.82771620  1
  H+  H63  1  0.73176054  0.13624418  0.66957259  1
  H+  H64  1  0.85411553  0.63986644  0.49860265  1
  H+  H65  1  0.82476727  0.41582661  0.45328474  1
  H+  H66  1  0.28258920  0.12191104  -0.00344472  1
  H+  H67  1  0.55170089  0.20844782  0.02564613  1
  H+  H68  1  0.60689916  0.89614869  -0.01292560  1
  H+  H69  1  0.61798893  0.12669093  0.16373120  1
  H+  H70  1  0.84290320  0.74208415  0.66861525  1
  H+  H71  1  0.39693217  0.87195502  0.83430644  1
  H+  H72  1  0.15421803  0.14229753  0.31802943  1
  H+  H73  1  0.38963791  0.97785112  0.48385617  1
  H+  H74  1  -0.04698770  0.86143172  0.51159445  1
  H+  H75  1  0.22803786  0.35976326  0.32570163  1
  H+  H76  1  0.34302382  0.70475968  0.67508730  1
  H+  H77  1  0.77552009  0.13934514  0.50082554  1
  H+  H78  1  0.12961248  0.59815708  0.50187794  1
  H+  H79  1  0.15701841  0.11103661  0.99394759  1
  H+  H80  1  0.40721125  0.26977865  0.18413792  1
  H+  H81  1  0.13107688  0.50339181  0.33233796  1
  H+  H82  1  0.46342854  0.10237917  0.51407480  1
  H+  H83  1  0.41151304  0.57811823  0.27005680  1
  H+  H84  1  0.94963447  0.07880438  0.87265380  1
  H+  H85  1  0.96855510  0.61656545  0.50907463  1
  H+  H86  1  0.15518462  0.36794912  0.83660009  1
  H+  H87  1  0.76254725  0.12939404  0.00512202  1
  H+  H88  1  0.63123417  0.84391146  0.66289962  1
  H+  H89  1  0.14652826  0.56231879  0.56198374  1
  H+  H90  1  0.88410992  1.02397595  0.50023221  1
  H+  H91  1  0.08466432  -0.03571166  0.48310977  1
  H+  H92  1  0.85731843  0.85656858  0.81607718  1
  H+  H93  1  0.50949347  0.62382590  0.82062788  1
  H+  H94  1  0.63411614  0.62429119  0.50839196  1
  H+  H95  1  0.41273694  0.32740307  0.91939855  1
  H+  H96  1  0.87928977  0.85810422  0.32336386  1
  H+  H97  1  0.63674593  0.26690072  0.17138691  1
  H+  H98  1  0.63223954  0.53231396  0.99390102  1
  H+  H99  1  0.18514278  0.10785124  0.82553267  1
  H+  H100  1  0.85294924  0.71586640  0.34281799  1
  H+  H101  1  0.14343985  0.22870497  0.00020507  1
  H+  H102  1  0.39044423  0.22245500  0.34394859  1
  H+  H103  1  0.75805695  0.63408811  0.15299383  1
  H+  H104  1  0.35758037  0.47722186  0.49202501  1
  H+  H105  1  0.48284836  0.37081937  0.34085382  1
  H+  H106  1  0.61924890  0.42281970  0.49064302  1
  H+  H107  1  0.84853272  0.63766494  0.00457197  1
  H+  H108  1  0.22391876  0.35764548  0.50771163  1
  H+  H109  1  0.17952585  0.80642939  0.83029631  1
  H+  H110  1  0.28456291  0.40139384  -0.00449697  1
  H+  H111  1  0.85777121  0.42735284  0.08062648  1
  H+  H112  1  0.23456854  0.96570592  0.44806664  1
  H+  H113  1  0.60499684  0.70396455  0.67308508  1
  H+  H114  1  0.28760118  0.14787619  0.68563746  1
  H+  H115  1  0.36236930  0.53831983  0.16687915  1
  H+  H116  1  0.50678924  0.37470299  0.83666280  1
  H+  H117  1  0.66100642  0.03625377  0.34064955  1
  H+  H118  1  0.39100111  0.62303777  0.99164994  1
  H+  H119  1  0.01239798  0.63634734  -0.01124148  1
  H+  H120  1  0.85976830  0.12654693  0.67345965  1
  H+  H121  1  0.64913132  0.16440070  0.83001380  1
  H+  H122  1  0.71203936  0.84218299  0.12594694  1
  H+  H123  1  0.53348219  0.38841949  0.00029866  1
  H+  H124  1  0.11999742  0.13374349  0.15924848  1
  H+  H125  1  0.20379770  0.87669090  0.26812325  1
  H+  H126  1  0.91292288  0.54580647  0.83674084  1
  H+  H127  1  -0.02212345  0.85541641  -0.01865359  1
  H+  H128  1  0.62857798  0.51912025  0.17372853  1
  H+  H129  1  0.87642079  0.20818509  0.82685308  1
  H+  H130  1  0.61790150  0.88561521  0.51462431  1
  H+  H131  1  0.29178439  0.15130408  0.33478125  1
  H+  H132  1  0.60187581  0.12510076  0.35181381  1
  H+  H133  1  0.40588035  0.81609743  0.59999079  1
  H+  H134  1  0.74237364  0.11063586  0.16504746  1
  H+  H135  1  0.38786040  0.77771135  0.83108072  1
  H+  H136  1  0.77575359  0.86708986  0.80319829  1
  H+  H137  1  0.10740537  0.70616839  0.48374501  1
  H+  H138  1  0.14319479  0.27509995  0.84043140  1
  H+  H139  1  0.38966228  0.01361525  0.16491379  1
  H+  H140  1  0.55953476  0.28194097  0.53593532  1
  H+  H141  1  0.18853906  0.33719429  0.92169329  1
  H+  H142  1  0.64106725  0.03182837  0.83237782  1
  H+  H143  1  0.09772587  0.76043114  0.21236328  1
  H+  H144  1  0.60867730  0.63384090  1.00702004  1
  H+  H145  1  0.88779750  0.86358719  0.17235181  1
  H+  H146  1  0.52918918  0.89435139  0.82071639  1
  H+  H147  1  0.38554591  0.39030903  0.81713426  1
  H+  H148  1  0.40484933  0.27681299  0.64663319  1
  H+  H149  1  0.62752272  0.40158645  0.00610849  1
  H+  H150  1  0.34661226  0.75195726  0.31728785  1
  H+  H151  1  0.99409073  0.13307728  0.16822326  1
  H+  H152  1  0.28482466  0.87260730  0.15400895  1
  H+  H153  1  0.51828180  0.86020528  0.66730886  1
  H+  H154  1  0.73429363  0.44458232  0.69327564  1
  H+  H155  1  0.78277226  0.14866789  0.34461496  1
  H+  H156  1  0.02420042  0.13591857  0.33664464  1
  H+  H157  1  0.37699319  0.10560093  0.65818234  1
  H+  H158  1  0.32376068  0.14655102  0.83080207  1
  H+  H159  1  0.61491997  0.38515533  0.15566657  1
  H+  H160  1  0.02259806  0.38036729  0.49345137  1
  H+  H161  1  0.41379813  0.15204231  0.82577083  1
  H+  H162  1  0.83019217  0.05390727  1.00316041  1
  H+  H163  1  0.87766701  0.27689301  0.33562714  1
  H+  H164  1  -0.00059950  0.60280795  0.34756379  1
  H+  H165  1  0.12370098  0.58939881  0.33119863  1
  H+  H166  1  0.47622828  0.37787067  0.48958635  1
  H+  H167  1  0.41480282  0.07381367  0.26193622  1
  H+  H168  1  0.75328477  0.33568052  0.71611986  1
  H+  H169  1  0.12441613  0.35305082  0.17317852  1
  H+  H170  1  0.57223293  0.33778831  0.30661759  1
  H+  H171  1  0.63416253  0.85447620  0.14728194  1
  H+  H172  1  0.30324342  0.40046230  0.82162203  1
  H+  H173  1  0.60155832  0.48322480  0.45073505  1
  H+  H174  1  0.52170221  0.25530916  0.55623520  1
  H+  H175  1  0.12851662  0.51972901  -0.00462383  1
  H+  H176  1  0.51881556  0.63182448  0.34125161  1
  H+  H177  1  0.11636097  0.89232506  0.81580052  1
  H+  H178  1  0.11880452  0.59181615  0.83906583  1
  H+  H179  1  0.96507755  0.36071948  0.18781240  1
  H+  H180  1  0.63288179  0.11970276  -0.01051387  1
  H+  H181  1  0.92252401  0.09545266  0.26325961  1
  H+  H182  1  0.61910779  0.60224651  0.17407591  1
  H+  H183  1  0.89254233  0.34833876  0.99039664  1
  H+  H184  1  -0.13089769  0.85036350  0.60356665  1
  H+  H185  1  0.82670947  0.94416634  1.06196650  1
  H+  H186  1  0.90539962  0.04756370  0.16406789  1
  H+  H187  1  0.00446304  0.85892649  0.33820278  1
  H+  H188  1  0.26975301  0.63091505  0.49450511  1
  H+  H189  1  0.01282698  0.37472826  0.69114402  1
  H+  H190  1  0.86926382  0.59703525  0.33856313  1
  H+  H191  1  0.52403561  0.14178761  0.84288697  1
  H+  H192  1  0.76728816  0.88196734  0.32805633  1
  H+  H193  1  0.90414803  0.56406128  0.28160383  1
  H+  H194  1  0.25917996  0.61975678  0.34072931  1
  H+  H195  1  0.08672859  0.48907418  0.65604733  1
  H+  H196  1  0.66379660  0.20587949  0.67923101  1
  H+  H197  1  0.50175204  0.63667381  0.15468507  1
  H+  H198  1  0.62104367  0.42335033  0.76822837  1
  H+  H199  1  0.62049486  0.83229869  0.28178800  1
  H+  H200  1  0.63379288  0.77031542  0.50965557  1
  H+  H201  1  0.12031474  0.47207694  0.83083191  1
  H+  H202  1  0.73108545  0.62440314  0.50673253  1
  H+  H203  1  -0.09261590  0.01747947  0.65278805  1
  H+  H204  1  0.52759003  0.88032796  0.14780424  1
  H+  H205  1  0.38293758  0.51968200  0.33039827  1
  H+  H206  1  0.11946154  0.96858897  0.00095196  1
  H+  H207  1  0.42128808  0.28456885  0.83119576  1
  H+  H208  1  -0.03500428  0.84616397  0.16917311  1
  H+  H209  1  0.21399522  0.06416891  0.17196819  1
  H+  H210  1  0.88408198  0.77282478  -0.01397841  1
  H+  H211  1  0.11219782  0.73175647  -0.01265579  1
  H+  H212  1  0.63153551  0.48170096  0.82692928  1
  H+  H213  1  0.89256751  0.36903749  0.51443613  1
  H+  H214  1  0.50996518  0.11938014  0.34316204  1
  H+  H215  1  0.35384616  0.62888237  0.34046224  1
  H+  H216  1  0.87977351  0.35214949  0.69246131  1
  H+  H217  1  0.59805472  0.71784115  0.14819262  1
  H+  H218  1  0.16694647  0.07179095  0.22938261  1
  H+  H219  1  0.35941241  0.38801523  0.34910870  1
  H+  H220  1  0.87326741  0.54476895  0.66268412  1
  H+  H221  1  0.96001202  0.62338669  0.19221745  1
  H+  H222  1  0.75648260  0.63026771  0.83407771  1
  H+  H223  1  0.10628550  0.63175462  0.99413147  1
  H+  H224  1  0.48592123  0.36271459  0.17960318  1
  H+  H225  1  0.02110739  0.13793619  0.49013278  1
  H+  H226  1  0.72045508  0.62319540  0.99396207  1
  H+  H227  1  0.88433010  0.98294044  0.85678545  1
  H+  H228  1  0.12771693  0.22788221  0.15896855  1
  H+  H229  1  0.37333886  0.40465759  1.00473405  1
  H+  H230  1  0.26572615  0.39220262  0.67136177  1
  H+  H231  1  0.86175556  0.71713359  0.83479633  1
  H+  H232  1  0.10383231  0.82942756  0.33822452  1
  H+  H233  1  0.47929521  0.85230808  0.51247537  1
  H+  H234  1  0.76354830  0.88672989  0.49007569  1
  H+  H235  1  0.51477622  0.63749964  1.00314658  1
  H+  H236  1  0.15106409  0.36104701  0.97941737  1
  H+  H237  1  0.32444101  0.66051300  0.43270599  1
  H+  H238  1  0.19995625  0.81318282  0.45586414  1
  H+  H239  1  0.34683061  0.86937378  0.32858117  1
  H+  H240  1  0.76975166  0.64564996  0.66456293  1
  H+  H241  1  0.88336070  0.26530846  0.68222635  1
  H+  H242  1  0.07168802  0.83729813  0.14886919  1
  H+  H243  1  0.61930113  0.89813695  0.81603821  1
  H+  H244  1  0.08725340  0.92595333  0.64800625  1
  H+  H245  1  0.39881443  0.06788863  0.58938192  1
  H+  H246  1  0.12518792  0.74305448  0.68286673  1
  H+  H247  1  0.38365165  0.10286801  0.32248902  1
  H+  H248  1  0.13348483  0.35475329  0.50626522  1
  H+  H249  1  0.09853490  0.93743538  0.15849892  1
  H+  H250  1  0.46631766  0.85572713  0.98379823  1
  H+  H251  1  0.13935166  0.05665965  0.67508516  1
  H+  H252  1  0.62291984  1.02571064  -0.01206996  1
  H+  H253  1  0.34726346  0.61993423  0.67539171  1
  H+  H254  1  0.63348281  0.60361164  0.33073057  1
  H+  H255  1  0.67604017  0.39143326  0.84621420  1
  H+  H256  1  0.08086459  0.13161219  0.84018860  1
  H+  H257  1  0.50481788  0.88413421  0.35904524  1
  H+  H258  1  0.08115690  0.88215032  0.50945980  1
  H+  H259  1  0.38667128  0.76571406  0.50319517  1
  H+  H260  1  0.61407489  0.59140654  0.83441900  1
  H+  H261  1  0.29378415  0.17929079  0.14032275  1
  H+  H262  1  0.11456685  0.46588099  0.49072102  1
  H+  H263  1  0.63456122  0.11046823  0.51320465  1
  H+  H264  1  0.35405215  0.95750991  -0.00157092  1
  H+  H265  1  0.88479050  0.03046183  0.31991115  1
  H+  H266  1  0.08457058  0.40470148  0.39924314  1
  H+  H267  1  0.76864739  0.38573991  0.15917813  1
  H+  H268  1  0.27989434  0.64095047  0.82825157  1
  H+  H269  1  0.47566072  0.53011356  0.79649021  1
  H+  H270  1  0.26049453  0.40919072  0.15165356  1
  H+  H271  1  0.41347076  0.58212416  0.56266727  1
  H+  H272  1  0.94366612  0.46524164  0.04306668  1
  H+  H273  1  0.87781565  0.27161768  0.17863544  1
  H+  H274  1  0.36745560  0.97357624  0.33223796  1
  H+  H275  1  0.27292101  0.87633874  0.68488767  1
  H+  H276  1  0.40390805  0.76264856  0.17140610  1
  H+  H277  1  0.89241389  0.28067413  0.51218540  1
  H+  H278  1  0.62555971  0.59271067  0.65561711  1
  H+  H279  1  0.10974034  0.47306464  0.17623303  1
  H+  H280  1  -0.00846824  0.35879413  0.83811553  1
  H+  H281  1  0.72872729  0.96416743  0.38504633  1
  H+  H282  1  0.52759645  0.12461979  0.16259496  1
  H+  H283  1  0.32358877  0.28923465  0.95135409  1
  H+  H284  1  0.39518041  0.53652451  -0.01496512  1
  H+  H285  1  0.35447813  0.65453746  0.23379941  1
  H+  H286  1  0.37150731  0.00783166  0.65776076  1
  H+  H287  1  0.33182227  0.14735918  0.43452499  1
  H+  H288  1  0.81944792  0.91345668  0.39268975  1
  H+  H289  1  0.89366788  0.33243004  0.27212541  1
  H+  H290  1  0.38961496  0.81646754  0.25968966  1
  H+  H291  1  0.39362093  0.84610819  0.16003174  1
  H+  H292  1  0.33357001  0.90130761  0.09080883  1
  H+  H293  1  0.90488873  0.82262605  0.26506409  1
  H+  H294  1  0.65705331  0.33226906  0.22623309  1
  H+  H295  1  0.96908373  0.83793838  0.83184232  1
  H+  H296  1  0.58249098  0.90724676  0.72184564  1
  H+  H297  1  0.87217354  0.14952594  0.33995957  1
  H+  H298  1  0.85902295  0.36675818  0.33957216  1
  H+  H299  1  0.05146797  0.16866162  0.78582478  1
  H+  H300  1  0.67405472  0.11864787  0.61168523  1
  H+  H301  1  0.16754611  0.56579446  0.24317323  1
  H+  H302  1  0.30478095  0.92355813  0.82794471  1
  H+  H303  1  0.61014114  0.71561416  0.33362420  1
  H+  H304  1  0.89768092  0.34689549  0.83103934  1
  H+  H305  1  0.89564733  0.56835711  0.93364269  1
  H+  H306  1  0.73764714  0.91784071  0.97275560  1
  H+  H307  1  0.69280079  0.03668880  0.21275945  1
  H+  H308  1  0.67484628  0.81227950  0.23873964  1
  H+  H309  1  0.32771595  0.41784181  0.40767252  1
  H+  H310  1  0.08258168  0.16513883  0.39715829  1
  H+  H311  1  0.01007011  0.93531474  0.67821808  1
  H+  H312  1  0.66980206  0.08610205  0.89451643  1
  H+  H313  1  0.06355592  0.63655486  0.43201577  1
  H+  H314  1  0.61937187  0.31723919  0.67691485  1
  H+  H315  1  0.36373492  0.92365001  0.39897236  1
  H+  H316  1  0.57419845  0.91346180  0.04998289  1
  H+  H317  1  0.66457675  0.57896353  0.27085299  1
  H+  H318  1  0.15683969  0.32926994  0.60212307  1
  H+  H319  1  0.92197216  0.07910653  0.59630253  1
  H+  H320  1  0.58304214  0.41859018  0.09960106  1
  H+  H321  1  0.22887453  0.19894988  0.27350179  1
  H+  H322  1  0.66290990  0.08889044  0.28110611  1
  H+  H323  1  0.62134817  0.25643404  0.35218404  1
  H+  H324  1  0.09077102  0.38893109  0.04993044  1
  H+  H325  1  0.66641720  0.82271040  0.57205564  1
  H+  H326  1  0.18486106  0.14297475  0.63485810  1
  H+  H327  1  0.09242487  0.71987577  0.14837499  1
  H+  H328  1  0.16000479  0.57994925  0.89950238  1
  H+  H329  1  0.91564387  0.81569694  0.89628544  1
  H+  H330  1  0.66452121  0.40344239  0.58451428  1
  H+  H331  1  0.34789184  0.92639952  0.73338532  1
  H+  H332  1  0.05851537  0.88282098  0.39984339  1
  H+  H333  1  0.07947007  0.90165803  0.05698886  1
  H+  H334  1  0.65569791  0.58839625  0.89963336  1
  H+  H335  1  0.63711426  0.22803897  0.74338996  1
  H+  H336  1  0.92065697  0.32116729  0.92857199  1
  H+  H337  1  0.76349524  0.62727877  0.34374778  1
  H+  H338  1  0.17095948  0.07355176  0.93220605  1
  H+  H339  1  0.32440537  0.44711942  0.09302609  1
  H+  H340  1  0.85062327  0.88655561  0.48684720  1
  H+  H341  1  0.47334951  0.08459239  0.99661781  1
  H+  H342  1  0.12379617  0.27774501  0.66570710  1
  H+  H343  1  0.10680935  0.38469165  0.67652574  1
  H+  H344  1  0.32854702  0.66808310  0.05896717  1
  H+  H345  1  0.33012825  0.66230832  0.76431751  1
  H+  H346  1  0.42503800  0.34477949  0.55205667  1
  H+  H347  1  0.14389841  0.85500476  0.61592395  1
  H+  H348  1  0.16832361  0.33256790  0.22878672  1
  H+  H349  1  0.09046717  0.41369977  0.77057565  1
  H+  H350  1  0.34215131  0.16134609  0.08802682  1
  H+  H351  1  0.36438503  0.39056402  0.49122972  1
  H+  H352  1  0.91226468  0.59818394  0.57010301  1
  H+  H353  1  0.21641873  0.61098388  0.99567109  1
  H+  H354  1  0.19423981  0.94084433  0.57907389  1
  H+  H355  1  0.67391714  0.84673107  0.88202604  1
  H+  H356  1  0.88613497  0.63975610  0.65934540  1
  H+  H357  1  0.81799192  0.66853722  0.06380377  1
  H+  H358  1  0.05136298  0.42840117  0.11902969  1
  H+  H359  1  0.45469470  0.32814153  0.27306362  1
  H+  H360  1  0.17918656  0.84784879  0.89324544  1
  H+  H361  1  0.45267095  0.09540308  0.89695457  1
  H+  H362  1  0.82205405  0.66545712  0.43736369  1
  H+  H363  1  0.56060588  0.62895787  0.72449994  1
  H+  H364  1  0.39330883  0.09950412  -0.01165889  1
  H+  H365  1  0.14029078  0.06421573  0.54680498  1
  H+  H366  1  0.51945422  0.63430719  0.49559101  1
  H+  H367  1  0.08906365  0.69160711  0.34579409  1
  H+  H368  1  0.70864799  0.37032158  0.90808371  1
  H+  H369  1  0.81377891  0.47661458  0.85659762  1
  H+  H370  1  0.83389576  0.16916246  0.09595991  1
  H+  H371  1  0.66393179  0.58237594  0.57007293  1
  H+  H372  1  0.07429921  0.60456463  0.67159960  1
  H+  H373  1  0.59453710  0.17750615  0.07468401  1
  H+  H374  1  0.36508155  0.17455754  0.73203449  1
  H+  H375  1  0.40829912  0.82429675  0.92371655  1
  H+  H376  1  0.56358035  0.14848085  0.44141984  1
  H+  H377  1  0.75923110  0.37366630  0.35921332  1
  H+  H378  1  0.46195781  0.65213871  0.89934650  1
  H+  H379  1  0.03697967  0.61459736  0.76644473  1
  H+  H380  1  0.13916247  0.26963997  0.32372800  1
  H+  H381  1  0.58144424  0.66548978  0.43645781  1
  H+  H382  1  0.83633356  0.17083207  0.44150553  1
  H+  H383  1  0.07708837  0.92044732  0.75950636  1
  O2-  O384  1  0.09521481  0.16768644  0.14285349  1
  O2-  O385  1  0.08159704  0.16655543  0.47423161  1
  O2-  O386  1  0.05846547  0.17039928  0.83088831  1
  O2-  O387  1  0.06632524  0.41309936  0.15781723  1
  O2-  O388  1  0.08375267  0.40468558  0.47773926  1
  O2-  O389  1  0.09206837  0.41127647  0.81677440  1
  O2-  O390  1  0.06328004  0.74158881  0.17392390  1
  O2-  O391  1  0.06888670  0.64462777  0.47825242  1
  O2-  O392  1  0.02612936  0.60361393  0.81190864  1
  O2-  O393  1  0.06259956  0.88492541  0.13456914  1
  O2-  O394  1  0.05215284  0.90022999  0.47994034  1
  O2-  O395  1  0.07531423  0.91164865  0.80435842  1
  O2-  O396  1  0.33660415  0.16181148  0.13369023  1
  O2-  O397  1  0.32287716  0.13610578  0.47885518  1
  O2-  O398  1  0.37865277  0.17831792  0.80983220  1
  O2-  O399  1  0.31508408  0.45785131  0.13574323  1
  O2-  O400  1  0.32688256  0.41675472  0.47693457  1
  O2-  O401  1  0.36128275  0.42633275  0.80347368  1
  O2-  O402  1  0.35643857  0.64555412  0.18958344  1
  O2-  O403  1  0.32962396  0.66254506  0.47796618  1
  O2-  O404  1  0.33772563  0.67496751  0.81037839  1
  O2-  O405  1  0.34228298  0.90425774  0.13636876  1
  O2-  O406  1  0.39909648  0.93955180  0.45661030  1
  O2-  O407  1  0.36173278  0.94239911  0.80961194  1
  O2-  O408  1  0.58896593  0.15745484  0.14903386  1
  O2-  O409  1  0.56497135  0.14882493  0.48722033  1
  O2-  O410  1  0.62313313  0.20169441  0.82120943  1
  O2-  O411  1  0.58375586  0.41619714  0.14459237  1
  O2-  O412  1  0.57979166  0.42247277  0.45817604  1
  O2-  O413  1  0.60981048  0.42131633  0.81397372  1
  O2-  O414  1  0.56023159  0.65557385  0.13735588  1
  O2-  O415  1  0.58210339  0.66539981  0.48196166  1
  O2-  O416  1  0.52854342  0.58670148  0.79845992  1
  O2-  O417  1  0.58547047  0.90950716  0.12724659  1
  O2-  O418  1  0.58947657  0.91912085  0.50115548  1
  O2-  O419  1  0.58846470  0.92909419  0.80426530  1
  O2-  O420  1  0.83679574  0.17306367  0.14177147  1
  O2-  O421  1  0.83648508  0.16692905  0.48643195  1
  O2-  O422  1  0.84281862  0.14849755  0.81267642  1
  O2-  O423  1  0.83103676  0.41622947  0.14780674  1
  O2-  O424  1  0.83017314  0.42081521  0.49791771  1
  O2-  O425  1  0.79654324  0.44863909  0.68184217  1
  O2-  O426  1  0.81589666  0.66419816  0.13385138  1
  O2-  O427  1  0.82092422  0.66791520  0.48340480  1
  O2-  O428  1  0.81933733  0.65125592  0.82272841  1
  O2-  O429  1  0.85497652  0.93784377  0.14913406  1
  O2-  O430  1  0.82091582  0.91641584  0.46926979  1
  O2-  O431  1  0.83775924  0.89246624  0.79447810  1
  O2-  O432  1  0.15733702  0.05158888  0.18629598  1
  O2-  O433  1  0.14632251  0.07036912  0.50283211  1
  O2-  O434  1  0.14026099  0.07066641  0.85390261  1
  O2-  O435  1  0.16397299  0.33145561  0.18306450  1
  O2-  O436  1  0.16316372  0.32377731  0.52252886  1
  O2-  O437  1  0.18563823  0.33671244  0.84965397  1
  O2-  O438  1  0.17231364  0.56219069  0.19748681  1
  O2-  O439  1  0.16372183  0.57278806  0.51838363  1
  O2-  O440  1  0.16252358  0.57840650  0.85456465  1
  O2-  O441  1  0.17078539  0.81382822  0.26855620  1
  O2-  O442  1  0.13607481  0.89604446  0.58946302  1
  O2-  O443  1  0.18978892  0.86022304  0.84844756  1
  O2-  O444  1  0.41893273  0.07319549  0.18132107  1
  O2-  O445  1  0.40180914  0.06719176  0.52734654  1
  O2-  O446  1  0.46049033  0.10447992  0.85224023  1
  O2-  O447  1  0.43172242  0.32658474  0.20292251  1
  O2-  O448  1  0.41758461  0.35075736  0.50767238  1
  O2-  O449  1  0.44438827  0.34298216  0.84875138  1
  O2-  O450  1  0.40370759  0.59723211  0.19033546  1
  O2-  O451  1  0.41894170  0.58432177  0.51643612  1
  O2-  O452  1  0.48025384  0.68100635  0.85948361  1
  O2-  O453  1  0.43014275  0.82505852  0.17874351  1
  O2-  O454  1  0.41650075  0.82509418  0.52088697  1
  O2-  O455  1  0.42127041  0.83667048  0.84991679  1
  O2-  O456  1  0.68230908  0.07041039  0.18274071  1
  O2-  O457  1  0.67282906  0.09070525  0.53019046  1
  O2-  O458  1  0.67561801  0.09126422  0.84961391  1
  O2-  O459  1  0.66439772  0.32895167  0.18134092  1
  O2-  O460  1  0.69021336  0.43349682  0.54602425  1
  O2-  O461  1  0.71936839  0.37744972  0.86382425  1
  O2-  O462  1  0.65573361  0.57956966  0.18859420  1
  O2-  O463  1  0.66774164  0.59490648  0.52281100  1
  O2-  O464  1  0.66070670  0.58465532  0.85469211  1
  O2-  O465  1  0.66488621  0.82205580  0.15713099  1
  O2-  O466  1  0.66645102  0.82972999  0.52648782  1
  O2-  O467  1  0.66478419  0.83373846  0.83769944  1
  O2-  O468  1  0.93257507  0.10609618  0.18185526  1
  O2-  O469  1  0.91856099  0.08257661  0.51774992  1
  O2-  O470  1  0.91381981  0.02183580  0.89103945  1
  O2-  O471  1  0.90237463  0.32922146  0.19842403  1
  O2-  O472  1  0.92843398  0.34230262  0.52177685  1
  O2-  O473  1  0.92987435  0.32533482  0.85334986  1
  O2-  O474  1  0.93503710  0.56750733  0.21247502  1
  O2-  O475  1  0.90888220  0.59345450  0.52454358  1
  O2-  O476  1  0.86215921  0.53788547  0.86016497  1
  O2-  O477  1  0.90698890  0.82420677  0.18780611  1
  O2-  O478  1  0.89231665  0.83436990  0.52653785  1
  O2-  O479  1  0.91009697  0.80568349  0.84910908  1
  O2-  O480  1  0.20166510  0.14261258  0.29305348  1
  O2-  O481  1  0.18049767  0.12062375  0.67590185  1
  O2-  O482  1  0.18133088  0.07465420  0.97667262  1
  O2-  O483  1  0.17084537  0.32830861  0.30543554  1
  O2-  O484  1  0.15661964  0.33592479  0.64725443  1
  O2-  O485  1  0.18883832  0.33804905  0.96828330  1
  O2-  O486  1  0.16048820  0.56589320  0.31694258  1
  O2-  O487  1  0.07974104  0.53068535  0.62804755  1
  O2-  O488  1  0.15483139  0.58095153  0.98229318  1
  O2-  O489  1  0.13843695  0.79641456  0.33139196  1
  O2-  O490  1  0.15956487  0.80884731  0.67943154  1
  O2-  O491  1  0.16199828  0.82401993  0.96960551  1
  O2-  O492  1  0.41313282  0.07111120  0.30720010  1
  O2-  O493  1  0.39918533  0.06804705  0.63905911  1
  O2-  O494  1  0.41968855  0.06440553  0.97391826  1
  O2-  O495  1  0.47079993  0.32072978  0.31653444  1
  O2-  O496  1  0.44185959  0.33326247  0.62836252  1
  O2-  O497  1  0.38427688  0.31217486  0.96115320  1
  O2-  O498  1  0.41386962  0.58039319  0.31523806  1
  O2-  O499  1  0.40636835  0.57917672  0.63610331  1
  O2-  O500  1  0.42766465  0.60005014  0.97590837  1
  O2-  O501  1  0.35153222  0.80295923  0.29514408  1
  O2-  O502  1  0.40610817  0.81343017  0.64536523  1
  O2-  O503  1  0.40496583  0.82140955  0.96990738  1
  O2-  O504  1  0.67232030  0.09308598  0.32510765  1
  O2-  O505  1  0.67637269  0.13036931  0.65569621  1
  O2-  O506  1  0.66020930  0.08724143  0.97539983  1
  O2-  O507  1  0.65501953  0.32105486  0.35303992  1
  O2-  O508  1  0.60604911  0.36110383  0.65945768  1
  O2-  O509  1  0.69713082  0.36142672  0.99142269  1
  O2-  O510  1  0.66716915  0.57758240  0.31589418  1
  O2-  O511  1  0.66429363  0.57364261  0.63664218  1
  O2-  O512  1  0.65765525  0.59298421  0.97994121  1
  O2-  O513  1  0.66475920  0.81602757  0.28283190  1
  O2-  O514  1  0.66011742  0.81022506  0.64740007  1
  O2-  O515  1  0.67947706  0.86756842  0.96072321  1
  O2-  O516  1  0.91846844  0.09226103  0.30854247  1
  O2-  O517  1  0.92223285  0.07660414  0.64179232  1
  O2-  O518  1  0.82941920  -0.00079910  0.99531156  1
  O2-  O519  1  0.89347561  0.33515375  0.31812504  1
  O2-  O520  1  0.91580437  0.32910030  0.67731681  1
  O2-  O521  1  0.92106316  0.31772808  0.97449849  1
  O2-  O522  1  0.89540202  0.56103936  0.32730168  1
  O2-  O523  1  0.91389848  0.60475848  0.64748085  1
  O2-  O524  1  0.91355496  0.58568386  0.97707218  1
  O2-  O525  1  0.90356359  0.82200260  0.31073058  1
  O2-  O526  1  0.84341337  0.84292802  0.64540974  1
  O2-  O527  1  0.91944640  0.82754194  0.96362828  1
  O2-  O528  1  0.12011044  0.16985409  0.01632235  1
  O2-  O529  1  0.08469824  0.16510265  0.35148548  1
  O2-  O530  1  0.06574064  0.17967551  0.70556190  1
  O2-  O531  1  0.08521915  0.40851000  0.00967021  1
  O2-  O532  1  0.08559936  0.40901680  0.35393764  1
  O2-  O533  1  0.07776485  0.41275903  0.69785672  1
  O2-  O534  1  0.07636084  0.66718842  0.00156470  1
  O2-  O535  1  0.06115600  0.63038421  0.36032756  1
  O2-  O536  1  0.06060636  0.64438534  0.69509158  1
  O2-  O537  1  0.08704752  0.90607109  0.01175867  1
  O2-  O538  1  0.06310648  0.87934569  0.35513406  1
  O2-  O539  1  0.07169021  0.95098128  0.68286113  1
  O2-  O540  1  0.34492466  0.15379453  0.01079453  1
  O2-  O541  1  0.34644367  0.16176323  0.35361170  1
  O2-  O542  1  0.34966253  0.16605350  0.68800792  1
  O2-  O543  1  0.34414476  0.43736753  0.01362736  1
  O2-  O544  1  0.32875147  0.41788753  0.36014542  1
  O2-  O545  1  0.32826824  0.42467714  0.67924911  1
  O2-  O546  1  0.32473303  0.66383209  0.01467719  1
  O2-  O547  1  0.32171727  0.65832097  0.35256854  1
  O2-  O548  1  0.31648577  0.64725402  0.69426516  1
  O2-  O549  1  0.32193020  0.89751454  0.01428215  1
  O2-  O550  1  0.33932457  0.91559944  0.35318107  1
  O2-  O551  1  0.33567446  0.91681394  0.68862879  1
  O2-  O552  1  0.59320579  0.18879882  0.02965197  1
  O2-  O553  1  0.56598013  0.14969297  0.36552987  1
  O2-  O554  1  0.65763273  0.25227669  0.70214308  1
  O2-  O555  1  0.59012446  0.42568033  0.01787534  1
  O2-  O556  1  0.63125180  0.34805870  0.29693489  1
  O2-  O557  1  0.65561329  0.43829920  0.69771599  1
  O2-  O558  1  0.57531638  0.66321958  0.02347745  1
  O2-  O559  1  0.57916459  0.66183326  0.35695682  1
  O2-  O560  1  0.57190481  0.64065384  0.68014874  1
  O2-  O561  1  0.57030393  0.91816880  0.00489266  1
  O2-  O562  1  0.67135219  0.95771961  0.38223132  1
  O2-  O563  1  0.57986615  0.88984960  0.67884230  1
  O2-  O564  1  0.82184919  0.14928592  0.02072902  1
  O2-  O565  1  0.84330044  0.17923548  0.35872881  1
  O2-  O566  1  0.83341311  0.15701282  0.69313492  1
  O2-  O567  1  0.88172576  0.43836655  0.03659568  1
  O2-  O568  1  0.82319158  0.40517239  0.36662892  1
  O2-  O569  1  0.80881766  0.39162966  0.72393858  1
  O2-  O570  1  0.81829276  0.66839341  0.01666226  1
  O2-  O571  1  0.82388742  0.65778505  0.36161475  1
  O2-  O572  1  0.82937506  0.68346408  0.67905949  1
  O2-  O573  1  0.80866570  0.89621290  0.09252026  1
  O2-  O574  1  0.82259657  0.92252646  0.34721599  1
  O2-  O575  1  0.90620351  0.91888373  0.67982942  1
