# generated using pymatgen
data_H2O
_symmetry_space_group_name_H-M   'P 1'
_cell_length_a   18.00178913
_cell_length_b   18.00083288
_cell_length_c   22.00835375
_cell_angle_alpha   90.01850785
_cell_angle_beta   89.97895807
_cell_angle_gamma   119.99837413
_symmetry_Int_Tables_number   1
_chemical_formula_structural   H2O
_chemical_formula_sum   'H384 O192'
_cell_volume   6176.37334306
_cell_formula_units_Z   192
loop_
 _symmetry_equiv_pos_site_id
 _symmetry_equiv_pos_as_xyz
  1  'x, y, z'
loop_
 _atom_type_symbol
 _atom_type_oxidation_number
  H+  1.0
  O2-  -2.0
loop_
 _atom_site_type_symbol
 _atom_site_label
 _atom_site_symmetry_multiplicity
 _atom_site_fract_x
 _atom_site_fract_y
 _atom_site_fract_z
 _atom_site_occupancy
  H+  H0  1  0.27451304  0.38166535  0.80867462  1
  H+  H1  1  0.10209278  0.88674123  0.00306154  1
  H+  H2  1  0.76395753  0.85837619  0.81684983  1
  H+  H3  1  0.38580123  0.28571654  0.52150473  1
  H+  H4  1  0.54115661  0.41160423  0.82649006  1
  H+  H5  1  0.47673762  0.11241283  -0.00274359  1
  H+  H6  1  0.87941851  0.11362908  0.98452364  1
  H+  H7  1  0.23193984  0.62246616  0.99057295  1
  H+  H8  1  0.52186275  0.89440579  0.34004355  1
  H+  H9  1  0.97496079  0.34318387  0.33665524  1
  H+  H10  1  0.60676618  0.99368173  0.83015398  1
  H+  H11  1  0.14441613  0.27311051  0.50220397  1
  H+  H12  1  0.64855896  0.36679232  0.50335617  1
  H+  H13  1  0.86375589  0.73020163  0.00501368  1
  H+  H14  1  0.66873570  0.12179087  0.49881941  1
  H+  H15  1  0.38546576  0.52596629  0.32334825  1
  H+  H16  1  0.11055847  0.38223947  0.49346390  1
  H+  H17  1  0.26176569  0.13345714  0.16863558  1
  H+  H18  1  0.16781722  0.85132966  0.07648876  1
  H+  H19  1  0.64148739  0.75240864  0.17541249  1
  H+  H20  1  0.89137111  0.01658604  0.32855353  1
  H+  H21  1  0.91967174  1.02898664  0.84083505  1
  H+  H22  1  0.08811072  0.47446205  0.82448687  1
  H+  H23  1  0.78153524  0.11941343  0.35166479  1
  H+  H24  1  0.18115612  0.84221147  0.94046966  1
  H+  H25  1  0.15357487  0.55128795  0.15004213  1
  H+  H26  1  0.39494258  0.78887197  0.83925342  1
  H+  H27  1  0.85377849  0.73286144  0.15836735  1
  H+  H28  1  0.22179604  0.10927589  0.51230544  1
  H+  H29  1  0.97878534  0.62775122  0.15956789  1
  H+  H30  1  0.82618239  0.57411051  0.32130177  1
  H+  H31  1  0.63596270  0.75746782  0.82940257  1
  H+  H32  1  0.60515613  0.48190841  0.34681699  1
  H+  H33  1  0.07591559  0.63861305  0.84178742  1
  H+  H34  1  0.25473567  0.14872163  0.34793262  1
  H+  H35  1  0.62867873  0.51465606  0.51738056  1
  H+  H36  1  0.15980130  0.08953052  0.23592922  1
  H+  H37  1  0.17991311  0.61702809  0.83582435  1
  H+  H38  1  0.61685843  0.89735518  0.68046936  1
  H+  H39  1  0.23103093  0.38840580  -0.01098275  1
  H+  H40  1  0.28684932  0.63587794  0.50210906  1
  H+  H41  1  0.88362405  0.37261764  0.01501273  1
  H+  H42  1  0.71483556  0.61400802  0.17398323  1
  H+  H43  1  0.36436090  0.15854252  0.66858759  1
  H+  H44  1  0.13454478  0.27900333  0.17613810  1
  H+  H45  1  0.52768958  0.38572415  0.50433444  1
  H+  H46  1  0.48016429  0.87695572  0.17400687  1
  H+  H47  1  0.87722495  0.13359436  0.50605935  1
  H+  H48  1  0.33978699  0.39238261  0.72627032  1
  H+  H49  1  0.11531099  0.38809761  0.34397812  1
  H+  H50  1  0.36448717  0.10416513  0.17832594  1
  H+  H51  1  -0.00035829  0.65601353  0.83595724  1
  H+  H52  1  0.59761472  0.15898252  0.39882017  1
  H+  H53  1  0.60709065  0.23228903  0.00401411  1
  H+  H54  1  0.07589444  0.92587692  0.05864062  1
  H+  H55  1  0.65449516  0.81672164  0.27108073  1
  H+  H56  1  0.14805664  0.76849755  0.52118029  1
  H+  H57  1  0.60159715  0.62938229  0.15494294  1
  H+  H58  1  0.54951726  0.12221684  0.33636123  1
  H+  H59  1  0.86252307  0.97867969  0.15733797  1
  H+  H60  1  0.26786106  0.39768146  0.15437580  1
  H+  H61  1  0.02153369  0.50242828  0.26384122  1
  H+  H62  1  0.30917724  0.65220708  0.83141009  1
  H+  H63  1  0.14204863  0.85687349  0.67019140  1
  H+  H64  1  0.85412519  0.64505518  0.16143657  1
  H+  H65  1  -0.02566267  0.86909037  0.32021582  1
  H+  H66  1  0.75183206  0.66603985  0.34536326  1
  H+  H67  1  0.37155301  0.39839408  0.81273021  1
  H+  H68  1  0.78660170  0.13215392  0.16404230  1
  H+  H69  1  0.67407774  0.57348818  0.59808084  1
  H+  H70  1  0.37522654  0.29769039  0.97228126  1
  H+  H71  1  0.86999621  0.20909849  0.35155034  1
  H+  H72  1  1.00174680  0.86285055  0.49625186  1
  H+  H73  1  0.38822223  0.11393707  0.00724883  1
  H+  H74  1  0.14397498  0.78260791  0.85303165  1
  H+  H75  1  0.11839200  -0.02642622  0.67682624  1
  H+  H76  1  0.13058517  0.03745591  0.33125024  1
  H+  H77  1  0.84125071  0.34997846  0.34230997  1
  H+  H78  1  0.61935699  0.61153398  0.33008012  1
  H+  H79  1  0.74648422  0.10845845  0.51131235  1
  H+  H80  1  0.27634543  0.89372373  0.49570252  1
  H+  H81  1  0.11322654  0.90066709  0.14369818  1
  H+  H82  1  0.60519352  0.27070689  0.17484743  1
  H+  H83  1  0.36561236  0.73344185  1.00204664  1
  H+  H84  1  0.11119292  0.73870886  0.13429132  1
  H+  H85  1  0.88106798  0.02640009  0.98710187  1
  H+  H86  1  0.40687552  0.30858596  0.83036503  1
  H+  H87  1  0.27595258  0.89716877  0.00556259  1
  H+  H88  1  0.61496529  -0.02375880  0.16568813  1
  H+  H89  1  0.14093915  0.77696339  -0.00485825  1
  H+  H90  1  0.41715697  0.35219046  0.57592524  1
  H+  H91  1  0.85712640  0.23144720  1.01313916  1
  H+  H92  1  0.61687870  0.76899375  0.51536125  1
  H+  H93  1  0.89336451  1.02435421  0.52251441  1
  H+  H94  1  0.46663047  0.35341509  0.17387798  1
  H+  H95  1  0.14933361  0.36400011  0.65551025  1
  H+  H96  1  0.71137097  0.35958881  0.32867167  1
  H+  H97  1  0.86496748  0.52352969  0.84051281  1
  H+  H98  1  0.11228230  0.90448931  0.34964387  1
  H+  H99  1  0.78879258  0.63096631  0.66894314  1
  H+  H100  1  0.39920103  0.23164852  0.03855473  1
  H+  H101  1  0.87178591  0.35402456  0.84629556  1
  H+  H102  1  0.59972605  0.38485408  0.00187266  1
  H+  H103  1  0.02228598  0.89554132  0.15582719  1
  H+  H104  1  0.15112368  0.52208109  0.50880771  1
  H+  H105  1  0.82274950  0.34961858  0.13722004  1
  H+  H106  1  0.11289396  0.63921640  -0.00334533  1
  H+  H107  1  0.82690396  0.15926969  0.06138568  1
  H+  H108  1  0.62529920  0.52438369  0.17212001  1
  H+  H109  1  0.41680172  0.32478022  0.23746945  1
  H+  H110  1  0.61613623  0.73820405  1.00537123  1
  H+  H111  1  0.13941729  0.85335264  0.52049835  1
  H+  H112  1  0.71305946  0.85368071  0.32868337  1
  H+  H113  1  0.34063302  0.92570861  0.06502775  1
  H+  H114  1  0.86187818  0.23042598  0.67137077  1
  H+  H115  1  0.63331098  0.11996124  0.99428830  1
  H+  H116  1  0.61632014  0.23940892  0.49286114  1
  H+  H117  1  0.65030736  0.79268206  0.67027382  1
  H+  H118  1  0.59886894  0.39113568  0.15731564  1
  H+  H119  1  0.46923715  0.88316319  0.84275400  1
  H+  H120  1  0.85131829  0.60943795  0.29886605  1
  H+  H121  1  0.82918000  0.65937254  0.73350735  1
  H+  H122  1  0.13596548  0.10853755  0.66208718  1
  H+  H123  1  0.43498734  0.60222148  0.89653715  1
  H+  H124  1  0.11445591  0.12976580  0.49510358  1
  H+  H125  1  0.69814521  0.35162609  0.17049806  1
  H+  H126  1  0.64812947  0.01209760  0.33394177  1
  H+  H127  1  0.38960580  0.53936181  0.99010804  1
  H+  H128  1  0.82048223  0.50303888  0.51332900  1
  H+  H129  1  0.89222446  0.86415746  0.66056022  1
  H+  H130  1  0.36211980  0.41038020  0.00327455  1
  H+  H131  1  0.47698929  0.86165299  0.99403468  1
  H+  H132  1  0.85742566  0.88072655  0.32522851  1
  H+  H133  1  0.02973555  0.13901684  0.66835743  1
  H+  H134  1  0.60653735  0.90386197  0.83343945  1
  H+  H135  1  0.48309489  0.85969179  0.66694250  1
  H+  H136  1  0.55297248  0.66100004  0.44207614  1
  H+  H137  1  0.59762382  0.47314246  -0.00036712  1
  H+  H138  1  0.61753665  0.90094223  1.01437461  1
  H+  H139  1  0.13909297  0.35720433  0.83200280  1
  H+  H140  1  0.21712383  0.88110837  0.84718911  1
  H+  H141  1  0.88002369  0.35600938  0.49989488  1
  H+  H142  1  0.87815750  0.86291426  0.51343389  1
  H+  H143  1  0.38472048  0.03645660  0.65551629  1
  H+  H144  1  0.47274934  0.12518112  0.65785558  1
  H+  H145  1  0.39327694  0.78619412  0.17165509  1
  H+  H146  1  0.02353228  0.38726629  0.49582598  1
  H+  H147  1  0.48427993  0.86447145  0.51727889  1
  H+  H148  1  0.02966993  0.88483260  0.67335248  1
  H+  H149  1  0.94667919  0.33781556  0.87081758  1
  H+  H150  1  0.65692271  0.10486188  0.33455957  1
  H+  H151  1  0.89472263  0.61087902  0.65968061  1
  H+  H152  1  0.02628971  0.14355168  0.15909084  1
  H+  H153  1  0.12944888  0.63999851  0.51597104  1
  H+  H154  1  0.39428437  0.77005310  0.51854320  1
  H+  H155  1  0.38492607  0.28313383  0.33576889  1
  H+  H156  1  0.77706969  0.38511018  0.67210600  1
  H+  H157  1  0.89067163  0.27253375  0.50925106  1
  H+  H158  1  0.37403218  0.00479780  1.00437333  1
  H+  H159  1  0.57484021  0.13051460  0.15630378  1
  H+  H160  1  0.36983727  0.39584536  0.33939473  1
  H+  H161  1  0.48048268  0.62750180  0.99066960  1
  H+  H162  1  0.33294094  0.13534878  0.35901482  1
  H+  H163  1  0.37219978  0.90078944  0.66758263  1
  H+  H164  1  0.28193759  0.89476766  0.67232348  1
  H+  H165  1  0.82391771  0.39651387  0.39747851  1
  H+  H166  1  0.11610609  0.14791866  0.16300025  1
  H+  H167  1  0.22957061  0.61161346  0.66283916  1
  H+  H168  1  0.97101275  0.61578108  0.98520727  1
  H+  H169  1  0.87264777  0.45055967  0.28882091  1
  H+  H170  1  0.14223496  0.53238042  0.99482420  1
  H+  H171  1  0.57584569  0.14130562  0.51266520  1
  H+  H172  1  0.29504186  0.17746728  0.82406960  1
  H+  H173  1  0.60715630  0.13891277  0.67306758  1
  H+  H174  1  0.39282578  0.76471460  0.66398576  1
  H+  H175  1  0.15618098  0.74602702  0.37196789  1
  H+  H176  1  0.87861255  0.78484897  0.32472585  1
  H+  H177  1  0.39720034  0.65448741  0.82476894  1
  H+  H178  1  0.51203851  0.63289589  0.34260515  1
  H+  H179  1  0.77165840  0.14179696  0.66982389  1
  H+  H180  1  0.25053070  0.13040770  -0.00808914  1
  H+  H181  1  0.88810982  0.12288140  0.66393802  1
  H+  H182  1  0.12281528  0.47534385  0.66700109  1
  H+  H183  1  0.24891834  0.61031672  0.31976524  1
  H+  H184  1  0.35615739  0.48625823  0.15450684  1
  H+  H185  1  0.98226432  0.85939002  0.84624603  1
  H+  H186  1  0.61584690  -0.02135683  0.49621584  1
  H+  H187  1  0.98179740  0.61621490  0.35226819  1
  H+  H188  1  0.47161874  0.37444553  0.98836272  1
  H+  H189  1  0.89716109  0.86376090  0.84795856  1
  H+  H190  1  0.66582218  0.53410404  0.82480678  1
  H+  H191  1  0.97871703  0.36035333  0.17537032  1
  H+  H192  1  0.91279860  0.37833861  0.21014136  1
  H+  H193  1  0.14232715  0.28277419  0.33243989  1
  H+  H194  1  0.49438897  0.62089833  0.83689269  1
  H+  H195  1  0.89302102  0.03525233  0.66424171  1
  H+  H196  1  0.59151980  0.13535736  0.82680772  1
  H+  H197  1  0.39870114  0.79492585  0.32892491  1
  H+  H198  1  0.73418452  0.87517722  -0.00326859  1
  H+  H199  1  0.89034814  0.55371853  0.13703773  1
  H+  H200  1  0.32850634  0.43588803  0.06380352  1
  H+  H201  1  0.97245697  0.37264573  1.01888989  1
  H+  H202  1  0.44163797  0.58720669  0.64856484  1
  H+  H203  1  0.84291448  0.72416686  0.50104007  1
  H+  H204  1  0.14159914  0.14791997  0.83331327  1
  H+  H205  1  0.61643845  0.47312737  0.67213587  1
  H+  H206  1  0.13993687  0.01417690  0.50866489  1
  H+  H207  1  0.46232223  0.74030497  0.38145050  1
  H+  H208  1  0.83330314  0.20919715  0.82891113  1
  H+  H209  1  0.71660560  0.36838457  -0.00959114  1
  H+  H210  1  0.96773084  0.86284857  0.99635490  1
  H+  H211  1  0.23225419  0.88474103  0.35007541  1
  H+  H212  1  0.12094834  0.22245458  0.66230402  1
  H+  H213  1  0.11669362  0.71473420  0.66881191  1
  H+  H214  1  0.16926464  0.14167953  0.98701620  1
  H+  H215  1  0.70541404  0.11548225  0.83530467  1
  H+  H216  1  0.39508393  0.62036584  0.32791434  1
  H+  H217  1  0.60281770  0.87826612  0.34188334  1
  H+  H218  1  0.20052028  0.69024195  0.38019250  1
  H+  H219  1  0.13087486  0.03027767  0.17513199  1
  H+  H220  1  0.60771658  0.39411975  0.34600865  1
  H+  H221  1  0.75670382  0.88331169  0.50707322  1
  H+  H222  1  0.88751983  0.51910630  0.65709903  1
  H+  H223  1  0.24092174  0.57705685  0.34350825  1
  H+  H224  1  0.91209403  0.83074239  0.93561777  1
  H+  H225  1  0.43979667  0.13017115  0.32869219  1
  H+  H226  1  0.67185884  0.61593907  0.66342507  1
  H+  H227  1  0.17290654  0.33339233  0.56078643  1
  H+  H228  1  0.98167600  0.36386679  0.65595125  1
  H+  H229  1  0.14004430  0.25164926  1.00663339  1
  H+  H230  1  -0.02629280  0.63071565  0.38238041  1
  H+  H231  1  0.39120574  0.62700219  0.16851953  1
  H+  H232  1  0.05058528  0.14294328  0.83816279  1
  H+  H233  1  0.54775514  0.56828574  0.65227790  1
  H+  H234  1  0.36258113  0.89900556  0.34393298  1
  H+  H235  1  0.36329673  0.64319622  0.00234547  1
  H+  H236  1  0.59984021  0.72262268  0.34841209  1
  H+  H237  1  0.63791260  0.36144643  0.65475582  1
  H+  H238  1  0.28749877  0.65769815  0.15302031  1
  H+  H239  1  0.47731051  0.36970871  0.33470048  1
  H+  H240  1  0.86891494  0.22431572  0.15827503  1
  H+  H241  1  0.35288735  0.62430094  0.67160939  1
  H+  H242  1  0.23338727  0.35311833  0.65198437  1
  H+  H243  1  0.88408592  0.62152720  -0.00627127  1
  H+  H244  1  0.88821043  0.10277656  0.33307510  1
  H+  H245  1  0.45696893  0.10592373  0.82977459  1
  H+  H246  1  0.11793541  0.40005850  0.00456339  1
  H+  H247  1  1.02854839  0.62732084  0.65705445  1
  H+  H248  1  0.78667481  0.90120680  0.66468395  1
  H+  H249  1  0.36527329  0.88739831  0.15799272  1
  H+  H250  1  0.88874516  0.87058982  0.16433558  1
  H+  H251  1  0.87229306  0.45619701  0.47407225  1
  H+  H252  1  0.35201437  0.14794306  0.50320256  1
  H+  H253  1  0.11679406  0.39118747  0.17112271  1
  H+  H254  1  0.27085567  0.14716576  0.67178143  1
  H+  H255  1  0.62310588  0.61209066  0.98467134  1
  H+  H256  1  0.15822757  0.83099226  0.30329777  1
  H+  H257  1  0.58194733  0.41876931  0.44240286  1
  H+  H258  1  0.23574825  0.05647708  0.84802561  1
  H+  H259  1  0.13063998  0.12702215  0.33025550  1
  H+  H260  1  0.39802973  0.02680398  0.33117227  1
  H+  H261  1  0.36840796  0.29256541  0.66956745  1
  H+  H262  1  0.22935408  0.87074739  0.13235284  1
  H+  H263  1  0.83648612  0.42159766  0.18229055  1
  H+  H264  1  0.63789040  0.36638100  0.83861661  1
  H+  H265  1  0.76879682  0.38289770  0.82731257  1
  H+  H266  1  0.70835810  0.61046827  0.51383881  1
  H+  H267  1  0.85415882  0.48817942  0.00188665  1
  H+  H268  1  0.46121328  0.13086123  0.50440898  1
  H+  H269  1  0.13763567  0.60727364  0.65500462  1
  H+  H270  1  0.08737607  0.45286052  0.20163596  1
  H+  H271  1  0.73809374  0.36152748  0.49685142  1
  H+  H272  1  0.36196250  0.49653267  0.65350990  1
  H+  H273  1  0.85928732  0.88381526  0.00098226  1
  H+  H274  1  0.10883129  -0.02879377  0.82890756  1
  H+  H275  1  0.35867882  0.97415375  0.15883464  1
  H+  H276  1  0.57630677  0.65378933  0.61964173  1
  H+  H277  1  0.02298255  0.14174289  0.34355851  1
  H+  H278  1  0.86667209  0.38639019  0.67342127  1
  H+  H279  1  0.18343071  0.57704456  0.57109754  1
  H+  H280  1  0.83978893  0.91742660  0.72453697  1
  H+  H281  1  0.81456662  0.61400819  0.83330050  1
  H+  H282  1  0.89064935  0.77316955  0.66353625  1
  H+  H283  1  0.23279879  0.37161286  0.32924695  1
  H+  H284  1  0.51668973  0.63796040  0.15493922  1
  H+  H285  1  0.48946622  0.13287436  0.15844860  1
  H+  H286  1  0.72263418  0.12046547  -0.00899110  1
  H+  H287  1  0.27229441  0.40497825  0.48891916  1
  H+  H288  1  0.17564075  0.83115068  0.61140952  1
  H+  H289  1  0.07683715  0.66448932  0.05465054  1
  H+  H290  1  0.37260375  0.69485489  0.41250590  1
  H+  H291  1  0.62523678  0.27168486  0.83798091  1
  H+  H292  1  0.83249436  0.91799997  0.06033585  1
  H+  H293  1  0.57059174  0.42101974  0.09725888  1
  H+  H294  1  0.57786244  0.91548106  0.43840666  1
  H+  H295  1  0.65676787  0.33172844  0.93162839  1
  H+  H296  1  0.65018455  0.34112414  0.27172025  1
  H+  H297  1  0.91881772  0.07977443  0.23102076  1
  H+  H298  1  0.81578293  0.42800337  0.06102803  1
  H+  H299  1  0.44694019  0.56214947  0.50461972  1
  H+  H300  1  0.67484065  0.12528580  0.19479748  1
  H+  H301  1  0.68514619  0.78544210  0.89008572  1
  H+  H302  1  0.83228070  0.63017560  0.49423497  1
  H+  H303  1  0.58192551  0.92670192  0.73804859  1
  H+  H304  1  0.10904923  0.67231533  0.45660095  1
  H+  H305  1  0.91729937  0.83859366  0.22377815  1
  H+  H306  1  0.58309046  0.67279786  0.06135161  1
  H+  H307  1  0.88948548  0.58275286  0.89984409  1
  H+  H308  1  0.69024329  0.07544667  0.24727055  1
  H+  H309  1  0.34396318  0.66853820  0.73293859  1
  H+  H310  1  0.42772659  0.82753545  0.58961669  1
  H+  H311  1  0.81667479  0.93458248  0.45179592  1
  H+  H312  1  0.81076734  0.81595803  0.78501618  1
  H+  H313  1  0.65088042  0.08935909  0.89829960  1
  H+  H314  1  0.61234692  0.98684837  0.00844048  1
  H+  H315  1  0.63450594  0.63593768  0.80587567  1
  H+  H316  1  0.33822646  0.43237303  0.39585022  1
  H+  H317  1  0.72054872  0.77152769  0.21534067  1
  H+  H318  1  0.80622764  0.69288897  0.40693106  1
  H+  H319  1  0.41672125  0.84758794  0.26606996  1
  H+  H320  1  0.80841181  0.15843976  0.76665829  1
  H+  H321  1  0.08165721  0.41792421  0.40212541  1
  H+  H322  1  0.02958066  0.13550842  0.49994643  1
  H+  H323  1  0.08462351  0.48232002  0.30239700  1
  H+  H324  1  0.17186885  0.35168886  0.92972352  1
  H+  H325  1  0.88304303  0.56767365  0.56310365  1
  H+  H326  1  0.11293648  0.19168994  0.06534531  1
  H+  H327  1  0.08212627  0.17077668  0.40393620  1
  H+  H328  1  0.16052356  0.77879704  0.23620193  1
  H+  H329  1  0.61256923  0.22989524  0.67095430  1
  H+  H330  1  0.62507335  0.86191380  0.51391641  1
  H+  H331  1  0.91075936  0.83125153  0.57120588  1
  H+  H332  1  0.33779650  0.93231519  0.40655176  1
  H+  H333  1  0.57239203  0.17394061  0.06425686  1
  H+  H334  1  0.19743307  0.09029886  0.90034219  1
  H+  H335  1  0.91875884  0.33698543  0.59850508  1
  H+  H336  1  0.16594825  0.07345153  0.60637353  1
  H+  H337  1  0.31827188  0.18141119  0.44784553  1
  H+  H338  1  0.15698024  0.58847601  0.21307999  1
  H+  H339  1  0.04588183  0.82474572  0.45528777  1
  H+  H340  1  0.66667772  0.85899202  0.94314404  1
  H+  H341  1  0.15110338  0.58111683  0.90345899  1
  H+  H342  1  0.63272361  1.02716025  0.66299641  1
  H+  H343  1  0.83188544  0.41497298  0.76984107  1
  H+  H344  1  0.57850690  0.92479683  0.10377465  1
  H+  H345  1  0.84356500  0.15539918  0.44443335  1
  H+  H346  1  0.81048927  0.85543882  0.38542554  1
  H+  H347  1  0.41668980  0.59223783  0.22809889  1
  H+  H348  1  0.92832433  0.09134187  0.57794673  1
  H+  H349  1  0.11529124  0.65271306  0.14880498  1
  H+  H350  1  0.43320177  0.37027625  0.88922313  1
  H+  H351  1  0.67291327  0.33493205  0.59620655  1
  H+  H352  1  0.00254135  0.40183637  0.79511858  1
  H+  H353  1  0.34538251  0.68230602  0.09368471  1
  H+  H354  1  0.66299367  0.83804413  0.60582194  1
  H+  H355  1  0.38441907  0.65038566  0.50080957  1
  H+  H356  1  0.65138965  0.58501584  0.26944789  1
  H+  H357  1  0.35602966  0.98893440  0.49408722  1
  H+  H358  1  0.58587264  0.65250447  0.75069323  1
  H+  H359  1  0.59521988  0.42443126  0.76622767  1
  H+  H360  1  0.51949560  0.39554964  0.67852635  1
  H+  H361  1  0.30220118  0.49468703  0.46231112  1
  H+  H362  1  0.93179569  0.08747895  0.89763718  1
  H+  H363  1  0.16842319  0.33918413  0.23596051  1
  H+  H364  1  0.90908526  0.52200034  0.23238598  1
  H+  H365  1  0.40826068  0.07611888  0.23253512  1
  H+  H366  1  0.34497437  0.20390633  0.76165457  1
  H+  H367  1  0.83061035  0.66929673  0.06311424  1
  H+  H368  1  0.67561264  0.59240990  0.93492537  1
  H+  H369  1  0.40953833  0.09808058  0.56792281  1
  H+  H370  1  0.07954697  0.91186540  0.77049811  1
  H+  H371  1  0.09570458  0.42979322  0.06725085  1
  H+  H372  1  0.56728261  0.16713285  0.76586040  1
  H+  H373  1  0.89291984  0.11365604  0.17137235  1
  H+  H374  1  0.06712924  0.92679286  0.40076174  1
  H+  H375  1  0.41711334  0.83463389  0.93430477  1
  H+  H376  1  0.33626252  0.16249641  0.08525444  1
  H+  H377  1  0.20268556  0.82040923  0.23313613  1
  H+  H378  1  0.15127452  0.27577918  0.84255256  1
  H+  H379  1  0.66540583  0.08387943  0.60241538  1
  H+  H380  1  0.91800830  0.30430094  0.27697204  1
  H+  H381  1  0.35823221  0.21945251  0.17210335  1
  H+  H382  1  0.77713920  0.88464309  0.15879230  1
  H+  H383  1  0.08959592  0.41504851  0.72515549  1
  O2-  O384  1  0.08781219  0.17997968  0.14786494  1
  O2-  O385  1  0.08757690  0.16338825  0.48041348  1
  O2-  O386  1  0.11268020  0.18097011  0.82737792  1
  O2-  O387  1  0.08626014  0.42494028  0.16203680  1
  O2-  O388  1  0.08401601  0.41677677  0.47994435  1
  O2-  O389  1  0.06165280  0.41713677  0.80401898  1
  O2-  O390  1  0.07737665  0.67431673  0.13351416  1
  O2-  O391  1  0.10156191  0.67210159  0.50137900  1
  O2-  O392  1  0.06211477  0.68283558  0.82984475  1
  O2-  O393  1  0.08284301  0.93390407  0.14212786  1
  O2-  O394  1  0.05811370  0.87791715  0.47565374  1
  O2-  O395  1  0.07648581  0.91083699  0.81563614  1
  O2-  O396  1  0.32344632  0.15735779  0.15564000  1
  O2-  O397  1  0.31852980  0.17754460  0.49285940  1
  O2-  O398  1  0.35211397  0.21487588  0.80610681  1
  O2-  O399  1  0.32507200  0.42907201  0.13496611  1
  O2-  O400  1  0.32362508  0.45542163  0.46990905  1
  O2-  O401  1  0.33103602  0.40791677  0.78731561  1
  O2-  O402  1  0.34820088  0.68531949  0.13974741  1
  O2-  O403  1  0.34875261  0.67542455  0.48820290  1
  O2-  O404  1  0.36227095  0.68212563  0.80844403  1
  O2-  O405  1  0.33502988  0.91661549  0.13910491  1
  O2-  O406  1  0.33310421  0.93103005  0.47608497  1
  O2-  O407  1  0.33488556  1.02480461  0.81627853  1
  O2-  O408  1  0.55161396  0.16649324  0.14338037  1
  O2-  O409  1  0.57633409  0.17679038  0.47912943  1
  O2-  O410  1  0.56072608  0.16531121  0.81108049  1
  O2-  O411  1  0.57075880  0.42361072  0.14260493  1
  O2-  O412  1  0.58767622  0.41573750  0.48745388  1
  O2-  O413  1  0.60195464  0.43354684  0.81116640  1
  O2-  O414  1  0.57743628  0.66533898  0.13918714  1
  O2-  O415  1  0.55674715  0.66681844  0.48791580  1
  O2-  O416  1  0.59828582  0.66194029  0.79419644  1
  O2-  O417  1  0.57474456  0.91922562  0.14910511  1
  O2-  O418  1  0.57965315  0.91705083  0.48401409  1
  O2-  O419  1  0.58019899  0.93256154  0.81249210  1
  O2-  O420  1  0.84350505  0.16474635  0.14351304  1
  O2-  O421  1  0.84231626  0.15896193  0.48995016  1
  O2-  O422  1  0.79646189  0.15158684  0.81079259  1
  O2-  O423  1  0.80522453  0.39243928  0.14438467  1
  O2-  O424  1  0.82815028  0.39640106  0.46772458  1
  O2-  O425  1  0.83062051  0.41597522  0.81523441  1
  O2-  O426  1  0.81939675  0.67044275  0.14746008  1
  O2-  O427  1  0.80713991  0.66696938  0.48189862  1
  O2-  O428  1  0.78215108  0.63845068  0.81027149  1
  O2-  O429  1  0.83462592  0.91900563  0.14008575  1
  O2-  O430  1  0.81824158  0.91641654  0.49333533  1
  O2-  O431  1  0.81753624  0.87220556  0.79400249  1
  O2-  O432  1  0.16230092  0.09094417  0.19069500  1
  O2-  O433  1  0.15943064  0.07156003  0.52469687  1
  O2-  O434  1  0.19768800  0.08014764  0.85448434  1
  O2-  O435  1  0.16429689  0.34031988  0.19080884  1
  O2-  O436  1  0.17149934  0.33433157  0.51504945  1
  O2-  O437  1  0.17825526  0.34091435  0.85050636  1
  O2-  O438  1  0.17669996  0.60718766  0.17072510  1
  O2-  O439  1  0.18874198  0.58112133  0.52513192  1
  O2-  O440  1  0.13255571  0.57284401  0.85917170  1
  O2-  O441  1  0.16702970  0.84511558  0.12090837  1
  O2-  O442  1  0.17812794  0.83244120  0.53283617  1
  O2-  O443  1  0.19516596  0.83058660  0.87303640  1
  O2-  O444  1  0.39891441  0.07432966  0.18782169  1
  O2-  O445  1  0.40307702  0.09705965  0.52181793  1
  O2-  O446  1  0.40027909  0.07143242  0.85339293  1
  O2-  O447  1  0.41190159  0.31126829  0.19345600  1
  O2-  O448  1  0.42754277  0.34563237  0.53284593  1
  O2-  O449  1  0.44072871  0.37111642  0.84451706  1
  O2-  O450  1  0.41814058  0.59303203  0.18288718  1
  O2-  O451  1  0.46809556  0.62398678  0.51028523  1
  O2-  O452  1  0.43646053  0.60453034  0.85110118  1
  O2-  O453  1  0.41798791  0.84519535  0.18934307  1
  O2-  O454  1  0.42639420  0.82950458  0.53743699  1
  O2-  O455  1  0.41134140  0.84429025  0.85879995  1
  O2-  O456  1  0.69060661  0.08148545  0.20097618  1
  O2-  O457  1  0.68228867  0.08293902  0.52082108  1
  O2-  O458  1  0.64418043  0.08691736  0.85310963  1
  O2-  O459  1  0.64036215  0.33144907  0.18790580  1
  O2-  O460  1  0.67702163  0.33382617  0.51652137  1
  O2-  O461  1  0.66250865  0.33105388  0.85417753  1
  O2-  O462  1  0.65422206  0.58431347  0.18907803  1
  O2-  O463  1  0.65343705  0.57334258  0.53611885  1
  O2-  O464  1  0.69587003  0.59772514  0.83695953  1
  O2-  O465  1  0.68869607  0.79911631  0.20144258  1
  O2-  O466  1  0.65235926  0.82940984  0.53078428  1
  O2-  O467  1  0.66950178  0.80940748  0.85581304  1
  O2-  O468  1  0.91967578  0.07951454  0.18584697  1
  O2-  O469  1  0.92917300  0.08614136  0.53174945  1
  O2-  O470  1  0.94610034  0.08861658  0.85312043  1
  O2-  O471  1  0.91921883  0.33108392  0.19308171  1
  O2-  O472  1  0.91700080  0.33394540  0.52054053  1
  O2-  O473  1  0.88592459  0.31017353  0.86116680  1
  O2-  O474  1  0.91634575  0.59188168  0.17174010  1
  O2-  O475  1  0.86380269  0.56316373  0.51977201  1
  O2-  O476  1  0.88107676  0.58233390  0.85466150  1
  O2-  O477  1  0.91714685  0.83764145  0.17833690  1
  O2-  O478  1  0.90721829  0.83068421  0.52523963  1
  O2-  O479  1  0.92200669  0.83005207  0.86349456  1
  O2-  O480  1  0.16263766  0.09745995  0.31539797  1
  O2-  O481  1  0.16879092  0.07742288  0.65132028  1
  O2-  O482  1  0.19756564  0.11090753  0.96885060  1
  O2-  O483  1  0.17126921  0.34229503  0.31581894  1
  O2-  O484  1  0.17451434  0.33099054  0.63648729  1
  O2-  O485  1  0.16976166  0.35609449  0.97490355  1
  O2-  O486  1  0.07972520  0.50970482  0.26403971  1
  O2-  O487  1  0.17189715  0.57699787  0.64409515  1
  O2-  O488  1  0.17024859  0.59110512  0.97607896  1
  O2-  O489  1  0.16742887  0.84930322  0.34589857  1
  O2-  O490  1  0.17369526  0.82735117  0.65668550  1
  O2-  O491  1  0.17332408  0.84040581  0.98731535  1
  O2-  O492  1  0.43865391  0.08169975  0.30818139  1
  O2-  O493  1  0.41310785  0.09821891  0.64153676  1
  O2-  O494  1  0.41330834  0.08078611  0.98792953  1
  O2-  O495  1  0.41712182  0.34095909  0.31740533  1
  O2-  O496  1  0.40153262  0.35661849  0.66040398  1
  O2-  O497  1  0.41452259  0.35912331  0.96873661  1
  O2-  O498  1  0.41816882  0.58699035  0.30779751  1
  O2-  O499  1  0.37975560  0.55585202  0.64069749  1
  O2-  O500  1  0.42116922  0.59947679  0.97337807  1
  O2-  O501  1  0.41898940  0.85301671  0.31187086  1
  O2-  O502  1  0.42434667  0.82601056  0.64745140  1
  O2-  O503  1  0.41752636  0.82579198  0.97928704  1
  O2-  O504  1  0.68616024  0.07218095  0.31907489  1
  O2-  O505  1  0.66297860  0.08729127  0.64727103  1
  O2-  O506  1  0.66108662  0.08870361  0.97715271  1
  O2-  O507  1  0.65224327  0.34398376  0.31649972  1
  O2-  O508  1  0.67061094  0.33331805  0.64176291  1
  O2-  O509  1  0.65514746  0.33362262  0.97724929  1
  O2-  O510  1  0.65362445  0.58588190  0.31484062  1
  O2-  O511  1  0.68567809  0.57429277  0.64617586  1
  O2-  O512  1  0.63451187  0.56737325  0.96815983  1
  O2-  O513  1  0.65165602  0.82476906  0.31588082  1
  O2-  O514  1  0.67435543  0.84869201  0.65087084  1
  O2-  O515  1  0.66969278  0.84745949  0.98611052  1
  O2-  O516  1  0.92022088  0.07593788  0.31355218  1
  O2-  O517  1  0.92139372  0.09533669  0.64885307  1
  O2-  O518  1  0.91103109  0.08512747  0.97031228  1
  O2-  O519  1  0.91459817  0.30489920  0.32171922  1
  O2-  O520  1  0.91998608  0.33610638  0.64421183  1
  O2-  O521  1  0.91024167  0.33844269  1.02734017  1
  O2-  O522  1  0.90392087  0.46788096  0.24837467  1
  O2-  O523  1  0.91544408  0.57679240  0.63726903  1
  O2-  O524  1  0.90873645  0.58589050  0.97531065  1
  O2-  O525  1  0.91665798  0.83928320  0.30087277  1
  O2-  O526  1  0.92018309  0.83191373  0.64519798  1
  O2-  O527  1  0.90603494  0.83236292  0.98145575  1
  O2-  O528  1  0.13179205  0.19680037  0.02276007  1
  O2-  O529  1  0.08336279  0.17618013  0.35840729  1
  O2-  O530  1  0.09154217  0.16221269  0.67639492  1
  O2-  O531  1  0.08967843  0.43156878  0.02311672  1
  O2-  O532  1  0.07735145  0.41138402  0.35670394  1
  O2-  O533  1  0.09261850  0.41326538  0.68020500  1
  O2-  O534  1  0.08046371  0.66852704  0.00950426  1
  O2-  O535  1  0.14525551  0.68764711  0.38132584  1
  O2-  O536  1  0.08725588  0.65130934  0.67367050  1
  O2-  O537  1  0.06625199  0.91146953  0.01503660  1
  O2-  O538  1  0.07657464  0.93223940  0.35620155  1
  O2-  O539  1  0.08838222  0.91213765  0.69055793  1
  O2-  O540  1  0.35239829  0.17253730  0.04005010  1
  O2-  O541  1  0.31410954  0.17642844  0.36731579  1
  O2-  O542  1  0.33280133  0.18798879  0.68225984  1
  O2-  O543  1  0.33163425  0.44029891  0.01731226  1
  O2-  O544  1  0.33840616  0.42726490  0.35059073  1
  O2-  O545  1  0.34322410  0.38927704  0.67667783  1
  O2-  O546  1  0.33162597  0.67153279  0.01878494  1
  O2-  O547  1  0.40129288  0.71124699  0.37171017  1
  O2-  O548  1  0.33733662  0.66714428  0.68757553  1
  O2-  O549  1  0.33760706  0.93253027  0.01968910  1
  O2-  O550  1  0.33643948  0.93305793  0.35946874  1
  O2-  O551  1  0.34494479  0.93484240  0.67653114  1
  O2-  O552  1  0.57742637  0.17133861  0.01946976  1
  O2-  O553  1  0.60633117  0.14910903  0.35593494  1
  O2-  O554  1  0.57754234  0.17015069  0.68692836  1
  O2-  O555  1  0.56762359  0.41320938  0.01719791  1
  O2-  O556  1  0.57559551  0.42237555  0.36341944  1
  O2-  O557  1  0.57986729  0.41355796  0.68819657  1
  O2-  O558  1  0.58474085  0.67612716  0.01594797  1
  O2-  O559  1  0.56807916  0.66329799  0.36550530  1
  O2-  O560  1  0.55930075  0.62678597  0.65970482  1
  O2-  O561  1  0.58320152  0.92788131  0.02652128  1
  O2-  O562  1  0.57846960  0.91260887  0.36018827  1
  O2-  O563  1  0.58077176  0.92253554  0.69211076  1
  O2-  O564  1  0.82434829  0.16726238  0.01701769  1
  O2-  O565  1  0.84179621  0.14876023  0.36808855  1
  O2-  O566  1  0.83142515  0.16957781  0.68574613  1
  O2-  O567  1  0.81988575  0.42661022  0.01659405  1
  O2-  O568  1  0.82072210  0.39075025  0.34985924  1
  O2-  O569  1  0.83617246  0.41609578  0.68937081  1
  O2-  O570  1  0.83853074  0.66912460  0.01876727  1
  O2-  O571  1  0.80143682  0.71459204  0.36622168  1
  O2-  O572  1  0.84500746  0.66776767  0.68990374  1
  O2-  O573  1  0.82849010  0.91550232  0.01521868  1
  O2-  O574  1  0.82031920  0.89513845  0.35186312  1
  O2-  O575  1  0.84663767  0.92747058  0.67963742  1
