# generated using pymatgen
data_H2O
_symmetry_space_group_name_H-M   'P 1'
_cell_length_a   17.99073439
_cell_length_b   17.99629875
_cell_length_c   22.01107411
_cell_angle_alpha   90.00498084
_cell_angle_beta   89.97443122
_cell_angle_gamma   119.98608891
_symmetry_Int_Tables_number   1
_chemical_formula_structural   H2O
_chemical_formula_sum   'H384 O192'
_cell_volume   6172.55212341
_cell_formula_units_Z   192
loop_
 _symmetry_equiv_pos_site_id
 _symmetry_equiv_pos_as_xyz
  1  'x, y, z'
loop_
 _atom_type_symbol
 _atom_type_oxidation_number
  H+  1.0
  O2-  -2.0
loop_
 _atom_site_type_symbol
 _atom_site_label
 _atom_site_symmetry_multiplicity
 _atom_site_fract_x
 _atom_site_fract_y
 _atom_site_fract_z
 _atom_site_occupancy
  H+  H0  1  0.83169294  0.40761682  0.38759185  1
  H+  H1  1  0.75581747  0.10527145  0.01823729  1
  H+  H2  1  0.85950664  0.73251656  -0.00068865  1
  H+  H3  1  0.18494839  0.28889475  0.90293121  1
  H+  H4  1  0.17366664  0.58554278  0.55184058  1
  H+  H5  1  0.10490825  0.87710271  0.83056929  1
  H+  H6  1  0.37522473  0.39336578  0.81559329  1
  H+  H7  1  0.72214237  0.84703889  0.16715920  1
  H+  H8  1  0.61481768  0.88113124  0.49568358  1
  H+  H9  1  0.85019391  0.97463994  0.14957437  1
  H+  H10  1  0.36959687  0.48699907  0.33943952  1
  H+  H11  1  0.52263927  0.38520347  0.33906222  1
  H+  H12  1  0.77429780  0.05297706  0.87135801  1
  H+  H13  1  0.36163685  0.14244282  0.32995771  1
  H+  H14  1  0.47315679  0.11277037  0.32277255  1
  H+  H15  1  0.36344976  0.64000678  0.01096979  1
  H+  H16  1  0.62591299  0.52393872  0.17530073  1
  H+  H17  1  0.49294782  0.64392148  0.84694124  1
  H+  H18  1  0.72028438  0.36030884  -0.00501968  1
  H+  H19  1  0.89454665  0.63465902  0.98602516  1
  H+  H20  1  0.26140292  0.88458194  0.31869559  1
  H+  H21  1  0.37447674  0.96371368  0.47226266  1
  H+  H22  1  0.11251497  0.14175515  0.66934694  1
  H+  H23  1  0.35117175  0.14249144  0.68930926  1
  H+  H24  1  0.62863757  0.01542869  1.00179683  1
  H+  H25  1  0.89002561  0.54784818  0.16985550  1
  H+  H26  1  0.51329776  0.12880019  0.98292297  1
  H+  H27  1  0.08781280  0.40899065  0.74085849  1
  H+  H28  1  0.11129991  0.13589767  0.34088183  1
  H+  H29  1  0.60047858  0.12768711  -0.02733951  1
  H+  H30  1  0.60872070  0.38839515  0.66909540  1
  H+  H31  1  0.03257709  0.88556007  0.48390259  1
  H+  H32  1  0.11654500  0.52229585  0.14343757  1
  H+  H33  1  0.46876123  0.85771662  0.82529727  1
  H+  H34  1  0.11788202  -0.01972492  0.67415365  1
  H+  H35  1  0.59046271  0.87443232  0.76173521  1
  H+  H36  1  0.10932195  0.89393059  0.00717585  1
  H+  H37  1  0.77288708  0.40600051  0.16494694  1
  H+  H38  1  0.19690369  0.18071691  0.87102404  1
  H+  H39  1  0.39992816  0.28010992  0.84566583  1
  H+  H40  1  0.85578997  0.37780328  0.00881837  1
  H+  H41  1  0.26737976  0.88969420  0.00578981  1
  H+  H42  1  0.11399037  0.90123923  0.33201999  1
  H+  H43  1  0.09032296  0.16999208  0.43127365  1
  H+  H44  1  0.71694560  0.10664775  0.32388919  1
  H+  H45  1  0.35892878  0.23446035  0.68349771  1
  H+  H46  1  0.13962613  0.02935961  0.32327937  1
  H+  H47  1  0.88703473  0.52077186  0.31953500  1
  H+  H48  1  0.02797487  0.89346776  0.68023685  1
  H+  H49  1  0.61820736  0.71913042  0.82542059  1
  H+  H50  1  0.65808323  0.06290295  0.23666232  1
  H+  H51  1  0.66409208  0.06940326  0.60865959  1
  H+  H52  1  0.66469015  0.09883401  0.84156179  1
  H+  H53  1  0.73485255  0.37252972  0.82478688  1
  H+  H54  1  0.61790995  0.38969228  0.81333107  1
  H+  H55  1  0.83787384  0.97466565  0.83139933  1
  H+  H56  1  0.59997695  0.62624860  0.16601239  1
  H+  H57  1  0.36351408  0.12995041  0.47526999  1
  H+  H58  1  0.37088149  0.72154346  0.16680416  1
  H+  H59  1  0.72397198  0.07945488  0.18252428  1
  H+  H60  1  0.60857009  0.63019081  0.49082153  1
  H+  H61  1  0.35695027  0.47208840  0.66924445  1
  H+  H62  1  0.62737708  1.01629170  0.32989589  1
  H+  H63  1  0.02578287  0.65036020  0.15944330  1
  H+  H64  1  0.40590946  0.39502848  0.98727699  1
  H+  H65  1  0.63622120  0.27404974  0.65553106  1
  H+  H66  1  -0.00878291  0.60820877  0.50590426  1
  H+  H67  1  0.85772570  0.22826510  0.32682758  1
  H+  H68  1  0.12508336  0.48484183  0.83172269  1
  H+  H69  1  0.37867210  0.75931309  0.66902126  1
  H+  H70  1  0.41526529  0.02695186  0.84667772  1
  H+  H71  1  0.66525455  0.58028431  0.56296595  1
  H+  H72  1  0.86476123  0.22513214  0.66861549  1
  H+  H73  1  0.84972836  0.62348712  0.33720328  1
  H+  H74  1  0.14511744  0.74374720  0.68004845  1
  H+  H75  1  0.20077812  0.71369424  0.71505825  1
  H+  H76  1  0.35659577  0.87668459  0.67631672  1
  H+  H77  1  0.13066393  0.53073676  0.32396153  1
  H+  H78  1  0.64181544  0.85081305  0.85546932  1
  H+  H79  1  0.76984167  0.38161043  0.33027753  1
  H+  H80  1  0.71945467  0.61441210  0.65902444  1
  H+  H81  1  0.61001752  0.39106185  0.16012107  1
  H+  H82  1  0.27978049  0.37514402  0.16052777  1
  H+  H83  1  0.56039935  0.13372408  0.82481876  1
  H+  H84  1  0.13159960  0.61070703  0.84991592  1
  H+  H85  1  0.89122555  0.62084899  0.83622943  1
  H+  H86  1  0.72114503  0.60989749  0.84389156  1
  H+  H87  1  0.54062272  0.13506914  0.68618751  1
  H+  H88  1  0.87612451  0.49231679  0.83056104  1
  H+  H89  1  0.97315986  0.61295826  0.32531987  1
  H+  H90  1  0.22764853  0.60325013  0.64702718  1
  H+  H91  1  0.14054967  0.77256916  0.84760988  1
  H+  H92  1  0.13723083  0.86531608  0.65730926  1
  H+  H93  1  0.37447109  0.86141897  0.99362567  1
  H+  H94  1  0.86454787  0.66561642  0.67008709  1
  H+  H95  1  0.10912084  0.64177316  0.33939778  1
  H+  H96  1  0.02335575  0.63925827  0.83217859  1
  H+  H97  1  0.22787527  0.36924996  0.66250023  1
  H+  H98  1  0.15538420  0.24854615  0.17890975  1
  H+  H99  1  0.51128370  0.88994694  0.00960581  1
  H+  H100  1  0.26768551  0.63324891  0.83149884  1
  H+  H101  1  0.88423051  0.03137783  0.30894408  1
  H+  H102  1  0.57158182  0.22682396  0.09806905  1
  H+  H103  1  0.36274371  0.38201579  0.48996973  1
  H+  H104  1  0.51130456  0.01664682  0.10470579  1
  H+  H105  1  0.60833787  0.13334233  0.33407743  1
  H+  H106  1  0.87642951  0.90263912  0.14896833  1
  H+  H107  1  0.13702260  1.02690792  0.00063548  1
  H+  H108  1  0.47162377  0.61708837  0.32822535  1
  H+  H109  1  0.12131848  0.50778415  0.17448378  1
  H+  H110  1  0.39448033  0.37896841  0.17267111  1
  H+  H111  1  0.13800426  0.33130322  0.98201258  1
  H+  H112  1  0.63657591  0.77171422  0.65507835  1
  H+  H113  1  0.82382053  0.97833920  0.46604501  1
  H+  H114  1  0.38234143  0.62039790  0.33384530  1
  H+  H115  1  0.06242496  0.17783082  0.75281607  1
  H+  H116  1  0.97316747  0.85891132  0.83381776  1
  H+  H117  1  0.36804346  0.01327727  1.00206914  1
  H+  H118  1  0.12538695  0.67224288  0.16484211  1
  H+  H119  1  0.76905739  0.87778244  0.82701942  1
  H+  H120  1  0.63713678  0.35921897  0.50154989  1
  H+  H121  1  0.10666317  0.87053089  0.16991118  1
  H+  H122  1  0.63626879  0.75072004  -0.00545342  1
  H+  H123  1  0.09770802  0.20547405  0.01343721  1
  H+  H124  1  0.36099158  0.47276795  0.16564253  1
  H+  H125  1  0.46229677  0.08321347  0.16346365  1
  H+  H126  1  0.24616079  0.89332028  0.15148368  1
  H+  H127  1  0.86389837  0.98600577  0.67283720  1
  H+  H128  1  0.51762379  0.62765059  0.49233309  1
  H+  H129  1  0.72217693  0.35917020  0.66177359  1
  H+  H130  1  0.27200596  0.14248165  0.33007518  1
  H+  H131  1  0.90794943  0.28796361  0.83464520  1
  H+  H132  1  0.32909785  0.41157197  0.72968597  1
  H+  H133  1  0.72839108  0.10519276  0.66582764  1
  H+  H134  1  0.38219604  1.02499884  0.31720815  1
  H+  H135  1  0.13761218  0.55447901  1.03242257  1
  H+  H136  1  0.38522205  0.51951838  0.50286189  1
  H+  H137  1  0.85238023  0.17322951  0.72928826  1
  H+  H138  1  0.71578721  0.60268378  0.33007712  1
  H+  H139  1  0.22757263  0.86450667  0.84491545  1
  H+  H140  1  0.36380306  0.88697267  0.82929967  1
  H+  H141  1  0.22830259  0.85799741  0.50298430  1
  H+  H142  1  0.63270460  0.36193145  0.32599493  1
  H+  H143  1  -0.01146383  0.37739917  0.84591238  1
  H+  H144  1  0.38860439  0.85228148  0.52147415  1
  H+  H145  1  0.75079457  0.83406000  0.46291472  1
  H+  H146  1  0.35280500  0.47577918  0.00854439  1
  H+  H147  1  0.37413080  0.60231426  0.17723015  1
  H+  H148  1  0.77434852  0.62892361  0.49843210  1
  H+  H149  1  0.88872088  0.11960074  0.65690307  1
  H+  H150  1  0.11906172  0.37304848  0.67514865  1
  H+  H151  1  0.36071524  -0.03248326  0.67233530  1
  H+  H152  1  0.59740822  -0.01707541  0.70046509  1
  H+  H153  1  0.63114297  0.27781985  -0.02507391  1
  H+  H154  1  0.98637435  0.64004513  0.98718253  1
  H+  H155  1  0.62757524  0.76365666  0.50229370  1
  H+  H156  1  0.47109870  0.36145380  0.65998884  1
  H+  H157  1  0.62891240  0.85986080  0.31984728  1
  H+  H158  1  0.88163475  0.66481235  0.15390546  1
  H+  H159  1  0.22822289  0.86815692  0.65848037  1
  H+  H160  1  0.12384545  -0.01456932  0.49716155  1
  H+  H161  1  0.88572188  0.12045697  0.31150915  1
  H+  H162  1  1.02394593  0.12763036  0.81450429  1
  H+  H163  1  0.80629208  -0.03480773  0.49788323  1
  H+  H164  1  0.34836007  0.13015512  1.01531656  1
  H+  H165  1  0.86709350  0.42072017  0.16938632  1
  H+  H166  1  0.22833895  0.33940027  0.99458171  1
  H+  H167  1  0.89945570  0.89147318  0.30305576  1
  H+  H168  1  0.12839205  0.23549699  0.48932711  1
  H+  H169  1  0.38757084  0.36925332  0.32376716  1
  H+  H170  1  0.67226791  0.81079694  0.90809762  1
  H+  H171  1  0.35541798  0.12921658  0.15915151  1
  H+  H172  1  0.76917914  0.89619036  0.31423509  1
  H+  H173  1  0.58124345  0.42023842  0.72862754  1
  H+  H174  1  0.12087564  0.63683000  0.48780464  1
  H+  H175  1  0.11368371  0.34072593  0.13952627  1
  H+  H176  1  0.72683800  0.61690531  0.99430321  1
  H+  H177  1  0.60942368  0.95501844  0.16361229  1
  H+  H178  1  1.00461358  0.14250109  0.50365783  1
  H+  H179  1  0.34039317  -0.02635855  0.15616841  1
  H+  H180  1  0.52510299  0.38197321  0.49231273  1
  H+  H181  1  0.87121991  0.18119398  0.16920455  1
  H+  H182  1  0.83897717  0.67884845  0.06087775  1
  H+  H183  1  0.95957389  0.10330581  0.99898058  1
  H+  H184  1  0.13670236  0.78678615  0.99701762  1
  H+  H185  1  0.63840581  0.00239655  0.83404228  1
  H+  H186  1  0.12753808  0.77587588  0.31793475  1
  H+  H187  1  0.49266532  0.37929940  0.17067988  1
  H+  H188  1  0.47860209  0.84467423  0.17927195  1
  H+  H189  1  0.58663726  0.07178537  0.14904296  1
  H+  H190  1  0.88642173  0.35263927  0.67254786  1
  H+  H191  1  1.02311470  0.14258205  0.66367307  1
  H+  H192  1  0.84576759  0.73687412  0.68808815  1
  H+  H193  1  0.12829846  0.89019662  0.49881385  1
  H+  H194  1  0.65321459  0.27880374  0.82657348  1
  H+  H195  1  0.62670924  0.13427367  0.67155177  1
  H+  H196  1  0.61575383  0.13295790  0.49402871  1
  H+  H197  1  0.60707234  0.62587607  0.82771522  1
  H+  H198  1  0.85263924  0.10008583  1.01360874  1
  H+  H199  1  0.35996211  0.62714251  0.67171026  1
  H+  H200  1  0.38764661  0.14125868  0.83736383  1
  H+  H201  1  0.88650304  0.36807703  0.50644015  1
  H+  H202  1  0.24641281  0.13003191  0.86299506  1
  H+  H203  1  0.38387452  0.60816384  0.50079957  1
  H+  H204  1  0.92280952  0.60019102  0.23158929  1
  H+  H205  1  0.12045370  0.44494355  -0.00711576  1
  H+  H206  1  0.11494406  0.40035321  0.32957964  1
  H+  H207  1  0.36607862  0.71678433  0.49192413  1
  H+  H208  1  0.53785099  0.23964457  0.09528942  1
  H+  H209  1  0.14068124  0.37046287  0.50099629  1
  H+  H210  1  0.48518460  0.10588945  0.48530983  1
  H+  H211  1  0.64226738  0.52396331  0.99839938  1
  H+  H212  1  0.51512379  0.87987721  0.34347698  1
  H+  H213  1  0.97423263  0.36125842  0.31540323  1
  H+  H214  1  0.23040460  0.11091915  0.49944132  1
  H+  H215  1  0.46102365  0.85476210  0.67771145  1
  H+  H216  1  1.02084328  0.37571521  0.67970165  1
  H+  H217  1  0.85578170  0.72532921  0.82824255  1
  H+  H218  1  0.38665179  0.26749884  0.50259442  1
  H+  H219  1  0.78598775  0.06591336  0.44972734  1
  H+  H220  1  0.61573418  0.38776103  0.01091003  1
  H+  H221  1  0.76990687  0.30116364  0.72710230  1
  H+  H222  1  0.27526460  0.38538904  0.49050919  1
  H+  H223  1  0.35835561  0.72766653  0.00765515  1
  H+  H224  1  0.89698147  0.76038310  0.48825319  1
  H+  H225  1  0.35931725  0.87734517  0.43853893  1
  H+  H226  1  0.23186765  0.61321777  0.00583822  1
  H+  H227  1  0.62846675  0.01230374  0.51296142  1
  H+  H228  1  0.14454280  0.60948474  0.64670806  1
  H+  H229  1  0.86661540  0.13156182  0.48495947  1
  H+  H230  1  0.27994243  0.36771812  0.81957206  1
  H+  H231  1  0.42176883  0.81480850  0.24062537  1
  H+  H232  1  0.89461147  0.28520472  0.51331882  1
  H+  H233  1  0.03085157  0.39703668  0.49017592  1
  H+  H234  1  0.17660100  0.09996260  0.94462336  1
  H+  H235  1  0.48602711  0.36876471  0.83314149  1
  H+  H236  1  0.86016849  0.47023933  0.48258545  1
  H+  H237  1  0.63886482  0.52018685  0.50379465  1
  H+  H238  1  0.47184987  0.60817373  1.00386895  1
  H+  H239  1  0.86430943  0.88351162  -0.00070903  1
  H+  H240  1  0.13718728  0.27758516  0.65851385  1
  H+  H241  1  0.60555926  0.63227981  0.66953390  1
  H+  H242  1  0.28316604  0.64224223  0.34771038  1
  H+  H243  1  0.88676367  0.50189213  0.64816436  1
  H+  H244  1  0.11506461  0.78574688  0.16436048  1
  H+  H245  1  0.64316785  0.28833695  0.17103914  1
  H+  H246  1  0.24776137  0.65924544  0.18263803  1
  H+  H247  1  0.38400211  0.27741141  0.32078243  1
  H+  H248  1  0.16237930  0.09111248  0.26501413  1
  H+  H249  1  0.83079077  0.16644042  0.38561630  1
  H+  H250  1  0.61686683  0.22342741  0.49160941  1
  H+  H251  1  0.12169163  0.65459710  0.00674394  1
  H+  H252  1  0.63217019  0.52287190  0.65693464  1
  H+  H253  1  0.60962039  0.86714518  0.15595178  1
  H+  H254  1  0.77095745  0.38181009  0.48709514  1
  H+  H255  1  1.02256750  0.33405323  0.13935877  1
  H+  H256  1  0.60505103  0.62145595  0.01096803  1
  H+  H257  1  0.62803258  0.60703454  0.33022572  1
  H+  H258  1  -0.02995502  0.34903893  -0.00807473  1
  H+  H259  1  0.23395474  0.61560617  0.49189126  1
  H+  H260  1  0.92603972  0.60102444  0.89801368  1
  H+  H261  1  0.24342895  0.73001464  0.22063550  1
  H+  H262  1  0.86091851  0.62288385  0.49898669  1
  H+  H263  1  0.71706722  0.09964209  0.51194005  1
  H+  H264  1  0.81716710  0.11810385  0.08202579  1
  H+  H265  1  0.22477429  0.12324323  0.66672247  1
  H+  H266  1  0.22259952  0.44949844  0.26948895  1
  H+  H267  1  0.48538236  0.09829038  0.89402322  1
  H+  H268  1  0.38253882  0.75845317  0.33748677  1
  H+  H269  1  0.99243782  0.67274445  0.65276538  1
  H+  H270  1  0.87080816  0.14787945  0.82547243  1
  H+  H271  1  0.83558095  0.83052931  0.44719492  1
  H+  H272  1  0.90884462  0.33029680  0.93722022  1
  H+  H273  1  0.37935114  0.84912794  0.32541352  1
  H+  H274  1  0.85653492  0.51574158  0.66068863  1
  H+  H275  1  0.61091185  0.72614512  0.33678272  1
  H+  H276  1  0.06466705  0.91799095  0.06168547  1
  H+  H277  1  1.03074351  0.90990960  0.32811736  1
  H+  H278  1  0.41996423  0.12962798  0.61706448  1
  H+  H279  1  0.88717224  0.86666110  0.83432258  1
  H+  H280  1  0.37933742  0.77053626  0.83275778  1
  H+  H281  1  0.88722546  0.88064117  0.67726026  1
  H+  H282  1  0.24227834  0.12205482  0.01121477  1
  H+  H283  1  0.91741431  0.05502285  0.50678885  1
  H+  H284  1  0.12837138  0.39796270  0.83382075  1
  H+  H285  1  0.88258994  0.30395912  0.15548342  1
  H+  H286  1  0.97543650  0.86844697  0.98520713  1
  H+  H287  1  0.47117560  0.60812756  0.65724396  1
  H+  H288  1  0.92410269  0.34427625  0.60722388  1
  H+  H289  1  0.58420586  0.16543655  0.39427756  1
  H+  H290  1  0.41168547  0.57878222  0.59738677  1
  H+  H291  1  0.40580762  0.57785060  0.23876917  1
  H+  H292  1  0.72653262  0.84153975  0.99247662  1
  H+  H293  1  0.83110477  0.90928668  0.06034257  1
  H+  H294  1  0.65079171  0.57812289  0.23674234  1
  H+  H295  1  0.90913857  0.84238630  0.52412442  1
  H+  H296  1  0.33466470  0.92190134  0.77344293  1
  H+  H297  1  0.41641813  0.05997394  0.53742603  1
  H+  H298  1  0.89754825  0.08720091  0.21922700  1
  H+  H299  1  0.82682618  0.39557011  0.74861334  1
  H+  H300  1  0.36394845  0.64803456  0.83134542  1
  H+  H301  1  0.47839956  0.70707795  0.88750850  1
  H+  H302  1  0.57445444  0.65225492  0.07078735  1
  H+  H303  1  0.82995324  0.41947808  0.06282824  1
  H+  H304  1  0.67564951  0.06711618  0.94139313  1
  H+  H305  1  0.82163076  0.64725732  0.39890273  1
  H+  H306  1  0.65515881  0.82605287  0.25962311  1
  H+  H307  1  0.87376312  0.00698654  0.99521606  1
  H+  H308  1  0.57211616  0.91067928  0.06825206  1
  H+  H309  1  0.63058196  0.75819057  0.16896764  1
  H+  H310  1  0.42707902  0.34821761  0.23633375  1
  H+  H311  1  0.82121629  0.90270195  0.37120257  1
  H+  H312  1  0.58345795  0.41239201  0.43232980  1
  H+  H313  1  0.06863469  0.13368408  0.06429414  1
  H+  H314  1  0.40749833  0.83341558  0.93446897  1
  H+  H315  1  0.41875493  0.82111359  0.57847170  1
  H+  H316  1  0.17493357  0.60909674  0.27517263  1
  H+  H317  1  0.16080487  0.57721951  0.90790563  1
  H+  H318  1  0.14952922  0.83566555  0.25776300  1
  H+  H319  1  0.52562859  0.88005340  0.50164614  1
  H+  H320  1  0.32432492  0.65190887  0.73156188  1
  H+  H321  1  0.82255247  0.66316087  0.77074953  1
  H+  H322  1  0.17279794  0.83573832  0.56539396  1
  H+  H323  1  0.08312365  0.90978889  0.76992269  1
  H+  H324  1  0.41292647  0.32441748  0.56349383  1
  H+  H325  1  0.66028072  0.57754395  0.90268571  1
  H+  H326  1  0.33052185  0.16631448  0.42220504  1
  H+  H327  1  0.91548246  0.30651485  0.22379725  1
  H+  H328  1  0.33490905  0.41936073  0.39516295  1
  H+  H329  1  0.72443532  0.86048773  0.65549070  1
  H+  H330  1  0.26771087  0.13156465  0.16099234  1
  H+  H331  1  0.91550977  0.83649177  0.92520413  1
  H+  H332  1  0.63169387  0.27135467  0.32379100  1
  H+  H333  1  0.14312672  0.11462160  0.50223351  1
  H+  H334  1  0.08430903  0.37775375  0.04858225  1
  H+  H335  1  0.85744888  0.06774723  0.90996323  1
  H+  H336  1  0.41581870  0.08227817  0.22677339  1
  H+  H337  1  0.17572029  0.32619067  0.22539620  1
  H+  H338  1  0.02391483  0.13735148  0.33936386  1
  H+  H339  1  0.32139309  0.16257889  0.07628574  1
  H+  H340  1  0.34070853  0.66648444  0.42424941  1
  H+  H341  1  0.32333761  0.05930330  0.60865234  1
  H+  H342  1  0.92545622  0.09742659  0.59727168  1
  H+  H343  1  0.11393730  0.72296113  0.49403271  1
  H+  H344  1  0.24604304  0.39861445  0.31586727  1
  H+  H345  1  0.93224653  0.54133748  0.55786994  1
  H+  H346  1  0.51155931  0.62919462  0.16376264  1
  H+  H347  1  0.41842106  0.59421121  0.94367527  1
  H+  H348  1  0.33135043  0.66481596  0.10538717  1
  H+  H349  1  0.38063543  0.07130414  0.94392295  1
  H+  H350  1  0.94551024  0.87211781  0.24936966  1
  H+  H351  1  0.58053991  0.66745643  0.39702412  1
  H+  H352  1  0.89038465  0.75542317  0.14427061  1
  H+  H353  1  0.61511256  0.47756830  0.82380972  1
  H+  H354  1  0.57675755  0.66009356  0.73008247  1
  H+  H355  1  0.53485930  0.40571071  0.00628947  1
  H+  H356  1  0.88439750  0.35989908  0.31136861  1
  H+  H357  1  0.13943154  0.25049188  0.83817541  1
  H+  H358  1  0.09495463  0.67031305  0.77832064  1
  H+  H359  1  0.17365775  0.09118976  0.60299788  1
  H+  H360  1  0.31080025  0.91934503  0.37961870  1
  H+  H361  1  0.34262578  0.16684385  0.78515547  1
  H+  H362  1  0.83025073  0.92907958  0.73466275  1
  H+  H363  1  0.16831838  0.34273350  0.56228007  1
  H+  H364  1  0.66462891  0.33710986  0.23537868  1
  H+  H365  1  0.08939867  0.68179171  0.06629943  1
  H+  H366  1  0.33347898  0.41564074  0.06633239  1
  H+  H367  1  0.61045643  0.47500756  0.34038344  1
  H+  H368  1  0.91362240  0.83733543  0.62524553  1
  H+  H369  1  0.44162671  0.37316851  0.92675052  1
  H+  H370  1  0.62053993  0.16496501  0.76785735  1
  H+  H371  1  0.07822681  0.67292594  0.39637979  1
  H+  H372  1  0.66854193  0.82685780  0.55919437  1
  H+  H373  1  0.87671661  0.40224724  0.83549864  1
  H+  H374  1  0.94566441  0.65348942  0.59031841  1
  H+  H375  1  0.95751327  0.20337264  0.79298277  1
  H+  H376  1  0.57891610  0.91120161  0.40083128  1
  H+  H377  1  0.12037193  0.48421634  0.48378176  1
  H+  H378  1  0.16505666  0.84382852  0.93671892  1
  H+  H379  1  0.38123568  0.36096001  0.65826343  1
  H+  H380  1  0.07821411  0.41700821  0.39131311  1
  H+  H381  1  0.57996337  0.41703440  0.09683319  1
  H+  H382  1  0.32026492  0.91472138  0.06824948  1
  H+  H383  1  0.66993343  0.33309510  0.56116824  1
  O2-  O384  1  0.11437806  0.13627899  0.15593575  1
  O2-  O385  1  0.09660374  0.17343077  0.47788140  1
  O2-  O386  1  0.04428813  0.18340482  0.79529379  1
  O2-  O387  1  0.07927865  0.36322809  0.11986510  1
  O2-  O388  1  0.08827600  0.42167784  0.47133138  1
  O2-  O389  1  0.09843165  0.42441663  0.81459396  1
  O2-  O390  1  0.08528443  0.68473352  0.14158930  1
  O2-  O391  1  0.08382112  0.66356548  0.47796192  1
  O2-  O392  1  0.08754868  0.66603494  0.82304908  1
  O2-  O393  1  0.03859775  0.91216457  0.14247161  1
  O2-  O394  1  0.09793580  0.92216445  0.48321208  1
  O2-  O395  1  0.07154628  0.90273513  0.81396937  1
  O2-  O396  1  0.32682675  0.16158268  0.14538444  1
  O2-  O397  1  0.33162216  0.16066983  0.46803163  1
  O2-  O398  1  0.35131084  0.16723823  0.82949640  1
  O2-  O399  1  0.34102050  0.41396965  0.14772560  1
  O2-  O400  1  0.33498167  0.41404940  0.47409744  1
  O2-  O401  1  0.33436418  0.41138872  0.80036033  1
  O2-  O402  1  0.33051637  0.66047906  0.15045157  1
  O2-  O403  1  0.33473004  0.65913842  0.47356199  1
  O2-  O404  1  0.32470317  0.66475981  0.81104517  1
  O2-  O405  1  0.30620036  0.91556685  0.13780706  1
  O2-  O406  1  0.33575479  0.89975528  0.46879240  1
  O2-  O407  1  0.33805302  0.92341800  0.81844287  1
  O2-  O408  1  0.54012620  0.07215436  0.12504607  1
  O2-  O409  1  0.58783435  0.16341632  0.47513218  1
  O2-  O410  1  0.62148785  0.15967330  0.81262430  1
  O2-  O411  1  0.57597350  0.41642032  0.14426043  1
  O2-  O412  1  0.58588370  0.41189966  0.47800806  1
  O2-  O413  1  0.58535632  0.42023816  0.80331666  1
  O2-  O414  1  0.57097811  0.65767245  0.14724016  1
  O2-  O415  1  0.57782276  0.65980408  0.47618652  1
  O2-  O416  1  0.58016185  0.65910048  0.81081519  1
  O2-  O417  1  0.57715868  0.89713816  0.14450045  1
  O2-  O418  1  0.58449481  0.91375122  0.48413628  1
  O2-  O419  1  0.57154365  0.91377184  0.77707282  1
  O2-  O420  1  0.83446171  0.11849744  0.15801922  1
  O2-  O421  1  0.81393220  0.12523413  0.46420971  1
  O2-  O422  1  0.89999239  0.19835461  0.79708164  1
  O2-  O423  1  0.83279419  0.44097169  0.14874039  1
  O2-  O424  1  0.83139337  0.40909937  0.47077123  1
  O2-  O425  1  0.84664553  0.43049553  0.81698699  1
  O2-  O426  1  0.85489942  0.69458431  0.13339321  1
  O2-  O427  1  0.83602762  0.65723734  0.48422198  1
  O2-  O428  1  0.82572758  0.66329743  0.81595476  1
  O2-  O429  1  0.83025977  0.91441257  0.13676844  1
  O2-  O430  1  0.78644424  0.83183009  0.42945333  1
  O2-  O431  1  0.82729857  0.92071132  0.81116421  1
  O2-  O432  1  0.15096344  0.09682947  0.17883424  1
  O2-  O433  1  0.17102200  0.08158398  0.51753808  1
  O2-  O434  1  0.19116690  0.12328239  0.87724842  1
  O2-  O435  1  0.17786074  0.31113062  0.18222780  1
  O2-  O436  1  0.17020335  0.33990286  0.51742088  1
  O2-  O437  1  0.19529790  0.27857702  0.85947614  1
  O2-  O438  1  0.20675522  0.67097016  0.20711521  1
  O2-  O439  1  0.17163064  0.58679599  0.50597318  1
  O2-  O440  1  0.16290141  0.57965284  0.86313318  1
  O2-  O441  1  0.14199547  0.84482006  0.18223360  1
  O2-  O442  1  0.16956273  0.83532272  0.51941861  1
  O2-  O443  1  0.16770632  0.83389239  0.86059366  1
  O2-  O444  1  0.40871831  0.07719235  0.18179915  1
  O2-  O445  1  0.42110553  0.06796216  0.49331951  1
  O2-  O446  1  0.45203747  0.08941566  0.85600921  1
  O2-  O447  1  0.42996097  0.35231110  0.18981209  1
  O2-  O448  1  0.41661183  0.32734155  0.51826364  1
  O2-  O449  1  0.42670317  0.34313551  0.85048818  1
  O2-  O450  1  0.40362886  0.57139291  0.19320058  1
  O2-  O451  1  0.41455865  0.57925570  0.51908205  1
  O2-  O452  1  0.44745768  0.64897974  0.87099646  1
  O2-  O453  1  0.41896401  0.81114997  0.19542278  1
  O2-  O454  1  0.42154549  0.82439623  0.53304513  1
  O2-  O455  1  0.41396554  0.83108609  0.84786178  1
  O2-  O456  1  0.66272240  0.05717228  0.19158731  1
  O2-  O457  1  0.65836538  0.07352343  0.52890171  1
  O2-  O458  1  0.67654006  0.05380349  0.85797170  1
  O2-  O459  1  0.67012335  0.34527412  0.18947507  1
  O2-  O460  1  0.66911599  0.32966985  0.51578982  1
  O2-  O461  1  0.67230198  0.33892814  0.81667880  1
  O2-  O462  1  0.64842438  0.58231961  0.19174208  1
  O2-  O463  1  0.66981762  0.58128374  0.51749083  1
  O2-  O464  1  0.65962526  0.57806245  0.85692918  1
  O2-  O465  1  0.66249856  0.82003168  0.18279537  1
  O2-  O466  1  0.66395953  0.82554509  0.51359150  1
  O2-  O467  1  0.67115623  0.81806011  0.86005300  1
  O2-  O468  1  0.88902309  0.08122894  0.17307297  1
  O2-  O469  1  0.94244447  0.11490644  0.51954137  1
  O2-  O470  1  0.83283134  0.06042597  0.86826516  1
  O2-  O471  1  0.91559896  0.28649638  0.18082719  1
  O2-  O472  1  0.92126668  0.34486940  0.52642070  1
  O2-  O473  1  0.92646506  0.34424422  0.85466794  1
  O2-  O474  1  0.92738882  0.60653884  0.18619301  1
  O2-  O475  1  0.93043682  0.57585942  0.52422287  1
  O2-  O476  1  0.92516671  0.59444061  0.85124571  1
  O2-  O477  1  0.95921585  0.87269729  0.16306452  1
  O2-  O478  1  0.92983588  0.82577629  0.48870190  1
  O2-  O479  1  0.91134138  0.83108095  0.84892530  1
  O2-  O480  1  0.17093313  0.09266016  0.30932492  1
  O2-  O481  1  0.16661290  0.08924804  0.64779966  1
  O2-  O482  1  0.17242685  0.09011038  0.99119909  1
  O2-  O483  1  0.19712322  0.39407347  0.29010508  1
  O2-  O484  1  0.16502346  0.34039376  0.64773222  1
  O2-  O485  1  0.17086640  0.30052220  0.97593139  1
  O2-  O486  1  0.16407472  0.59410853  0.31898478  1
  O2-  O487  1  0.17077441  0.57929040  0.62685367  1
  O2-  O488  1  0.16804633  0.57894750  0.99436909  1
  O2-  O489  1  0.16004844  0.83599113  0.30260020  1
  O2-  O490  1  0.16881715  0.83635048  0.64105476  1
  O2-  O491  1  0.16536595  0.84768853  0.98223135  1
  O2-  O492  1  0.41391235  0.08700566  0.30588698  1
  O2-  O493  1  0.37707429  0.07066804  0.62781373  1
  O2-  O494  1  0.39375164  0.07533075  0.98727591  1
  O2-  O495  1  0.41768753  0.33908506  0.30739299  1
  O2-  O496  1  0.40980943  0.32742130  0.64595690  1
  O2-  O497  1  0.45642938  0.39591228  0.96881315  1
  O2-  O498  1  0.40999271  0.58572935  0.31564946  1
  O2-  O499  1  0.41000219  0.57715892  0.64300552  1
  O2-  O500  1  0.41114323  0.58457967  0.98815549  1
  O2-  O501  1  0.41481769  0.82215078  0.31940751  1
  O2-  O502  1  0.40586605  0.82133347  0.65568098  1
  O2-  O503  1  0.40397780  0.82960637  0.97923249  1
  O2-  O504  1  0.65522106  0.07559967  0.31169231  1
  O2-  O505  1  0.66630948  0.07365680  0.65405009  1
  O2-  O506  1  0.67083254  0.07597627  0.98528512  1
  O2-  O507  1  0.66297643  0.33214740  0.30878241  1
  O2-  O508  1  0.66584232  0.33450921  0.64103690  1
  O2-  O509  1  0.66019834  0.34020558  0.98053699  1
  O2-  O510  1  0.65388996  0.57226589  0.31573941  1
  O2-  O511  1  0.66080362  0.58294584  0.64072017  1
  O2-  O512  1  0.66534340  0.58277747  0.98047113  1
  O2-  O513  1  0.65916751  0.82984813  0.30499994  1
  O2-  O514  1  0.66704403  0.82976564  0.63655367  1
  O2-  O515  1  0.66909925  0.80705409  0.97318942  1
  O2-  O516  1  0.91601998  0.09224186  0.29347394  1
  O2-  O517  1  0.92112904  0.09072333  0.64235120  1
  O2-  O518  1  0.89766716  0.07002841  0.98314299  1
  O2-  O519  1  0.91492770  0.32914142  0.29748076  1
  O2-  O520  1  0.92567653  0.33549080  0.65186929  1
  O2-  O521  1  0.90914914  0.32737540  0.98200418  1
  O2-  O522  1  0.91415303  0.58198966  0.30730806  1
  O2-  O523  1  0.95656838  0.68709089  0.62790604  1
  O2-  O524  1  0.93042124  0.61341736  0.96637173  1
  O2-  O525  1  0.93764107  0.86806886  0.29362558  1
  O2-  O526  1  0.91765685  0.84627406  0.66895223  1
  O2-  O527  1  0.91468246  0.83739684  0.97086218  1
  O2-  O528  1  0.04699175  0.15693734  0.03331084  1
  O2-  O529  1  0.07953417  0.16178761  0.36054825  1
  O2-  O530  1  0.08338996  0.17498274  0.68041571  1
  O2-  O531  1  0.08505801  0.38386218  0.00240239  1
  O2-  O532  1  0.07482440  0.41847539  0.34601509  1
  O2-  O533  1  0.08224224  0.40051384  0.69525356  1
  O2-  O534  1  0.09235333  0.68531857  0.02059947  1
  O2-  O535  1  0.07677725  0.67200576  0.35130964  1
  O2-  O536  1  0.14155487  0.69381493  0.70293739  1
  O2-  O537  1  0.07656680  0.92404651  0.01734058  1
  O2-  O538  1  0.08958424  0.93618107  0.34717896  1
  O2-  O539  1  0.09101528  0.91901467  0.68652162  1
  O2-  O540  1  0.31773202  0.16059576  0.02949889  1
  O2-  O541  1  0.33301790  0.17374748  0.34622412  1
  O2-  O542  1  0.32403209  0.17526039  0.70243566  1
  O2-  O543  1  0.32690155  0.41462804  0.02151769  1
  O2-  O544  1  0.33773776  0.42332603  0.34980787  1
  O2-  O545  1  0.32483961  0.41068095  0.68282092  1
  O2-  O546  1  0.32971934  0.66789437  0.02466396  1
  O2-  O547  1  0.34357511  0.67098557  0.36053094  1
  O2-  O548  1  0.32753212  0.65609549  0.68639140  1
  O2-  O549  1  0.32763171  0.91612028  0.02176304  1
  O2-  O550  1  0.32171735  0.91559884  0.33652944  1
  O2-  O551  1  0.32801331  0.90995067  0.68994002  1
  O2-  O552  1  0.56509589  0.15153528  -0.04289404  1
  O2-  O553  1  0.58042466  0.16623610  0.34921138  1
  O2-  O554  1  0.60279748  0.17114100  0.68766084  1
  O2-  O555  1  0.59051558  0.42273672  0.02897062  1
  O2-  O556  1  0.58258581  0.41280654  0.35470682  1
  O2-  O557  1  0.57731328  0.41779108  0.68260637  1
  O2-  O558  1  0.57309133  0.65097784  0.02512931  1
  O2-  O559  1  0.57914591  0.66558072  0.35168208  1
  O2-  O560  1  0.57494488  0.66207200  0.68482818  1
  O2-  O561  1  0.57105836  0.92401696  0.02434997  1
  O2-  O562  1  0.57765825  0.91381951  0.35575203  1
  O2-  O563  1  0.54373071  0.93774325  0.72091143  1
  O2-  O564  1  0.81641642  0.12609294  0.03684091  1
  O2-  O565  1  0.82633201  0.16700622  0.34088555  1
  O2-  O566  1  0.83519061  0.16547730  0.68503579  1
  O2-  O567  1  0.82120760  0.40526743  0.01952010  1
  O2-  O568  1  0.83169865  0.40919031  0.34248012  1
  O2-  O569  1  0.80768999  0.35821913  0.71038544  1
  O2-  O570  1  0.83097544  0.67268546  0.01516175  1
  O2-  O571  1  0.81366389  0.64547769  0.35467292  1
  O2-  O572  1  0.82049827  0.67367319  0.69183949  1
  O2-  O573  1  0.83047297  0.91078409  0.01478501  1
  O2-  O574  1  0.82941555  0.92885496  0.32973780  1
  O2-  O575  1  0.83410026  0.92637763  0.68921628  1
